(PID.TID 0000.0001) 
(PID.TID 0000.0001) // ======================================================
(PID.TID 0000.0001) //                      MITgcm UV
(PID.TID 0000.0001) //                      =========
(PID.TID 0000.0001) // ======================================================
(PID.TID 0000.0001) // execution environment starting up...
(PID.TID 0000.0001) 
(PID.TID 0000.0001) // MITgcmUV version:  checkpoint59c
(PID.TID 0000.0001) // Build user:        jmc
(PID.TID 0000.0001) // Build host:        faulks
(PID.TID 0000.0001) // Build date:        Tue Jun 12 11:29:22 EDT 2007
(PID.TID 0000.0001) 
(PID.TID 0000.0001) // =======================================================
(PID.TID 0000.0001) // Execution Environment parameter file "eedata"
(PID.TID 0000.0001) // =======================================================
(PID.TID 0000.0001) ># Example "eedata" file
(PID.TID 0000.0001) ># Lines beginning "#" are comments
(PID.TID 0000.0001) ># nTx - No. threads per process in X
(PID.TID 0000.0001) ># nTy - No. threads per process in Y
(PID.TID 0000.0001) > &EEPARMS
(PID.TID 0000.0001) > useCubedSphereExchange=.TRUE.,
(PID.TID 0000.0001) > nTx=1,
(PID.TID 0000.0001) > nTy=1,
(PID.TID 0000.0001) > &
(PID.TID 0000.0001) ># Note: Some systems use & as the
(PID.TID 0000.0001) ># namelist terminator. Other systems
(PID.TID 0000.0001) ># use a / character (as shown here).
(PID.TID 0000.0001) 
(PID.TID 0000.0001) // =======================================================
(PID.TID 0000.0001) // Computational Grid Specification ( see files "SIZE.h" )
(PID.TID 0000.0001) //                                  ( and "eedata"       )
(PID.TID 0000.0001) // =======================================================
(PID.TID 0000.0001)      nPx =    1 ; /* No. processes in X */
(PID.TID 0000.0001)      nPy =    1 ; /* No. processes in Y */
(PID.TID 0000.0001)      nSx =    6 ; /* No. tiles in X per process */
(PID.TID 0000.0001)      nSy =    1 ; /* No. tiles in Y per process */
(PID.TID 0000.0001)      sNx =   32 ; /* Tile size in X */
(PID.TID 0000.0001)      sNy =   32 ; /* Tile size in Y */
(PID.TID 0000.0001)      OLx =    4 ; /* Tile overlap distance in X */
(PID.TID 0000.0001)      OLy =    4 ; /* Tile overlap distance in Y */
(PID.TID 0000.0001)      nTx =    1 ; /* No. threads in X per process */
(PID.TID 0000.0001)      nTy =    1 ; /* No. threads in Y per process */
(PID.TID 0000.0001)       Nr =   15 ; /* No. levels in the vertical   */
(PID.TID 0000.0001)       nX =  192 ; /* Total domain size in X ( = nPx*nSx*sNx ) */
(PID.TID 0000.0001)       nY =   32 ; /* Total domain size in Y ( = nPy*nSy*sNy ) */
(PID.TID 0000.0001)   nTiles =    6 ; /* Total no. tiles per process ( = nSx*nSy ) */
(PID.TID 0000.0001)   nProcs =    1 ; /* Total no. processes ( = nPx*nPy ) */
(PID.TID 0000.0001) nThreads =    1 ; /* Total no. threads per process ( = nTx*nTy ) */
(PID.TID 0000.0001) usingMPI =    F ; /* Flag used to control whether MPI is in use */
(PID.TID 0000.0001)                   /*  note: To execute a program with MPI calls */
(PID.TID 0000.0001)                   /*  it must be launched appropriately e.g     */
(PID.TID 0000.0001)                   /*  "mpirun -np 64 ......"                    */
(PID.TID 0000.0001) useCoupler=   F ; /* Flag used to control communications with */
(PID.TID 0000.0001)                   /*  other model components, through a coupler */
(PID.TID 0000.0001) 
(PID.TID 0000.0001) // ======================================================
(PID.TID 0000.0001) // Mapping of tiles to threads
(PID.TID 0000.0001) // ======================================================
(PID.TID 0000.0001) // -o- Thread   1, tiles (   1:   6,   1:   1)
(PID.TID 0000.0001) 
(PID.TID 0000.0001) // ======================================================
(PID.TID 0000.0001) // Tile <-> Tile connectvity table
(PID.TID 0000.0001) // ======================================================
(PID.TID 0000.0001) // Tile number: 000001 (process no. = 000001)
(PID.TID 0000.0001) //        WEST: Tile = 000006, Process = 000001, Comm = put
(PID.TID 0000.0001) //                bi = 000006, bj = 000001
(PID.TID 0000.0001) //        EAST: Tile = 000002, Process = 000001, Comm = put
(PID.TID 0000.0001) //                bi = 000002, bj = 000001
(PID.TID 0000.0001) //       SOUTH: Tile = 000001, Process = 000001, Comm = put
(PID.TID 0000.0001) //                bi = 000001, bj = 000001
(PID.TID 0000.0001) //       NORTH: Tile = 000001, Process = 000001, Comm = put
(PID.TID 0000.0001) //                bi = 000001, bj = 000001
(PID.TID 0000.0001) // Tile number: 000002 (process no. = 000001)
(PID.TID 0000.0001) //        WEST: Tile = 000001, Process = 000001, Comm = put
(PID.TID 0000.0001) //                bi = 000001, bj = 000001
(PID.TID 0000.0001) //        EAST: Tile = 000003, Process = 000001, Comm = put
(PID.TID 0000.0001) //                bi = 000003, bj = 000001
(PID.TID 0000.0001) //       SOUTH: Tile = 000002, Process = 000001, Comm = put
(PID.TID 0000.0001) //                bi = 000002, bj = 000001
(PID.TID 0000.0001) //       NORTH: Tile = 000002, Process = 000001, Comm = put
(PID.TID 0000.0001) //                bi = 000002, bj = 000001
(PID.TID 0000.0001) // Tile number: 000003 (process no. = 000001)
(PID.TID 0000.0001) //        WEST: Tile = 000002, Process = 000001, Comm = put
(PID.TID 0000.0001) //                bi = 000002, bj = 000001
(PID.TID 0000.0001) //        EAST: Tile = 000004, Process = 000001, Comm = put
(PID.TID 0000.0001) //                bi = 000004, bj = 000001
(PID.TID 0000.0001) //       SOUTH: Tile = 000003, Process = 000001, Comm = put
(PID.TID 0000.0001) //                bi = 000003, bj = 000001
(PID.TID 0000.0001) //       NORTH: Tile = 000003, Process = 000001, Comm = put
(PID.TID 0000.0001) //                bi = 000003, bj = 000001
(PID.TID 0000.0001) // Tile number: 000004 (process no. = 000001)
(PID.TID 0000.0001) //        WEST: Tile = 000003, Process = 000001, Comm = put
(PID.TID 0000.0001) //                bi = 000003, bj = 000001
(PID.TID 0000.0001) //        EAST: Tile = 000005, Process = 000001, Comm = put
(PID.TID 0000.0001) //                bi = 000005, bj = 000001
(PID.TID 0000.0001) //       SOUTH: Tile = 000004, Process = 000001, Comm = put
(PID.TID 0000.0001) //                bi = 000004, bj = 000001
(PID.TID 0000.0001) //       NORTH: Tile = 000004, Process = 000001, Comm = put
(PID.TID 0000.0001) //                bi = 000004, bj = 000001
(PID.TID 0000.0001) // Tile number: 000005 (process no. = 000001)
(PID.TID 0000.0001) //        WEST: Tile = 000004, Process = 000001, Comm = put
(PID.TID 0000.0001) //                bi = 000004, bj = 000001
(PID.TID 0000.0001) //        EAST: Tile = 000006, Process = 000001, Comm = put
(PID.TID 0000.0001) //                bi = 000006, bj = 000001
(PID.TID 0000.0001) //       SOUTH: Tile = 000005, Process = 000001, Comm = put
(PID.TID 0000.0001) //                bi = 000005, bj = 000001
(PID.TID 0000.0001) //       NORTH: Tile = 000005, Process = 000001, Comm = put
(PID.TID 0000.0001) //                bi = 000005, bj = 000001
(PID.TID 0000.0001) // Tile number: 000006 (process no. = 000001)
(PID.TID 0000.0001) //        WEST: Tile = 000005, Process = 000001, Comm = put
(PID.TID 0000.0001) //                bi = 000005, bj = 000001
(PID.TID 0000.0001) //        EAST: Tile = 000001, Process = 000001, Comm = put
(PID.TID 0000.0001) //                bi = 000001, bj = 000001
(PID.TID 0000.0001) //       SOUTH: Tile = 000006, Process = 000001, Comm = put
(PID.TID 0000.0001) //                bi = 000006, bj = 000001
(PID.TID 0000.0001) //       NORTH: Tile = 000006, Process = 000001, Comm = put
(PID.TID 0000.0001) //                bi = 000006, bj = 000001
(PID.TID 0000.0001) 
(PID.TID 0000.0001) ===== W2 TILE TOPLOGY =====
(PID.TID 0000.0001)  TILE:    1
(PID.TID 0000.0001)       NEIGHBOUR    1 = TILE    3 Comm = PUT ( PROC =    1)
(PID.TID 0000.0001)       NEIGHBOUR    2 = TILE    6 Comm = PUT ( PROC =    1)
(PID.TID 0000.0001)       NEIGHBOUR    3 = TILE    2 Comm = PUT ( PROC =    1)
(PID.TID 0000.0001)       NEIGHBOUR    4 = TILE    5 Comm = PUT ( PROC =    1)
(PID.TID 0000.0001)  TILE:    2
(PID.TID 0000.0001)       NEIGHBOUR    1 = TILE    3 Comm = PUT ( PROC =    1)
(PID.TID 0000.0001)       NEIGHBOUR    2 = TILE    6 Comm = PUT ( PROC =    1)
(PID.TID 0000.0001)       NEIGHBOUR    3 = TILE    4 Comm = PUT ( PROC =    1)
(PID.TID 0000.0001)       NEIGHBOUR    4 = TILE    1 Comm = PUT ( PROC =    1)
(PID.TID 0000.0001)  TILE:    3
(PID.TID 0000.0001)       NEIGHBOUR    1 = TILE    5 Comm = PUT ( PROC =    1)
(PID.TID 0000.0001)       NEIGHBOUR    2 = TILE    2 Comm = PUT ( PROC =    1)
(PID.TID 0000.0001)       NEIGHBOUR    3 = TILE    4 Comm = PUT ( PROC =    1)
(PID.TID 0000.0001)       NEIGHBOUR    4 = TILE    1 Comm = PUT ( PROC =    1)
(PID.TID 0000.0001)  TILE:    4
(PID.TID 0000.0001)       NEIGHBOUR    1 = TILE    5 Comm = PUT ( PROC =    1)
(PID.TID 0000.0001)       NEIGHBOUR    2 = TILE    2 Comm = PUT ( PROC =    1)
(PID.TID 0000.0001)       NEIGHBOUR    3 = TILE    6 Comm = PUT ( PROC =    1)
(PID.TID 0000.0001)       NEIGHBOUR    4 = TILE    3 Comm = PUT ( PROC =    1)
(PID.TID 0000.0001)  TILE:    5
(PID.TID 0000.0001)       NEIGHBOUR    1 = TILE    1 Comm = PUT ( PROC =    1)
(PID.TID 0000.0001)       NEIGHBOUR    2 = TILE    4 Comm = PUT ( PROC =    1)
(PID.TID 0000.0001)       NEIGHBOUR    3 = TILE    6 Comm = PUT ( PROC =    1)
(PID.TID 0000.0001)       NEIGHBOUR    4 = TILE    3 Comm = PUT ( PROC =    1)
(PID.TID 0000.0001)  TILE:    6
(PID.TID 0000.0001)       NEIGHBOUR    1 = TILE    1 Comm = PUT ( PROC =    1)
(PID.TID 0000.0001)       NEIGHBOUR    2 = TILE    4 Comm = PUT ( PROC =    1)
(PID.TID 0000.0001)       NEIGHBOUR    3 = TILE    2 Comm = PUT ( PROC =    1)
(PID.TID 0000.0001)       NEIGHBOUR    4 = TILE    5 Comm = PUT ( PROC =    1)
(PID.TID 0000.0001) Tile    1(proc =   1) sends points i=  36:  -3, j=  29:  32
(PID.TID 0000.0001)                          to points i=  -3:   0, j=  -3:  36 in tile    3(proc =   1)
(PID.TID 0000.0001) Tile    1(proc =   1) sends points i=  -3:  36, j=   1:   4
(PID.TID 0000.0001)                          to points i=  -3:  36, j=  33:  36 in tile    6(proc =   1)
(PID.TID 0000.0001) Tile    1(proc =   1) sends points i=  29:  32, j=  -3:  36
(PID.TID 0000.0001)                          to points i=  -3:   0, j=  -3:  36 in tile    2(proc =   1)
(PID.TID 0000.0001) Tile    1(proc =   1) sends points i=   1:   4, j=  36:  -3
(PID.TID 0000.0001)                          to points i=  -3:  36, j=  33:  36 in tile    5(proc =   1)
(PID.TID 0000.0001) Tile    2(proc =   1) sends points i=  -3:  36, j=  29:  32
(PID.TID 0000.0001)                          to points i=  -3:  36, j=  -3:   0 in tile    3(proc =   1)
(PID.TID 0000.0001) Tile    2(proc =   1) sends points i=  36:  -3, j=   1:   4
(PID.TID 0000.0001)                          to points i=  33:  36, j=  -3:  36 in tile    6(proc =   1)
(PID.TID 0000.0001) Tile    2(proc =   1) sends points i=  29:  32, j=  36:  -3
(PID.TID 0000.0001)                          to points i=  -3:  36, j=  -3:   0 in tile    4(proc =   1)
(PID.TID 0000.0001) Tile    2(proc =   1) sends points i=   1:   4, j=  -3:  36
(PID.TID 0000.0001)                          to points i=  33:  36, j=  -3:  36 in tile    1(proc =   1)
(PID.TID 0000.0001) Tile    3(proc =   1) sends points i=  36:  -3, j=  29:  32
(PID.TID 0000.0001)                          to points i=  -3:   0, j=  -3:  36 in tile    5(proc =   1)
(PID.TID 0000.0001) Tile    3(proc =   1) sends points i=  -3:  36, j=   1:   4
(PID.TID 0000.0001)                          to points i=  -3:  36, j=  33:  36 in tile    2(proc =   1)
(PID.TID 0000.0001) Tile    3(proc =   1) sends points i=  29:  32, j=  -3:  36
(PID.TID 0000.0001)                          to points i=  -3:   0, j=  -3:  36 in tile    4(proc =   1)
(PID.TID 0000.0001) Tile    3(proc =   1) sends points i=   1:   4, j=  36:  -3
(PID.TID 0000.0001)                          to points i=  -3:  36, j=  33:  36 in tile    1(proc =   1)
(PID.TID 0000.0001) Tile    4(proc =   1) sends points i=  -3:  36, j=  29:  32
(PID.TID 0000.0001)                          to points i=  -3:  36, j=  -3:   0 in tile    5(proc =   1)
(PID.TID 0000.0001) Tile    4(proc =   1) sends points i=  36:  -3, j=   1:   4
(PID.TID 0000.0001)                          to points i=  33:  36, j=  -3:  36 in tile    2(proc =   1)
(PID.TID 0000.0001) Tile    4(proc =   1) sends points i=  29:  32, j=  36:  -3
(PID.TID 0000.0001)                          to points i=  -3:  36, j=  -3:   0 in tile    6(proc =   1)
(PID.TID 0000.0001) Tile    4(proc =   1) sends points i=   1:   4, j=  -3:  36
(PID.TID 0000.0001)                          to points i=  33:  36, j=  -3:  36 in tile    3(proc =   1)
(PID.TID 0000.0001) Tile    5(proc =   1) sends points i=  36:  -3, j=  29:  32
(PID.TID 0000.0001)                          to points i=  -3:   0, j=  -3:  36 in tile    1(proc =   1)
(PID.TID 0000.0001) Tile    5(proc =   1) sends points i=  -3:  36, j=   1:   4
(PID.TID 0000.0001)                          to points i=  -3:  36, j=  33:  36 in tile    4(proc =   1)
(PID.TID 0000.0001) Tile    5(proc =   1) sends points i=  29:  32, j=  -3:  36
(PID.TID 0000.0001)                          to points i=  -3:   0, j=  -3:  36 in tile    6(proc =   1)
(PID.TID 0000.0001) Tile    5(proc =   1) sends points i=   1:   4, j=  36:  -3
(PID.TID 0000.0001)                          to points i=  -3:  36, j=  33:  36 in tile    3(proc =   1)
(PID.TID 0000.0001) Tile    6(proc =   1) sends points i=  -3:  36, j=  29:  32
(PID.TID 0000.0001)                          to points i=  -3:  36, j=  -3:   0 in tile    1(proc =   1)
(PID.TID 0000.0001) Tile    6(proc =   1) sends points i=  36:  -3, j=   1:   4
(PID.TID 0000.0001)                          to points i=  33:  36, j=  -3:  36 in tile    4(proc =   1)
(PID.TID 0000.0001) Tile    6(proc =   1) sends points i=  29:  32, j=  36:  -3
(PID.TID 0000.0001)                          to points i=  -3:  36, j=  -3:   0 in tile    2(proc =   1)
(PID.TID 0000.0001) Tile    6(proc =   1) sends points i=   1:   4, j=  -3:  36
(PID.TID 0000.0001)                          to points i=  33:  36, j=  -3:  36 in tile    5(proc =   1)
(PID.TID 0000.0001) Tile    1(proc =   1)recv to points i=  -3:  36, j=  33:  36from tile   3(proc =   1)
(PID.TID 0000.0001) Tile    1(proc =   1)recv to points i=  -3:  36, j=  -3:   0from tile   6(proc =   1)
(PID.TID 0000.0001) Tile    1(proc =   1)recv to points i=  33:  36, j=  -3:  36from tile   2(proc =   1)
(PID.TID 0000.0001) Tile    1(proc =   1)recv to points i=  -3:   0, j=  -3:  36from tile   5(proc =   1)
(PID.TID 0000.0001) Tile    2(proc =   1)recv to points i=  -3:  36, j=  33:  36from tile   3(proc =   1)
(PID.TID 0000.0001) Tile    2(proc =   1)recv to points i=  -3:  36, j=  -3:   0from tile   6(proc =   1)
(PID.TID 0000.0001) Tile    2(proc =   1)recv to points i=  33:  36, j=  -3:  36from tile   4(proc =   1)
(PID.TID 0000.0001) Tile    2(proc =   1)recv to points i=  -3:   0, j=  -3:  36from tile   1(proc =   1)
(PID.TID 0000.0001) Tile    3(proc =   1)recv to points i=  -3:  36, j=  33:  36from tile   5(proc =   1)
(PID.TID 0000.0001) Tile    3(proc =   1)recv to points i=  -3:  36, j=  -3:   0from tile   2(proc =   1)
(PID.TID 0000.0001) Tile    3(proc =   1)recv to points i=  33:  36, j=  -3:  36from tile   4(proc =   1)
(PID.TID 0000.0001) Tile    3(proc =   1)recv to points i=  -3:   0, j=  -3:  36from tile   1(proc =   1)
(PID.TID 0000.0001) Tile    4(proc =   1)recv to points i=  -3:  36, j=  33:  36from tile   5(proc =   1)
(PID.TID 0000.0001) Tile    4(proc =   1)recv to points i=  -3:  36, j=  -3:   0from tile   2(proc =   1)
(PID.TID 0000.0001) Tile    4(proc =   1)recv to points i=  33:  36, j=  -3:  36from tile   6(proc =   1)
(PID.TID 0000.0001) Tile    4(proc =   1)recv to points i=  -3:   0, j=  -3:  36from tile   3(proc =   1)
(PID.TID 0000.0001) Tile    5(proc =   1)recv to points i=  -3:  36, j=  33:  36from tile   1(proc =   1)
(PID.TID 0000.0001) Tile    5(proc =   1)recv to points i=  -3:  36, j=  -3:   0from tile   4(proc =   1)
(PID.TID 0000.0001) Tile    5(proc =   1)recv to points i=  33:  36, j=  -3:  36from tile   6(proc =   1)
(PID.TID 0000.0001) Tile    5(proc =   1)recv to points i=  -3:   0, j=  -3:  36from tile   3(proc =   1)
(PID.TID 0000.0001) Tile    6(proc =   1)recv to points i=  -3:  36, j=  33:  36from tile   1(proc =   1)
(PID.TID 0000.0001) Tile    6(proc =   1)recv to points i=  -3:  36, j=  -3:   0from tile   4(proc =   1)
(PID.TID 0000.0001) Tile    6(proc =   1)recv to points i=  33:  36, j=  -3:  36from tile   2(proc =   1)
(PID.TID 0000.0001) Tile    6(proc =   1)recv to points i=  -3:   0, j=  -3:  36from tile   5(proc =   1)
(PID.TID 0000.0001) // =======================================================
(PID.TID 0000.0001) // Model parameter file "data"
(PID.TID 0000.0001) // =======================================================
(PID.TID 0000.0001) ># ====================
(PID.TID 0000.0001) ># | Model parameters |
(PID.TID 0000.0001) ># ====================
(PID.TID 0000.0001) >#
(PID.TID 0000.0001) ># Continuous equation parameters
(PID.TID 0000.0001) > &PARM01
(PID.TID 0000.0001) > tRef=15*20.,
(PID.TID 0000.0001) > sRef=15*35.,
(PID.TID 0000.0001) > viscAh =3.E5,
(PID.TID 0000.0001) > viscAr =1.E-3,
(PID.TID 0000.0001) > diffKhT=0.,
(PID.TID 0000.0001) > diffK4T=0.,
(PID.TID 0000.0001) > diffKrT=3.E-5,
(PID.TID 0000.0001) > diffKhS=0.,
(PID.TID 0000.0001) > diffK4S=0.,
(PID.TID 0000.0001) > diffKrS=3.E-5,
(PID.TID 0000.0001) > ivdc_kappa=10.,
(PID.TID 0000.0001) > implicitDiffusion=.TRUE.,
(PID.TID 0000.0001) > rotationPeriod=86400.,
(PID.TID 0000.0001) > gravity=9.81,
(PID.TID 0000.0001) > rhonil=1035.,
(PID.TID 0000.0001) > rhoConstFresh=1000.,
(PID.TID 0000.0001) > eosType='JMD95Z',
(PID.TID 0000.0001) > staggerTimeStep=.TRUE.,
(PID.TID 0000.0001) > vectorInvariantMomentum=.TRUE.,
(PID.TID 0000.0001) > implicitFreeSurface=.TRUE.,
(PID.TID 0000.0001) > exactConserv=.TRUE.,
(PID.TID 0000.0001) > select_rStar=2,
(PID.TID 0000.0001) > nonlinFreeSurf=4,
(PID.TID 0000.0001) > hFacInf=0.2,
(PID.TID 0000.0001) > hFacSup=2.0,
(PID.TID 0000.0001) > useRealFreshWaterFlux=.TRUE.,
(PID.TID 0000.0001) > hFacMin=.1,
(PID.TID 0000.0001) > hFacMinDr=20.,
(PID.TID 0000.0001) > readBinaryPrec=64,
(PID.TID 0000.0001) >#writeBinaryPrec=64,
(PID.TID 0000.0001) > &
(PID.TID 0000.0001) >
(PID.TID 0000.0001) ># Elliptic solver parameters
(PID.TID 0000.0001) > &PARM02
(PID.TID 0000.0001) > cg2dMaxIters=200,
(PID.TID 0000.0001) >#cg2dTargetResidual=1.E-9,
(PID.TID 0000.0001) > cg2dTargetResWunit=1.E-14,
(PID.TID 0000.0001) > &
(PID.TID 0000.0001) >
(PID.TID 0000.0001) ># Time stepping parameters
(PID.TID 0000.0001) > &PARM03
(PID.TID 0000.0001) > nIter0=36000,
(PID.TID 0000.0001) > nTimeSteps=20,
(PID.TID 0000.0001) > deltaTmom   =1200.,
(PID.TID 0000.0001) > deltaTtracer=86400.,
(PID.TID 0000.0001) > deltaTfreesurf=86400.,
(PID.TID 0000.0001) > deltaTClock =86400.,
(PID.TID 0000.0001) > abEps = 0.1,
(PID.TID 0000.0001) >#forcing_In_AB=.FALSE.,
(PID.TID 0000.0001) > tracForcingOutAB=1,
(PID.TID 0000.0001) > pChkptFreq  =31104000.,
(PID.TID 0000.0001) > taveFreq    =31104000.,
(PID.TID 0000.0001) > dumpFreq    =31104000.,
(PID.TID 0000.0001) > monitorFreq =2592000.,
(PID.TID 0000.0001) >#tave_lastIter=0.,
(PID.TID 0000.0001) > periodicExternalForcing=.TRUE.,
(PID.TID 0000.0001) > externForcingPeriod=2592000.,
(PID.TID 0000.0001) > externForcingCycle=31104000.,
(PID.TID 0000.0001) ># 2 months restoring timescale for temperature
(PID.TID 0000.0001) > tauThetaClimRelax = 5184000.,
(PID.TID 0000.0001) ># 6 months restoring timescale for salinity
(PID.TID 0000.0001) > tauSaltClimRelax = 15552000.,
(PID.TID 0000.0001) > latBandClimRelax=50.,
(PID.TID 0000.0001) > monitorFreq =1.,
(PID.TID 0000.0001) > &
(PID.TID 0000.0001) >
(PID.TID 0000.0001) ># Gridding parameters
(PID.TID 0000.0001) > &PARM04
(PID.TID 0000.0001) > usingCurvilinearGrid=.TRUE.,
(PID.TID 0000.0001) > horizGridFile='grid_cs32',
(PID.TID 0000.0001) > delR= 50., 70., 100., 140., 190.,
(PID.TID 0000.0001) >       240., 290., 340., 390., 440.,
(PID.TID 0000.0001) >       490., 540., 590., 640., 690.,
(PID.TID 0000.0001) > &
(PID.TID 0000.0001) >
(PID.TID 0000.0001) ># Input datasets
(PID.TID 0000.0001) > &PARM05
(PID.TID 0000.0001) > bathyFile      ='bathy_Hmin50.bin',
(PID.TID 0000.0001) > hydrogThetaFile='lev_T_cs_15k.bin',
(PID.TID 0000.0001) > hydrogSaltFile ='lev_S_cs_15k.bin',
(PID.TID 0000.0001) > zonalWindFile  ='trenberth_taux.bin',
(PID.TID 0000.0001) > meridWindFile  ='trenberth_tauy.bin',
(PID.TID 0000.0001) > thetaClimFile  ='lev_surfT_cs_12m.bin',
(PID.TID 0000.0001) > saltClimFile   ='lev_surfS_cs_12m.bin',
(PID.TID 0000.0001) > &
(PID.TID 0000.0001) 
(PID.TID 0000.0001) S/R INI_PARMS ; starts to read PARM01
(PID.TID 0000.0001) S/R INI_PARMS ; read PARM01 : OK
(PID.TID 0000.0001) S/R INI_PARMS ; starts to read PARM02
(PID.TID 0000.0001) S/R INI_PARMS ; read PARM02 : OK
(PID.TID 0000.0001) S/R INI_PARMS ; starts to read PARM03
(PID.TID 0000.0001) S/R INI_PARMS ; read PARM03 : OK
(PID.TID 0000.0001) S/R INI_PARMS ; starts to read PARM04
(PID.TID 0000.0001) S/R INI_PARMS ; read PARM04 : OK
(PID.TID 0000.0001) S/R INI_PARMS ; starts to read PARM05
(PID.TID 0000.0001) S/R INI_PARMS ; read PARM05 : OK
(PID.TID 0000.0001)  PACKAGES_BOOT: opening data.pkg
(PID.TID 0000.0001)  OPEN_COPY_DATA_FILE: opening file data.pkg
(PID.TID 0000.0001) // =======================================================
(PID.TID 0000.0001) // Parameter file "data.pkg"
(PID.TID 0000.0001) // =======================================================
(PID.TID 0000.0001) ># Packages
(PID.TID 0000.0001) > &PACKAGES
(PID.TID 0000.0001) > useGMRedi=.TRUE.,
(PID.TID 0000.0001) > useBulkforce=.TRUE.,
(PID.TID 0000.0001) > useThSIce=.TRUE.,
(PID.TID 0000.0001) > useDiagnostics=.TRUE.,
(PID.TID 0000.0001) > &
(PID.TID 0000.0001) 
(PID.TID 0000.0001)  PACKAGES_BOOT: finished reading data.pkg
(PID.TID 0000.0001)  GM_READPARMS: opening data.gmredi
(PID.TID 0000.0001)  OPEN_COPY_DATA_FILE: opening file data.gmredi
(PID.TID 0000.0001) // =======================================================
(PID.TID 0000.0001) // Parameter file "data.gmredi"
(PID.TID 0000.0001) // =======================================================
(PID.TID 0000.0001) ># GM+Redi package parameters:
(PID.TID 0000.0001) >
(PID.TID 0000.0001) >#-from MOM :
(PID.TID 0000.0001) ># GM_background_K: 	G & Mc.W  diffusion coefficient
(PID.TID 0000.0001) ># GM_maxSlope    :	max slope of isopycnals
(PID.TID 0000.0001) ># GM_Scrit       :	transition for scaling diffusion coefficient
(PID.TID 0000.0001) ># GM_Sd          :	half width scaling for diffusion coefficient
(PID.TID 0000.0001) ># GM_taper_scheme:	slope clipping or one of the tapering schemes
(PID.TID 0000.0001) ># GM_Kmin_horiz  :	horizontal diffusion minimum value
(PID.TID 0000.0001) >
(PID.TID 0000.0001) >#-Option parameters (needs to "define" options in GMREDI_OPTIONS.h")
(PID.TID 0000.0001) ># GM_isopycK     :	isopycnal diffusion coefficient (default=GM_background_K)
(PID.TID 0000.0001) ># GM_AdvForm     :	turn on GM Advective form       (default=Skew flux form)
(PID.TID 0000.0001) >
(PID.TID 0000.0001) > &GM_PARM01
(PID.TID 0000.0001) >  GM_background_K    = 800.,
(PID.TID 0000.0001) >  GM_taper_scheme    = 'gkw91',
(PID.TID 0000.0001) >  GM_maxSlope        = 1.e-2,
(PID.TID 0000.0001) >  GM_Kmin_horiz      = 50.,
(PID.TID 0000.0001) >  GM_Scrit           = 4.e-3,
(PID.TID 0000.0001) >  GM_Sd              = 1.e-3,
(PID.TID 0000.0001) ># GM_Visbeck_alpha   = 0.,
(PID.TID 0000.0001) ># GM_Visbeck_length  = 2.e+5,
(PID.TID 0000.0001) ># GM_Visbeck_depth   = 1.e+3,
(PID.TID 0000.0001) ># GM_Visbeck_maxval_K= 2.5e+3,
(PID.TID 0000.0001) > &
(PID.TID 0000.0001) >
(PID.TID 0000.0001) >
(PID.TID 0000.0001) 
(PID.TID 0000.0001)  GM_READPARMS: finished reading data.gmredi
(PID.TID 0000.0001)  OPEN_COPY_DATA_FILE: opening file data.blk
(PID.TID 0000.0001) // =======================================================
(PID.TID 0000.0001) // Parameter file "data.blk"
(PID.TID 0000.0001) // =======================================================
(PID.TID 0000.0001) > &BULKF_CONST
(PID.TID 0000.0001) > Tf0kel = 273.15,
(PID.TID 0000.0001) >#p0   = 1013.,  <- no longer in Namelist, but hard coded
(PID.TID 0000.0001) > Rgas   = 287.,
(PID.TID 0000.0001) > &
(PID.TID 0000.0001) >
(PID.TID 0000.0001) > &BULKF_PARM01
(PID.TID 0000.0001) ># set blk_nIter=0 to use the original FORMULA_LANL:
(PID.TID 0000.0001) > blk_nIter= 0,
(PID.TID 0000.0001) >#RainFile=       'ncep_precip_cs.bin',
(PID.TID 0000.0001) > RainFile=       'ncep_pr_scal_cs.bin',
(PID.TID 0000.0001) > SolarFile=      'ncep_downsolar_cs.bin',
(PID.TID 0000.0001) > AirTempFile=    'ncep_tair_cs.bin',
(PID.TID 0000.0001) > AirhumidityFile='ncep_qair_cs.bin',
(PID.TID 0000.0001) > LongwaveFile=   'ncep_downlw_cs.bin',
(PID.TID 0000.0001) > UWindFile=      ' ',
(PID.TID 0000.0001) > VWindFile=      ' ',
(PID.TID 0000.0001) > WspeedFile=     'ncep_windspeed_cs.bin',
(PID.TID 0000.0001) > RunoffFile=     ' ',
(PID.TID 0000.0001) > QnetFile=       ' ',
(PID.TID 0000.0001) > EmPFile=        ' ',
(PID.TID 0000.0001) > CloudFile=      ' ',
(PID.TID 0000.0001) >#blk_taveFreq=864000.,
(PID.TID 0000.0001) > &
(PID.TID 0000.0001) >
(PID.TID 0000.0001) > &BULKF_PARM02
(PID.TID 0000.0001) > qnet_off=0.0,
(PID.TID 0000.0001) > empmr_off=0.0,
(PID.TID 0000.0001) > conservcycle=311040000.,
(PID.TID 0000.0001) > &
(PID.TID 0000.0001) >
(PID.TID 0000.0001) 
(PID.TID 0000.0001)  BULKF_READPARMS: starts to read BULKF_CONST
(PID.TID 0000.0001)  BULKF_READPARMS: read BULKF_CONST : OK
(PID.TID 0000.0001)  BULKF_READPARMS: starts to read BULKF_PARM01
(PID.TID 0000.0001)  BULKF_READPARMS: read BULKF_PARM01 : OK
 BlkF: rhoA     =  1.3
 BlkF: rhoFW    =  1000.
 BlkF: cpAir    =  1004.
 BlkF: Lvap     =  2500000.
 BlkF: Lfresh   =  334000.
 BlkF: Tf0kel   =  273.15
 BlkF: Rgas     =  287.
 BlkF: xkar     =  0.4
 BlkF: stefan   =  5.67E-08
 BlkF: zref     =  10.
 BlkF: zwd      =  10.
 BlkF: zth      =  10.
 BlkF: cDrag_1  =  0.0027
 BlkF: cDrag_2  =  0.000142
 BlkF: cDrag_3  =  7.64E-05
 BlkF: cStantonS=  0.018
 BlkF: cStantonU=  0.0327
 BlkF: cDalton  =  0.0346
 BlkF: umin     =  1.
 BlkF: humid_fac=  0.606
 BlkF: saltQsFac=  0.98
 BlkF: gamma_blk=  0.01
 BlkF: atm_emissivity  =  0.9
 BlkF: ocean_emissivity=  0.985
 BlkF: snow_emissivity =  0.98
 BlkF: ice_emissivity  =  0.98
 BlkF: ocean_albedo    =  0.1
 BlkF: FWIND0   =  0.6
 BlkF: CHS      =  0.0008
 BlkF: VGUST    =  5.
 BlkF: DTHETA   =  3.
 BlkF: dTstab   =  1.
 BlkF: FSTAB    =  0.67
 BlkF: useFluxFormula_AIM= F
 BlkF: calcWindStress  = F
 BlkF: useQnetch       = F
 BlkF: useEmPch        = F
 BlkF: blk_nIter   = 0
 BlkF: blk_taveFreq=  31104000.
(PID.TID 0000.0001)  THSICE_READPARMS: opening data.ice
(PID.TID 0000.0001)  OPEN_COPY_DATA_FILE: opening file data.ice
(PID.TID 0000.0001) // =======================================================
(PID.TID 0000.0001) // Parameter file "data.ice"
(PID.TID 0000.0001) // =======================================================
(PID.TID 0000.0001) > &THSICE_CONST
(PID.TID 0000.0001) > Tf0kel  = 273.15,
(PID.TID 0000.0001) >#- with LANL albedo:
(PID.TID 0000.0001) >#albWarmSnow= 0.75,
(PID.TID 0000.0001) >#- for full ice-fraction :
(PID.TID 0000.0001) >#fracEnMelt = 0.,
(PID.TID 0000.0001) >#iceMaskMin = 1.,
(PID.TID 0000.0001) >#hThinIce   = 0.01,
(PID.TID 0000.0001) >#hThickIce  = 100.,
(PID.TID 0000.0001) >#- with fractional ice:
(PID.TID 0000.0001) > iceMaskMin = 0.05,
(PID.TID 0000.0001) > hiMax      = 10.,
(PID.TID 0000.0001) > hsMax      = 10.,
(PID.TID 0000.0001) >#albIceMax  = 0.7,
(PID.TID 0000.0001) >#albIceMin  = 0.7,
(PID.TID 0000.0001) > &
(PID.TID 0000.0001) >
(PID.TID 0000.0001) > &THSICE_PARM01
(PID.TID 0000.0001) >#StartIceModel=1,
(PID.TID 0000.0001) > stressReduction=0.,
(PID.TID 0000.0001) >#thSIce_taveFreq=2592000.,
(PID.TID 0000.0001) >#thSIce_diagFreq=2592000.,
(PID.TID 0000.0001) >#thSIce_monFreq=864000.,
(PID.TID 0000.0001) > &
(PID.TID 0000.0001) >
(PID.TID 0000.0001) 
(PID.TID 0000.0001)  THSICE_READPARMS: read THSICE_CONST
(PID.TID 0000.0001)  THSICE_READPARMS: read THSICE_PARM01
 ThSI: rhos      =  330.
 ThSI: rhoi      =  900.
 ThSI: rhosw     =  1035.
 ThSI: rhofw     =  1000.
 ThSI: rhoiw     =  135.
 ThSI: cpIce     =  2106.
 ThSI: cpWater   =  3994.
 ThSI: kIce      =  2.03
 ThSI: kSnow     =  0.3
 ThSI: bMeltCoef =  0.006
 ThSI: Lfresh    =  334000.
 ThSI: qsnow     =  334000.
 ThSI: albColdSnow=  0.85
 ThSI: albWarmSnow=  0.7
 ThSI: tempSnowAlb= -10.
 ThSI: albOldSnow =  0.55
 ThSI: hNewSnowAge=  0.002
 ThSI: snowAgTime =  4320000.
 ThSI: albIceMax =  0.65
 ThSI: albIceMin =  0.2
 ThSI: hAlbIce   =  0.5
 ThSI: hAlbSnow  =  0.3
 ThSI: i0swFrac  =  0.3
 ThSI: ksolar    =  1.5
 ThSI: dhSnowLin =  0.
 ThSI: saltIce   =  4.
 ThSI: S_winton  =  1.
 ThSI: mu_Tf     =  0.054
 ThSI: Tf0kel    =  273.15
 ThSI: Tmlt1     = -0.054
 ThSI: Terrmax   =  0.5
 ThSI: nitMaxTsf = 20
 ThSI: hIceMin   =  0.01
 ThSI: hiMax     =  10.
 ThSI: hsMax     =  10.
 ThSI: iceMaskMax =  1.
 ThSI: iceMaskMin =  0.05
 ThSI: fracEnMelt =  0.4
 ThSI: fracEnFreez=  0.
 ThSI: hThinIce   =  0.2
 ThSI: hThickIce  =  2.5
 ThSI: hNewIceMax =  10.
 ThSI: stressReduction =  0.
 ThSI: thSIceAdvScheme = 0
 ThSI: thSIce_diffK  =  0.
 ThSI: thSIce_deltaT =  86400.
 ThSI: ocean_deltaT  =  86400.
 ThSI: stepFwd_oceMxL= F
 ThSI: tauRelax_MxL  =  0.
 ThSI: hMxL_default  =  50.
 ThSI: sMxL_default  =  35.
 ThSI: vMxL_default  =  0.05
 ThSI: thSIce_taveFreq=  31104000.
 ThSI: thSIce_diagFreq=  31104000.
 ThSI: thSIce_monFreq =  1.
 ThSI: startIceModel = 0
(PID.TID 0000.0001)  DIAGNOSTICS_READPARMS: opening data.diagnostics
(PID.TID 0000.0001)  OPEN_COPY_DATA_FILE: opening file data.diagnostics
(PID.TID 0000.0001) // =======================================================
(PID.TID 0000.0001) // Parameter file "data.diagnostics"
(PID.TID 0000.0001) // =======================================================
(PID.TID 0000.0001) ># Diagnostic Package Choices
(PID.TID 0000.0001) >#-----------------
(PID.TID 0000.0001) ># for each output-stream:
(PID.TID 0000.0001) >#  filename(n) : prefix of the output file name (only 8.c long) for outp.stream n
(PID.TID 0000.0001) >#  frequency(n):< 0 : write snap-shot output every |frequency| seconds
(PID.TID 0000.0001) >#               > 0 : write time-average output every frequency seconds
(PID.TID 0000.0001) >#  timePhase(n)     : write at time = timePhase + multiple of |frequency|
(PID.TID 0000.0001) >#  averagingFreq(n) : frequency (in s) for periodic averaging interval
(PID.TID 0000.0001) >#  averagingPhase(n): phase     (in s) for periodic averaging interval
(PID.TID 0000.0001) >#  repeatCycle(n)   : number of averaging intervals in 1 cycle
(PID.TID 0000.0001) >#  levels(:,n) : list of levels to write to file (Notes: declared as REAL)
(PID.TID 0000.0001) >#                 when this entry is missing, select all common levels of this list
(PID.TID 0000.0001) >#  fields(:,n) : list of diagnostics fields (8.c) (see "available_diagnostics.log"
(PID.TID 0000.0001) >#                 file for the list of all available diag. in this particular config)
(PID.TID 0000.0001) >#-----------------
(PID.TID 0000.0001) > &DIAGNOSTICS_LIST
(PID.TID 0000.0001) ># diag_mnc     = .FALSE.,
(PID.TID 0000.0001) ># dumpAtLast   = .TRUE.,
(PID.TID 0000.0001) >   fields(1,1) = 'ETAN    ','ETANSQ  ','DETADT2 ','PHIBOT  ','PHIBOTSQ',
(PID.TID 0000.0001) >                 'oceTAUX ','oceTAUY ','TFLUX   ','SFLUX   ','oceFreez',
(PID.TID 0000.0001) >                 'TRELAX  ','SRELAX  ',
(PID.TID 0000.0001) >   levels(1,1) = 1.,
(PID.TID 0000.0001) >   filename(1) = 'surfDiag',
(PID.TID 0000.0001) >  frequency(1) = 1555200000.,
(PID.TID 0000.0001) >   fields(1,2) = 'UVEL    ','VVEL    ','WVEL    ','PHIHYD  ',
(PID.TID 0000.0001) >                 'VVELMASS','UVELMASS','WVELSQ  ',
(PID.TID 0000.0001) >                 'THETA   ','UTHMASS ','VTHMASS ','WTHMASS ',
(PID.TID 0000.0001) >                 'SALT    ','USLTMASS','VSLTMASS','WSLTMASS',
(PID.TID 0000.0001) ># do not specify levels => all levels are selected
(PID.TID 0000.0001) >   filename(2) = 'dynDiag',
(PID.TID 0000.0001) >  frequency(2) = 1555200000.,
(PID.TID 0000.0001) >   fields(1,3) = 'DRHODR  ','RHOAnoma','CONVADJ ',
(PID.TID 0000.0001) >                 'GM_PsiX ','GM_PsiY ',
(PID.TID 0000.0001) >                 'GM_Kwx  ','GM_Kwy  ','GM_Kwz  ',
(PID.TID 0000.0001) >                 'GM_Kux  ','GM_Kvy  ',
(PID.TID 0000.0001) >                 'GM_Kuz  ','GM_Kvz  ',
(PID.TID 0000.0001) >#- disable this output list by commenting out the file name
(PID.TID 0000.0001) >#  filename(3) = 'oceDiag',
(PID.TID 0000.0001) >  frequency(3) = 1555200000.,
(PID.TID 0000.0001) >   fields(1,4) = 'ADVx_TH ','ADVy_TH ','ADVr_TH ',
(PID.TID 0000.0001) >                 'DFxE_TH ','DFyE_TH ','DFrE_TH ',
(PID.TID 0000.0001) >                 'DFrI_TH ',
(PID.TID 0000.0001) >#                'ADVx_SLT',
(PID.TID 0000.0001) >#  filename(4) = 'flxDiag',
(PID.TID 0000.0001) >  frequency(4) = 1728000.,
(PID.TID 0000.0001) >   fields(1,5) = 'SI_Fract','SI_Thick','SI_SnowH',
(PID.TID 0000.0001) >                 'SI_Tsrf ','SI_Tice1','SI_Tice2',
(PID.TID 0000.0001) >                 'SI_Qice1','SI_Qice2','SIsnwAge',
(PID.TID 0000.0001) >                 'SIsnwPrc','SIalbedo',
(PID.TID 0000.0001) >                 'SIflx2oc','SIfrw2oc','SIsaltFx',
(PID.TID 0000.0001) >                 'SIflxAtm','SIfrwAtm',
(PID.TID 0000.0001) >#                'SItOcMxL','SIsOcMxL',
(PID.TID 0000.0001) >   filename(5) = 'thSIceDiag',
(PID.TID 0000.0001) >  frequency(5) = 1555200000.,
(PID.TID 0000.0001) > averagingFreq(5) = 2592000.,
(PID.TID 0000.0001) >   repeatCycle(5) = 12,
(PID.TID 0000.0001) >#--- to check conservation of Volume, Heat & Salt (with z*+realFW+AB_2):
(PID.TID 0000.0001) >   fields(1,6) = 'ETAN    ','oceFWflx',
(PID.TID 0000.0001) >   filename(6) = 'surfInst',
(PID.TID 0000.0001) >  frequency(6) = -777600.,
(PID.TID 0000.0001) >  timePhase(6) = 0.,
(PID.TID 0000.0001) >   fields(1,7) = 'ETAN    ',
(PID.TID 0000.0001) >   filename(7) = 'etaInst',
(PID.TID 0000.0001) >  frequency(7) = -777600.,
(PID.TID 0000.0001) >  timePhase(7) = 86400.,
(PID.TID 0000.0001) >   fields(1,8) = 'THETA   ','SALT    ',
(PID.TID 0000.0001) >   filename(8) = 'dynInst',
(PID.TID 0000.0001) >  frequency(8) = -777600.,
(PID.TID 0000.0001) >  timePhase(8) = 0.,
(PID.TID 0000.0001) > &
(PID.TID 0000.0001) >
(PID.TID 0000.0001) ># Parameter for Diagnostics of per level statistics:
(PID.TID 0000.0001) >#-----------------
(PID.TID 0000.0001) ># for each output-stream:
(PID.TID 0000.0001) >#  stat_fname(n) : prefix of the output file name (only 8.c long) for outp.stream n
(PID.TID 0000.0001) >#  stat_freq(n):< 0 : write snap-shot output every |stat_freq| seconds
(PID.TID 0000.0001) >#               > 0 : write time-average output every stat_freq seconds
(PID.TID 0000.0001) >#  stat_phase(n)    : write at time = stat_phase + multiple of |stat_freq|
(PID.TID 0000.0001) >#  stat_region(:,n) : list of "regions" (default: 1 region only=global)
(PID.TID 0000.0001) >#  stat_fields(:,n) : list of diagnostics fields (8.c) (see "available_diagnostics.log"
(PID.TID 0000.0001) >#                 file for the list of all available diag. in this particular config)
(PID.TID 0000.0001) >#-----------------
(PID.TID 0000.0001) > &DIAG_STATIS_PARMS
(PID.TID 0000.0001) >#- regional mask: 3 lat. band: 1 : y <= -24 ; 2 : -24<y<24 ; 3 : 24 <= y
(PID.TID 0000.0001) > diagSt_regMaskFile='regMask_lat24.bin',
(PID.TID 0000.0001) > nSetRegMskFile=1,
(PID.TID 0000.0001) > set_regMask(1)= 1,  1,  1,
(PID.TID 0000.0001) > val_regMask(1)= 1., 2., 3.,
(PID.TID 0000.0001) >#---
(PID.TID 0000.0001) > stat_fields(1,1)= 'ETAN    ','ETANSQ  ','DETADT2 ',
(PID.TID 0000.0001) >#                  'UVEL    ','VVEL    ','WVEL    ',
(PID.TID 0000.0001) >                   'THETA   ','SALT    ','CONVADJ ',
(PID.TID 0000.0001) >    stat_fname(1)= 'dynStDiag',
(PID.TID 0000.0001) >     stat_freq(1)= 864000.,
(PID.TID 0000.0001) >#--- to check conservation of Volume, Heat & Salt (with z*+realFW+AB_2):
(PID.TID 0000.0001) > stat_fields(1,2)= 'oceTAUX ','oceTAUY ','TRELAX  ','SRELAX  ',
(PID.TID 0000.0001) >                   'surForcT','surForcS','TFLUX   ','SFLUX   ',
(PID.TID 0000.0001) >                   'oceQnet ','oceSflux','oceFWflx',
(PID.TID 0000.0001) >    stat_fname(2)= 'surfStDiag',
(PID.TID 0000.0001) >     stat_freq(2)= 777600.,
(PID.TID 0000.0001) >    stat_phase(2)= 86400.,
(PID.TID 0000.0001) > stat_fields(1,3)= 'ETAN    ','THETA   ','SALT    ',
(PID.TID 0000.0001) >    stat_fname(3)= 'instStDiag',
(PID.TID 0000.0001) >     stat_freq(3)= -777600.,
(PID.TID 0000.0001) >    stat_phase(3)= 86400.,
(PID.TID 0000.0001) >#---
(PID.TID 0000.0001) > stat_fields(1,5)= 'SI_Fract','SI_Thick','SI_SnowH',
(PID.TID 0000.0001) >                   'SI_Tsrf ','SI_Tice1','SI_Tice2',
(PID.TID 0000.0001) >                   'SI_Qice1','SI_Qice2',
(PID.TID 0000.0001) >                   'SIsnwPrc','SIalbedo','SIsnwAge',
(PID.TID 0000.0001) >                   'SIflx2oc','SIfrw2oc','SIsaltFx',
(PID.TID 0000.0001) >                   'SIflxAtm','SIfrwAtm',
(PID.TID 0000.0001) >#                  'SItOcMxL','SIsOcMxL',
(PID.TID 0000.0001) > stat_region(1,5)= 1, 3, 0,
(PID.TID 0000.0001) >    stat_fname(5)= 'thSIceStDiag',
(PID.TID 0000.0001) >     stat_freq(5)= 864000.,
(PID.TID 0000.0001) > &
(PID.TID 0000.0001) >
(PID.TID 0000.0001) 
(PID.TID 0000.0001) S/R DIAGNOSTICS_READPARMS, read namelist "diagnostics_list": start
(PID.TID 0000.0001) S/R DIAGNOSTICS_READPARMS, read namelist "diagnostics_list": OK
(PID.TID 0000.0001) S/R DIAGNOSTICS_READPARMS, read namelist "DIAG_STATIS_PARMS": start
(PID.TID 0000.0001) S/R DIAGNOSTICS_READPARMS, read namelist "DIAG_STATIS_PARMS": OK
(PID.TID 0000.0001) -----------------------------------------------------
(PID.TID 0000.0001)  DIAGNOSTICS_READPARMS: active diagnostics summary:
(PID.TID 0000.0001) -----------------------------------------------------
(PID.TID 0000.0001) Creating Output Stream: surfDiag
(PID.TID 0000.0001) Output Frequency:1555200000.000000 ; Phase:          0.000000
(PID.TID 0000.0001)  Averaging Freq.:1555200000.000000 , Phase:          0.000000 , Cycle:  1
(PID.TID 0000.0001)  Levels:       1.
(PID.TID 0000.0001) Fields:    ETAN     ETANSQ   DETADT2  PHIBOT   PHIBOTSQ oceTAUX  oceTAUY  TFLUX    SFLUX    oceFreez
(PID.TID 0000.0001) Fields:    TRELAX   SRELAX
(PID.TID 0000.0001) Creating Output Stream: dynDiag
(PID.TID 0000.0001) Output Frequency:1555200000.000000 ; Phase:          0.000000
(PID.TID 0000.0001)  Averaging Freq.:1555200000.000000 , Phase:          0.000000 , Cycle:  1
(PID.TID 0000.0001)  Levels:    will be set later
(PID.TID 0000.0001) Fields:    UVEL     VVEL     WVEL     PHIHYD   VVELMASS UVELMASS WVELSQ   THETA    UTHMASS  VTHMASS
(PID.TID 0000.0001) Fields:    WTHMASS  SALT     USLTMASS VSLTMASS WSLTMASS
(PID.TID 0000.0001) Creating Output Stream: thSIceDiag
(PID.TID 0000.0001) Output Frequency:1555200000.000000 ; Phase:          0.000000
(PID.TID 0000.0001)  Averaging Freq.:   2592000.000000 , Phase:          0.000000 , Cycle: 12
(PID.TID 0000.0001)  Levels:    will be set later
(PID.TID 0000.0001) Fields:    SI_Fract SI_Thick SI_SnowH SI_Tsrf  SI_Tice1 SI_Tice2 SI_Qice1 SI_Qice2 SIsnwAge SIsnwPrc
(PID.TID 0000.0001) Fields:    SIalbedo SIflx2oc SIfrw2oc SIsaltFx SIflxAtm SIfrwAtm
(PID.TID 0000.0001) Creating Output Stream: surfInst
(PID.TID 0000.0001) Output Frequency:   -777600.000000 ; Phase:          0.000000
(PID.TID 0000.0001)  Averaging Freq.:         0.000000 , Phase:          0.000000 , Cycle:  1
(PID.TID 0000.0001)  Levels:    will be set later
(PID.TID 0000.0001) Fields:    ETAN     oceFWflx
(PID.TID 0000.0001) Creating Output Stream: etaInst
(PID.TID 0000.0001) Output Frequency:   -777600.000000 ; Phase:      86400.000000
(PID.TID 0000.0001)  Averaging Freq.:         0.000000 , Phase:          0.000000 , Cycle:  1
(PID.TID 0000.0001)  Levels:    will be set later
(PID.TID 0000.0001) Fields:    ETAN
(PID.TID 0000.0001) Creating Output Stream: dynInst
(PID.TID 0000.0001) Output Frequency:   -777600.000000 ; Phase:          0.000000
(PID.TID 0000.0001)  Averaging Freq.:         0.000000 , Phase:          0.000000 , Cycle:  1
(PID.TID 0000.0001)  Levels:    will be set later
(PID.TID 0000.0001) Fields:    THETA    SALT
(PID.TID 0000.0001) -----------------------------------------------------
(PID.TID 0000.0001)  DIAGNOSTICS_READPARMS: statistics diags. summary:
(PID.TID 0000.0001) Creating Stats. Output Stream: dynStDiag
(PID.TID 0000.0001) Output Frequency:    864000.000000 ; Phase:          0.000000
(PID.TID 0000.0001)  Regions :    0
(PID.TID 0000.0001)  Fields:    ETAN     ETANSQ   DETADT2  THETA    SALT     CONVADJ
(PID.TID 0000.0001) Creating Stats. Output Stream: surfStDiag
(PID.TID 0000.0001) Output Frequency:    777600.000000 ; Phase:      86400.000000
(PID.TID 0000.0001)  Regions :    0
(PID.TID 0000.0001)  Fields:    oceTAUX  oceTAUY  TRELAX   SRELAX   surForcT surForcS TFLUX    SFLUX    oceQnet  oceSflux oceFWflx
(PID.TID 0000.0001) Creating Stats. Output Stream: instStDiag
(PID.TID 0000.0001) Output Frequency:   -777600.000000 ; Phase:      86400.000000
(PID.TID 0000.0001)  Regions :    0
(PID.TID 0000.0001)  Fields:    ETAN     THETA    SALT
(PID.TID 0000.0001) Creating Stats. Output Stream: thSIceStDiag
(PID.TID 0000.0001) Output Frequency:    864000.000000 ; Phase:          0.000000
(PID.TID 0000.0001)  Regions :    0  1  3
(PID.TID 0000.0001)  Fields:    SI_Fract SI_Thick SI_SnowH SI_Tsrf  SI_Tice1 SI_Tice2 SI_Qice1 SI_Qice2 SIsnwPrc SIalbedo SIsnwAge SIflx2oc SIfrw2oc SIsaltFx SIflxAtm SIfrwAtm
(PID.TID 0000.0001) -----------------------------------------------------
(PID.TID 0000.0001) 
(PID.TID 0000.0001) SET_PARMS: done
(PID.TID 0000.0001) Enter INI_VERTICAL_GRID: setInterFDr=    T ; setCenterDr=    F
(PID.TID 0000.0001) tile:   1 ; Read from file grid_cs32.face001.bin
(PID.TID 0000.0001)   => xC yC dxF dyF rA xG yG dxV dyU rAz dxC dyC rAw rAs dxG dyG AngleCS AngleSN
(PID.TID 0000.0001) tile:   2 ; Read from file grid_cs32.face002.bin
(PID.TID 0000.0001)   => xC yC dxF dyF rA xG yG dxV dyU rAz dxC dyC rAw rAs dxG dyG AngleCS AngleSN
(PID.TID 0000.0001) tile:   3 ; Read from file grid_cs32.face003.bin
(PID.TID 0000.0001)   => xC yC dxF dyF rA xG yG dxV dyU rAz dxC dyC rAw rAs dxG dyG AngleCS AngleSN
(PID.TID 0000.0001) tile:   4 ; Read from file grid_cs32.face004.bin
(PID.TID 0000.0001)   => xC yC dxF dyF rA xG yG dxV dyU rAz dxC dyC rAw rAs dxG dyG AngleCS AngleSN
(PID.TID 0000.0001) tile:   5 ; Read from file grid_cs32.face005.bin
(PID.TID 0000.0001)   => xC yC dxF dyF rA xG yG dxV dyU rAz dxC dyC rAw rAs dxG dyG AngleCS AngleSN
(PID.TID 0000.0001) tile:   6 ; Read from file grid_cs32.face006.bin
(PID.TID 0000.0001)   => xC yC dxF dyF rA xG yG dxV dyU rAz dxC dyC rAw rAs dxG dyG AngleCS AngleSN
(PID.TID 0000.0001) %MON XC_max                       =   1.7854351589505E+02
(PID.TID 0000.0001) %MON XC_min                       =  -1.7854351589505E+02
(PID.TID 0000.0001) %MON XC_mean                      =  -4.6999441375798E-15
(PID.TID 0000.0001) %MON XC_sd                        =   1.0355545336287E+02
(PID.TID 0000.0001) %MON XG_max                       =   1.8000000000000E+02
(PID.TID 0000.0001) %MON XG_min                       =  -1.7708797161002E+02
(PID.TID 0000.0001) %MON XG_mean                      =   1.8796250616675E+00
(PID.TID 0000.0001) %MON XG_sd                        =   1.0410625309932E+02
(PID.TID 0000.0001) %MON DXC_max                      =   3.2375185836900E+05
(PID.TID 0000.0001) %MON DXC_min                      =   1.1142031410131E+05
(PID.TID 0000.0001) %MON DXC_mean                     =   2.8605689051214E+05
(PID.TID 0000.0001) %MON DXC_sd                       =   3.4042087138252E+04
(PID.TID 0000.0001) %MON DXF_max                      =   3.2369947500827E+05
(PID.TID 0000.0001) %MON DXF_min                      =   1.2020820513318E+05
(PID.TID 0000.0001) %MON DXF_mean                     =   2.8605437324820E+05
(PID.TID 0000.0001) %MON DXF_sd                       =   3.4050524252539E+04
(PID.TID 0000.0001) %MON DXG_max                      =   3.2375195872773E+05
(PID.TID 0000.0001) %MON DXG_min                      =   1.0098378008791E+05
(PID.TID 0000.0001) %MON DXG_mean                     =   2.8603818508931E+05
(PID.TID 0000.0001) %MON DXG_sd                       =   3.4140406908005E+04
(PID.TID 0000.0001) %MON DXV_max                      =   3.2380418162750E+05
(PID.TID 0000.0001) %MON DXV_min                      =   8.0152299824136E+04
(PID.TID 0000.0001) %MON DXV_mean                     =   2.8603970633619E+05
(PID.TID 0000.0001) %MON DXV_sd                       =   3.4145142117723E+04
(PID.TID 0000.0001) %MON YC_max                       =   8.7940663871962E+01
(PID.TID 0000.0001) %MON YC_min                       =  -8.7940663871962E+01
(PID.TID 0000.0001) %MON YC_mean                      =   0.0000000000000E+00
(PID.TID 0000.0001) %MON YC_sd                        =   3.8676242969072E+01
(PID.TID 0000.0001) %MON YG_max                       =   9.0000000000000E+01
(PID.TID 0000.0001) %MON YG_min                       =  -9.0000000000000E+01
(PID.TID 0000.0001) %MON YG_mean                      =  -1.2094344438470E-15
(PID.TID 0000.0001) %MON YG_sd                        =   3.9086186579984E+01
(PID.TID 0000.0001) %MON DYC_max                      =   3.2375185836900E+05
(PID.TID 0000.0001) %MON DYC_min                      =   1.1142031410131E+05
(PID.TID 0000.0001) %MON DYC_mean                     =   2.8605689051214E+05
(PID.TID 0000.0001) %MON DYC_sd                       =   3.4042087138252E+04
(PID.TID 0000.0001) %MON DYF_max                      =   3.2369947500827E+05
(PID.TID 0000.0001) %MON DYF_min                      =   1.2020820513318E+05
(PID.TID 0000.0001) %MON DYF_mean                     =   2.8605437324820E+05
(PID.TID 0000.0001) %MON DYF_sd                       =   3.4050524252539E+04
(PID.TID 0000.0001) %MON DYG_max                      =   3.2375195872773E+05
(PID.TID 0000.0001) %MON DYG_min                      =   1.0098378008791E+05
(PID.TID 0000.0001) %MON DYG_mean                     =   2.8603818508931E+05
(PID.TID 0000.0001) %MON DYG_sd                       =   3.4140406908005E+04
(PID.TID 0000.0001) %MON DYU_max                      =   3.2380418162750E+05
(PID.TID 0000.0001) %MON DYU_min                      =   8.0152299824136E+04
(PID.TID 0000.0001) %MON DYU_mean                     =   2.8603970633619E+05
(PID.TID 0000.0001) %MON DYU_sd                       =   3.4145142117723E+04
(PID.TID 0000.0001) %MON RA_max                       =   1.0479260248419E+11
(PID.TID 0000.0001) %MON RA_min                       =   1.4019007022556E+10
(PID.TID 0000.0001) %MON RA_mean                      =   8.2992246709265E+10
(PID.TID 0000.0001) %MON RA_sd                        =   1.7509089299457E+10
(PID.TID 0000.0001) %MON RAW_max                      =   1.0480965274559E+11
(PID.TID 0000.0001) %MON RAW_min                      =   1.2166903467143E+10
(PID.TID 0000.0001) %MON RAW_mean                     =   8.2992246709235E+10
(PID.TID 0000.0001) %MON RAW_sd                       =   1.7481917919656E+10
(PID.TID 0000.0001) %MON RAS_max                      =   1.0480965274559E+11
(PID.TID 0000.0001) %MON RAS_min                      =   1.2166903467143E+10
(PID.TID 0000.0001) %MON RAS_mean                     =   8.2992246709235E+10
(PID.TID 0000.0001) %MON RAS_sd                       =   1.7481917919656E+10
(PID.TID 0000.0001) %MON RAZ_max                      =   1.0484349334619E+11
(PID.TID 0000.0001) %MON RAZ_min                      =   8.8317900612505E+09
(PID.TID 0000.0001) %MON RAZ_mean                     =   8.2992246709235E+10
(PID.TID 0000.0001) %MON RAZ_sd                       =   1.7482297311044E+10
(PID.TID 0000.0001) %MON AngleCS_max                  =   9.9999994756719E-01
(PID.TID 0000.0001) %MON AngleCS_min                  =  -9.9968286884824E-01
(PID.TID 0000.0001) %MON AngleCS_mean                 =   3.3078850405987E-01
(PID.TID 0000.0001) %MON AngleCS_sd                   =   6.2496317138039E-01
(PID.TID 0000.0001) %MON AngleSN_max                  =   9.9968286884824E-01
(PID.TID 0000.0001) %MON AngleSN_min                  =  -9.9999994756719E-01
(PID.TID 0000.0001) %MON AngleSN_mean                 =  -3.3078850405987E-01
(PID.TID 0000.0001) %MON AngleSN_sd                   =   6.2496317138039E-01
(PID.TID 0000.0001)  MDS_READ_FIELD: opening global file: bathy_Hmin50.bin
(PID.TID 0000.0001) // =======================================================
(PID.TID 0000.0001) // Field Model R_low (ini_masks_etc) at iteration          1
(PID.TID 0000.0001) // CMIN =         -5.200000000000000E+03
(PID.TID 0000.0001) // CMAX =         -5.000000000000000E+01
(PID.TID 0000.0001) // CINT =          1.907407407407407E+02
(PID.TID 0000.0001) // SYMBOLS (CMIN->CMAX): -abcdefghijklmnopqrstuvwxyz+
(PID.TID 0000.0001) //                  0.0: .
(PID.TID 0000.0001) // RANGE I (Lo:Hi:Step):(  -3: 196:   1)
(PID.TID 0000.0001) // RANGE J (Lo:Hi:Step):(  36:  -3:  -1)
(PID.TID 0000.0001) // RANGE K (Lo:Hi:Step):(   1:   1:   1)
(PID.TID 0000.0001) // =======================================================
(PID.TID 0000.0001) K =   1
(PID.TID 0000.0001) //                I=6       I=16      I=26      I=36      I=38      I=48      I=58      I=68      I=70      I=80      I=90      I=100     I=102     I=112     I=122     I=132     I=134     I=144     I=154     I=164     I=166     I=176     I=186     I=196
(PID.TID 0000.0001) // |--J--|321012345|789012345|789012345|789012345|901234567|901234567|901234567|901234567|123456789|123456789|123456789|123456789|345678901|345678901|345678901|345678901|567890123|567890123|567890123|567890123|789012345|789012345|789012345|789012345|
(PID.TID 0000.0001) //     36 cbbc-ddcbcdehkhhmn..++..................................................okn.skko--a-fc----bba-cp.............tfeecccbbdeecccbbdeddedcdcccdddcddffggghiggfffdeeffijlihjlica---a--cgffel.+edfgeedflcbahgfllcbahgfllfhdffhkfffca-aady...llnabdoa--a
(PID.TID 0000.0001) //     35 dcac--cbbeefjkfefw+..........zpu........................................kqnzrqqk--b-da----bbbbfu..............fdddccaadcddccaadcdddcbbbbcdddcccdffffghgffffddefflligfiljfba---aafddehy...pwvlhfffcbagfccfcbagfcceeffffjlkjgaa---bfvheeln-aesaaab
(PID.TID 0000.0001) //     34 d--ba-abcehjnldcclz+........spps.......................................vkqn+xnnncabbcbba--aabfu+..............hcbaaaaaccbaaaaaccdccbaaabbddddccdffffghfeeeeedeffjiffefilhfcaaaacgceei.......zomggfcaecbbgfcaecbbccddefilihecbaacbaajfega-aesfeed
(PID.TID 0000.0001) //     33 --abbbccceiomkfdbbc+.......+s..........................................xsrxzz+z.fdcddb-----adu+...............hcbaa--accbaa--accddba--bbbddddccdfffhhgfeeddcceddhfeddfgikhfffdfgccffw........zohhgebbaaahgebbaaaaaccdfhlhfefdcccaabjefbaaafoosso
(PID.TID 0000.0001) //     32 --bddefhhkqqlgfaakqz..v.+..+.........................................++..u+....zigfdba----adu+................kdcaaa-acccaaa-accdcb---bbbcdddddefffggfeeedcccccbccbbdcdfgghhiihcbeiw.........+ynjgebaaaajgebaaaa-aacccfikkhecccbbbaaabaadfklnqpp
(PID.TID 0000.0001) //     31 abbcffijnpnqneaaat..umrr+s.z.........................................+++++.ztsvdlifeb--dfdfu+................+lkdca--abcdca--abcccb---bbbbddddeffflhfeeeecbbbbaaba-abbacbcdceffbbfw+..........++ujfbaaa-ujfbaaa----aacffiljgfffcca--adfikkiihhhf
(PID.TID 0000.0001) //     30 --adgillkkkifcadcx.ymmqzqikvnnps.....................................+++++wmegt-jlifcacdlqx+++...............mligea---abgea---abbbb---abaaddddeedkmeddefdbbbaaaabc---b--aaaaabaabm..............+viba---+viba-------acdefinmlgiieb-chnnnmlmlgffc
(PID.TID 0000.0001) //     29 --cfiljigfjd--efdozy...+ximpnnuz......................................+++yqddhp-iljhcbbchz+......++.........+mmhffc----affc----aaba------acdddcbcineddgdbaaa----cdd--a------aa-bfz...............+qe---a.+qe---aa---aedeegknmlgiigcdfhpokkimlfdb
(PID.TID 0000.0001) //     28 -abgkhfcccea-bdei........t............................................++zwgfcfk-gknhccbbhwwy.....+++........+njfeed-----eed-----aa-------abddcabcnfddegcaaa-----hlf------------dk+................+ja---..+ja------bffdddehfd--bedaacfhpnligiihd
(PID.TID 0000.0001) //     27 -acghfbaaaa-achmy......................+.......+++....................++vnbbbclefkpkeeecflmqxy....++........+lhfeecc----eecc------------aaadcbabcfhddccba-------zqd-----------irw.................++e---..++e-----mhmijddda--------ahhfiokhedegg
(PID.TID 0000.0001) //     26 -adhfca-----bfiv.......................+.......++sy...................+tq-fdbblcjknqiheddefhiksz++++........zkhfdccb----dccb------------aabdcaaaacfddbca-------a+xfa-abb-----vvv...................+wa--...+wa---mlmkijhc----------cjjffiheb-aad
(PID.TID 0000.0001) //     25 -achfa------ch+..................w.......w.......njo+................+x-----bcgidiqqojfefiiiijmy.++.........zkhfdbaa----dbaa-------daa---acccaaaacccca--------ac.+udaabbb----tei...................++qde...++qdeqnghiljcaaaaidaa----beedeeca--bb
(PID.TID 0000.0001) //     24 aaeifa--acbcei...................w.......w.......likn+.....++.....++znpa----bbdi-fnlmnjhinlksssw............qhfeca------ca--------addc--aeffaaaaaaccb-a----a--bd.++udbbaba---ven....................++xy....++xywnfgllcbbabegkecba----ddddcaacdc
(PID.TID 0000.0001) //     23 abfida-aabchjk...................zz......zz.....nhhijz....tqq.....+ujgzgd---abci-cegklkkknols..xuu..........zgfdba------ba--------bcd---affaaadffabbb-----aa-bcc.+.+ufb-----l.gx...........s.........++z.....++zzkfilfccccoz..ulkcd---bccnfddddd
(PID.TID 0000.0001) //     22 -afhfaa---bfgi....................zz..rn..zz..rnjffggm...nlmn+....+sffzya--aabcieaaffdfhimrmp...yuu.++.......zudba------ba--------adc---dda-adffe-aa--------aaac....+ufc-baaqvhh..........dcfeeh......++......++zggqvifefhz......zobbaccfwuffeee
(PID.TID 0000.0001) //     21 babcgca----abe.....................ysstl...ysstlgeeeeoz..ijklt+....lfjzzf---adfcfdaadcehllotq....yy+++zzs.....+zcba-----cba-------cdd--aaa----df------------aaac.....+upjdcy.vohq.......+idcdfeeefwz....efwz....+hhn.vklox.........gdccfjwrigffh
(PID.TID 0000.0001) //     20 fbbbcgfcaa-aae+.......................lc......lcgfdddhq.+hiilnz++.+oquxyz--adgkfdcaabcfmtooyxz......+yuiiy....++gb------gb--------ddcca-a-----acbaa------bbaaaab........ywxy.lulo.lv...kcdgddffefffilyx+fffilyx+fffk.+xyyy.........mgeimvskjklll
(PID.TID 0000.0001) //     19 zmfeccdghfeegcbt......................aa......aafifccgnrzgghjry.+++sr+lq.--edfkkoxtkblwnnsp.vv......skhggt...+++t-------t---------bdaf---------edd-------adlaaaa+..........vnhzy.tllqiedccdhggfggffiiggfgffiiggfcbdgy..yz..........xigqophijkkii
(PID.TID 0000.0001) //     18 ..wifedfkhfegbbcivlqfoz..............jaa.....jaacfihggokeeffgt..++++..hhlfdeddkez..qcz+.zwxtsttz..ysrkhot++++++zig------ig--------b--f---------egqqqaa----frb---+........+kkrhw.vqmlnieddcdehgggffgigedbffgigedbaaceiy.............zilrddefikkhh
(PID.TID 0000.0001) //     17 ..+wfeefikhgcbbccaaacgn.............icaa....icaaccfihfoedddeedy..++...nnqwgfeekeyy.z++..+zsjjllllljllpjos+++.+zhhi-----ehi-----e-----ea--------foqqoqqo--hlwgea-.........+nk+..xiioonhfefddegihhghigfdbaghigfdbaaabdgx..............nheddefiklhg
(PID.TID 0000.0001) //     16 ....wiheddeccdfhfbabdfl............jdbad...jdbaddddgifkccccdccd+.++..++ynvz.tkkq.mu....++zyslllllkhggkmpy++...ihhi-----ehi-----ea---feb-----a-acnoohfghknvmwnuca..........qhu..hhhkojgffgeefghihhiieedbahiieedbaaabcdy..............ygddeghiljgf
(PID.TID 0000.0001) //     15 ......ylea--acfihebcbbes..........sfcbbn..sfcbbngfffigcaaabdbcac+.+++++zgmpx...y.mm....++..zslwz.yhhhhnz+++...rhgc----abgc----ab----ige----acaaalllkddfiy..yswxb..........thk.xgghiligfghfefhhhhiiheedcdiiheedcdbbabdmz.............zfdeghikkifd
(PID.TID 0000.0001) //     14 ........c---acgkhdcc--di..........ofddch..ofddchohffikaaaaabaaa-aw+.+ysnggox++...qrv..........yzzzzrjil+++....qhgd-----agd-----a-----i---cccdeabkklldinqssy..xxv...........+y.uhghikihgfghefgihhhgeeeeedhgeeeeeddbaadhw.............nedeghjjhfed
(PID.TID 0000.0001) //     13 .......+b----cfkhec---afz.........nhfdff..nhfdffholghkaaaaaba-a---flkkuswyy++++y+zr...........zzzzz++ry++......yd-------d--------------aeecdeidfkkqnqlmqquukqqmf..............iihiijjhfefgefhjihiffgggffiffgggffecaabelx...........zjecehijhfecc
(PID.TID 0000.0001) //     12 .......ec----chjhec---ag..........skiqdd..skiqddeiiiifaaabae--a---dd--iu+++.+++sxq++..........+z+++++.+++....++.s-------s------------a-ceccdejhlllkqlkklssiccdee.............wjkkkjjjigeefffgjiiighiiihhighiiihhhdaabdffghtxx......mfccehjiffdb-
(PID.TID 0000.0001) //     11 ......pdca--achlheba--ai..........nkn.fd..nkn.fdemijidaaaabi-------a--q+....++.ziis...........+++++..........+yyza----b-za----b-----a--ccccddkhieekkossssfbbbbcd............njjijhhihijhgggggjjjjijkkkkjjijkkkkjjhcaacddeegpy.....xfdccdhjgfdda-
(PID.TID 0000.0001) //     10 ......wfdb--achlhea---an.........uos..dc.uos..dcemikkfdcaabi-------equ+.........mk...........................zyvuq----ccuq----cc----a---dcfhkopqjeissrnpfbbcccde..........zslihhigghgijjihhhhkllkkkkkkjkkkkkkkjkkkedccdeeeeipz..zwhccbcdhgfddcam
(PID.TID 0000.0001) //      9 ......vgec---bfikca--cjl+.......+nnv.+cc+nnv.+ccffhkkiddaadha-----as++..........pvz++........................zxuuk------uk------a---a----djmqrrnlllsoiddcccccdjf.........+zjijhfgfggffhjkkkiillljihhghgijihhghgihighdeeffgghimnnjgecbbcdgfeccbas
(PID.TID 0000.0001) //      8 .....zleca---afjfca--hdfz.......vkky.jcevkky.jceddefijffdddhb--a-afv............nn..ss.........................+yku-----yku--------------ejnpqqnninnritqdccchkmf+.......wihgghgeffffeefhijkjkljiigeeffefigeeffefffhjhhikkklljklmhffeeeggfdcbaay.
(PID.TID 0000.0001) //      7 ...+zohec--abcfkhecbchbdx.......qiht.faaqiht.faaaabdgijgfededcdcb-f+............nn...pz.........................+zu-----+zu--------------edefqgqddsz+......+yuddmm+....tiggfggfeeeefeeefiiiijkiihhedddddhheddddddddjjllliijhfkmmkkjjhijgdcba--q.
(PID.TID 0000.0001) //      6 ..+yomfddcaabefkifdchaadt......uqdeisc--qdeisc----dfefgifffkklldc--v............up...pp.........................v.x-----v.x---------a----fbbpqgzenx+........zdbcmllkhhfffffffgfeeeeeeeefhhhhijihhffddcbbhffddcbbbbdhhiihedddb-cfhhhjjjieca----+.
(PID.TID 0000.0001) //      5 ..+nhgffkghccfhkhffgdaackz....uoibcimlaaibcimlaaacfbddfjjhijeehf-a-c............zs...su.........................qk.yi---qk.yi-------gha-fjddqs+xkrz.........q-bchikdccdeeeeeeedddedddddgghhhhjhhgffcbbaagffcbbaaaaddfegecca----dfeefhfgdb-----+.
(PID.TID 0000.0001) //      4 .+ujhgfllfhdffhkfffca-aady...llnabdopfcbabdopfcbdgdbcdehlihgfddc--ms............................................okn.zd--okn.zd---eciiiicfkeeqy.ysz..........n-aafgdcbbdeddedcdcccdddcddffggghiggfffdbaa-fffdbaa---acdcccba--abvfedeffdcca----b+.
(PID.TID 0000.0001) //      3 +vjggfcceeffffjlkjgaa---bfvheeln-aesphfd-aesphfdhgabddeflihhgfecbaaayq+++++.....................................kqnz.vtpkqnz.vtpkllgdccfkkkkk..++..........+g---fecaaadcdddcbbbbcdddcccdffffghgffffdcaa-fffdcaa----abcaaaa-acxxmecdjmdbba----r+.
(PID.TID 0000.0001) //      2 qifeecbbccddefilihecbaacbaajfega-aesqhff-aesqhffiea-cdeflkkljifeddcba---bry+...................................vkqn+.sghkqn+.sghfcbcbbbdgfdek.++++.........+l---caaaaaccdccbaaabbddddccdffffghfeeeeecba-eeeecba------baaaa-euwxqdbcdkud-----sy+.
(PID.TID 0000.0001) //      1 ebbbbaaaaaccdfhlhfefdcccaabjefbaaafonhglaafonhglid--adfgkkkklkhffddca-----s++++................................xsrxz.tedsrxz.tedcbbbbaaadddet.++++.........+l------a-accddba--bbbddddccdfffhhgfeeddccba-eddccba-------aaaabgns.qcbcchyzqngll++..
(PID.TID 0000.0001) //      0 -aaaaaaa-aacccfikkhecccbbbaaabaadfkllilmdfkllilmgebaadfijjiiikjhffdcba-----lllgn.............................++..u+..zmd.u+..zmdfbd---a-aeef.xx+..........+++s-------accdcb---bbbcdddddefffggfeeedcccbbaedcccbba----aa--alrwwy.kcbccc+...++++...
(PID.TID 0000.0001) //     -1 --aaaaa----aacffiljgfffcca--adfikkiikimikkiikimiiheccfurkiffhijjigfecb-----l----.............................+++++.z+.wq++.z+.wqgbf-------dgzpoy+........+ys+yrb--aa-abcccb---bbbbddddeffflhfeeeecbbcbbaecbbcbbaa----a--bdflm.yuibbcc.......+...
(PID.TID 0000.0001) //     -2 --aaa-------acdefinmlgiieb-chnnnmlmlfklkmlmlfklklkhednwwsheeghhijjgfdca----g---a.............................+++++wmu++y++wmu++ywn--------fwvmgy+........+r-.+++-abc--abbbb---abaaddddeedkmeddefdbbbdcbadbbbdcbaa-------ba-hv.susfbcc.......+...
(PID.TID 0000.0001) //     -3 a--a---aa---aedeegknmlgiigcdfhpokkimdkmkkkimdkmknoiedcfjvpddegghhhhgfdcbaa-n---a..............................+++yqd.++++yqd.+++zvq--dafz.lqnggw+........+b-....abcc---aaba------acdddcbcineddgdbaaaeedbbaaaeedbaa----------nysqssfcd...........
(PID.TID 0000.0001) // =======================================================
(PID.TID 0000.0001) // END OF FIELD                                          =
(PID.TID 0000.0001) // =======================================================
(PID.TID 0000.0001) 
(PID.TID 0000.0001) // =======================================================
(PID.TID 0000.0001) // Field Model Ro_surf (ini_masks_etc) at iteration          1
(PID.TID 0000.0001) // CMIN =         -7.105427357601002E-15
(PID.TID 0000.0001) // CMAX =         -7.105427357601002E-15
(PID.TID 0000.0001) // CINT =          0.000000000000000E+00
(PID.TID 0000.0001) // SYMBOLS (CMIN->CMAX): -abcdefghijklmnopqrstuvwxyz+
(PID.TID 0000.0001) //                  0.0: .
(PID.TID 0000.0001) // RANGE I (Lo:Hi:Step):(  -3: 196:   1)
(PID.TID 0000.0001) // RANGE J (Lo:Hi:Step):(  36:  -3:  -1)
(PID.TID 0000.0001) // RANGE K (Lo:Hi:Step):(   1:   1:   1)
(PID.TID 0000.0001) // =======================================================
(PID.TID 0000.0001) // =======================================================
(PID.TID 0000.0001) // END OF FIELD                                          =
(PID.TID 0000.0001) // =======================================================
(PID.TID 0000.0001) 
(PID.TID 0000.0001) // =======================================================
(PID.TID 0000.0001) // Field hFacC at iteration          1
(PID.TID 0000.0001) // CMIN =          1.000000000000000E+00
(PID.TID 0000.0001) // CMAX =          1.000000000000000E+00
(PID.TID 0000.0001) // CINT =          0.000000000000000E+00
(PID.TID 0000.0001) // SYMBOLS (CMIN->CMAX): -abcdefghijklmnopqrstuvwxyz+
(PID.TID 0000.0001) //                  0.0: .
(PID.TID 0000.0001) // RANGE I (Lo:Hi:Step):(  -3: 196:   1)
(PID.TID 0000.0001) // RANGE J (Lo:Hi:Step):(  36:  -3:  -1)
(PID.TID 0000.0001) // RANGE K (Lo:Hi:Step):(   1:   1:   1)
(PID.TID 0000.0001) // =======================================================
(PID.TID 0000.0001) // =======================================================
(PID.TID 0000.0001) // END OF FIELD                                          =
(PID.TID 0000.0001) // =======================================================
(PID.TID 0000.0001) 
(PID.TID 0000.0001) // =======================================================
(PID.TID 0000.0001) // Field hFacW at iteration          1
(PID.TID 0000.0001) // CMIN =          1.000000000000000E+00
(PID.TID 0000.0001) // CMAX =          1.000000000000000E+00
(PID.TID 0000.0001) // CINT =          0.000000000000000E+00
(PID.TID 0000.0001) // SYMBOLS (CMIN->CMAX): -abcdefghijklmnopqrstuvwxyz+
(PID.TID 0000.0001) //                  0.0: .
(PID.TID 0000.0001) // RANGE I (Lo:Hi:Step):(  -3: 196:   1)
(PID.TID 0000.0001) // RANGE J (Lo:Hi:Step):(  36:  -3:  -1)
(PID.TID 0000.0001) // RANGE K (Lo:Hi:Step):(   1:   1:   1)
(PID.TID 0000.0001) // =======================================================
(PID.TID 0000.0001) // =======================================================
(PID.TID 0000.0001) // END OF FIELD                                          =
(PID.TID 0000.0001) // =======================================================
(PID.TID 0000.0001) 
(PID.TID 0000.0001) // =======================================================
(PID.TID 0000.0001) // Field hFacS at iteration          1
(PID.TID 0000.0001) // CMIN =          1.000000000000000E+00
(PID.TID 0000.0001) // CMAX =          1.000000000000000E+00
(PID.TID 0000.0001) // CINT =          0.000000000000000E+00
(PID.TID 0000.0001) // SYMBOLS (CMIN->CMAX): -abcdefghijklmnopqrstuvwxyz+
(PID.TID 0000.0001) //                  0.0: .
(PID.TID 0000.0001) // RANGE I (Lo:Hi:Step):(  -3: 196:   1)
(PID.TID 0000.0001) // RANGE J (Lo:Hi:Step):(  36:  -3:  -1)
(PID.TID 0000.0001) // RANGE K (Lo:Hi:Step):(   1:   1:   1)
(PID.TID 0000.0001) // =======================================================
(PID.TID 0000.0001) // =======================================================
(PID.TID 0000.0001) // END OF FIELD                                          =
(PID.TID 0000.0001) // =======================================================
(PID.TID 0000.0001) 
(PID.TID 0000.0001) 
(PID.TID 0000.0001) // ===================================
(PID.TID 0000.0001) // GAD parameters :
(PID.TID 0000.0001) // ===================================
(PID.TID 0000.0001) tempAdvScheme =   /* Temp. Horiz.Advection scheme selector */
(PID.TID 0000.0001)                       2
(PID.TID 0000.0001)     ;
(PID.TID 0000.0001) tempVertAdvScheme =   /* Temp. Vert. Advection scheme selector */
(PID.TID 0000.0001)                       2
(PID.TID 0000.0001)     ;
(PID.TID 0000.0001) tempMultiDimAdvec =   /* use Muti-Dim Advec method for Temp */
(PID.TID 0000.0001)                   F
(PID.TID 0000.0001)     ;
(PID.TID 0000.0001) tempSOM_Advection = /* use 2nd Order Moment Advection for Temp */
(PID.TID 0000.0001)                   F
(PID.TID 0000.0001)     ;
(PID.TID 0000.0001) AdamsBashforthGt = /* apply Adams-Bashforth extrapolation on Gt */
(PID.TID 0000.0001)                   T
(PID.TID 0000.0001)     ;
(PID.TID 0000.0001) AdamsBashforth_T = /* apply Adams-Bashforth extrapolation on Temp */
(PID.TID 0000.0001)                   F
(PID.TID 0000.0001)     ;
(PID.TID 0000.0001) saltAdvScheme =   /* Salt. Horiz.advection scheme selector */
(PID.TID 0000.0001)                       2
(PID.TID 0000.0001)     ;
(PID.TID 0000.0001) saltVertAdvScheme =   /* Salt. Vert. Advection scheme selector */
(PID.TID 0000.0001)                       2
(PID.TID 0000.0001)     ;
(PID.TID 0000.0001) saltMultiDimAdvec =   /* use Muti-Dim Advec method for Salt */
(PID.TID 0000.0001)                   F
(PID.TID 0000.0001)     ;
(PID.TID 0000.0001) saltSOM_Advection = /* use 2nd Order Moment Advection for Salt */
(PID.TID 0000.0001)                   F
(PID.TID 0000.0001)     ;
(PID.TID 0000.0001) AdamsBashforthGs = /* apply Adams-Bashforth extrapolation on Gs */
(PID.TID 0000.0001)                   T
(PID.TID 0000.0001)     ;
(PID.TID 0000.0001) AdamsBashforth_S = /* apply Adams-Bashforth extrapolation on Salt */
(PID.TID 0000.0001)                   F
(PID.TID 0000.0001)     ;
(PID.TID 0000.0001) // ===================================
(PID.TID 0000.0001) ------------------------------------------------------------
(PID.TID 0000.0001) DIAGNOSTICS_SET_LEVELS: done
(PID.TID 0000.0001)  Total Nb of available Diagnostics: ndiagt= 212
(PID.TID 0000.0001)  write list of available Diagnostics to file: available_diagnostics.log
(PID.TID 0000.0001) SETDIAG: Allocate  1 x  1 Levels for Diagnostic #  23 ETAN
(PID.TID 0000.0001) SETDIAG: Allocate  1 x  1 Levels for Diagnostic #  24 ETANSQ
(PID.TID 0000.0001) SETDIAG: Allocate  1 x  1 Levels for Diagnostic #  25 DETADT2
(PID.TID 0000.0001) SETDIAG: Allocate  1 x  1 Levels for Diagnostic #  67 PHIBOT
(PID.TID 0000.0001) SETDIAG: Allocate  1 x  1 Levels for Diagnostic #  68 PHIBOTSQ
(PID.TID 0000.0001) SETDIAG: Allocate  1 x  1 Levels for Diagnostic #  72 oceTAUX
(PID.TID 0000.0001) SETDIAG: Allocate  1 x  1 Levels for Diagnostic #  73 oceTAUY
(PID.TID 0000.0001) SETDIAG: Allocate  1 x  1 Levels for Diagnostic #  85 TFLUX
(PID.TID 0000.0001) SETDIAG: Allocate  1 x  1 Levels for Diagnostic #  86 SFLUX
(PID.TID 0000.0001) SETDIAG: Allocate  1 x  1 Levels for Diagnostic #  80 oceFreez
(PID.TID 0000.0001) SETDIAG: Allocate  1 x  1 Levels for Diagnostic #  81 TRELAX
(PID.TID 0000.0001) SETDIAG: Allocate  1 x  1 Levels for Diagnostic #  82 SRELAX
(PID.TID 0000.0001) SETDIAG: Allocate 15 x  1 Levels for Diagnostic #  30 UVEL
(PID.TID 0000.0001) SETDIAG: Allocate 15 x  1 Levels for Diagnostic #  31 VVEL
(PID.TID 0000.0001) SETDIAG: Allocate 15 x  1 Levels for Diagnostic #  32 WVEL
(PID.TID 0000.0001) SETDIAG: Allocate 15 x  1 Levels for Diagnostic #  65 PHIHYD
(PID.TID 0000.0001) SETDIAG: Allocate 15 x  1 Levels for Diagnostic #  44 VVELMASS
(PID.TID 0000.0001) SETDIAG: Allocate 15 x  1 Levels for Diagnostic #  43 UVELMASS
(PID.TID 0000.0001) SETDIAG: Allocate 15 x  1 Levels for Diagnostic #  38 WVELSQ
(PID.TID 0000.0001) SETDIAG: Allocate 15 x  1 Levels for Diagnostic #  26 THETA
(PID.TID 0000.0001) SETDIAG: Allocate 15 x  1 Levels for Diagnostic #  46 UTHMASS
(PID.TID 0000.0001) SETDIAG: Allocate 15 x  1 Levels for Diagnostic #  47 VTHMASS
(PID.TID 0000.0001) SETDIAG: Allocate 15 x  1 Levels for Diagnostic #  48 WTHMASS
(PID.TID 0000.0001) SETDIAG: Allocate 15 x  1 Levels for Diagnostic #  27 SALT
(PID.TID 0000.0001) SETDIAG: Allocate 15 x  1 Levels for Diagnostic #  49 USLTMASS
(PID.TID 0000.0001) SETDIAG: Allocate 15 x  1 Levels for Diagnostic #  50 VSLTMASS
(PID.TID 0000.0001) SETDIAG: Allocate 15 x  1 Levels for Diagnostic #  51 WSLTMASS
(PID.TID 0000.0001) SETDIAG: Allocate  1 x 12 Levels for Diagnostic # 184 SI_Fract
(PID.TID 0000.0001) SETDIAG: Allocate  1 x 12 Levels for Diagnostic # 185 SI_Thick
(PID.TID 0000.0001) - NOTE - SETDIAG: Counter Diagnostic # 184 SI_Fract has already been set
(PID.TID 0000.0001) SETDIAG: Allocate  1 x 12 Levels for Diagnostic # 186 SI_SnowH
(PID.TID 0000.0001) - NOTE - SETDIAG: Counter Diagnostic # 184 SI_Fract has already been set
(PID.TID 0000.0001) SETDIAG: Allocate  1 x 12 Levels for Diagnostic # 187 SI_Tsrf
(PID.TID 0000.0001) - NOTE - SETDIAG: Counter Diagnostic # 184 SI_Fract has already been set
(PID.TID 0000.0001) SETDIAG: Allocate  1 x 12 Levels for Diagnostic # 188 SI_Tice1
(PID.TID 0000.0001) - NOTE - SETDIAG: Counter Diagnostic # 184 SI_Fract has already been set
(PID.TID 0000.0001) SETDIAG: Allocate  1 x 12 Levels for Diagnostic # 189 SI_Tice2
(PID.TID 0000.0001) - NOTE - SETDIAG: Counter Diagnostic # 184 SI_Fract has already been set
(PID.TID 0000.0001) SETDIAG: Allocate  1 x 12 Levels for Diagnostic # 190 SI_Qice1
(PID.TID 0000.0001) - NOTE - SETDIAG: Counter Diagnostic # 185 SI_Thick has already been set
(PID.TID 0000.0001) SETDIAG: Allocate  1 x 12 Levels for Diagnostic # 191 SI_Qice2
(PID.TID 0000.0001) - NOTE - SETDIAG: Counter Diagnostic # 185 SI_Thick has already been set
(PID.TID 0000.0001) SETDIAG: Allocate  1 x 12 Levels for Diagnostic # 192 SIsnwAge
(PID.TID 0000.0001) SETDIAG: Allocate  1 x 12 Levels for Diagnostic # 195 SIsnwPrc
(PID.TID 0000.0001) SETDIAG: Allocate  1 x 12 Levels for Count.Diag # 193 SI_FrcFx
(PID.TID 0000.0001) SETDIAG: Allocate  1 x 12 Levels for Diagnostic # 194 SIalbedo
(PID.TID 0000.0001) - NOTE - SETDIAG: Counter Diagnostic # 193 SI_FrcFx has already been set
(PID.TID 0000.0001) SETDIAG: Allocate  1 x 12 Levels for Diagnostic # 198 SIflx2oc
(PID.TID 0000.0001) SETDIAG: Allocate  1 x 12 Levels for Diagnostic # 199 SIfrw2oc
(PID.TID 0000.0001) SETDIAG: Allocate  1 x 12 Levels for Diagnostic # 200 SIsaltFx
(PID.TID 0000.0001) SETDIAG: Allocate  1 x 12 Levels for Diagnostic # 196 SIflxAtm
(PID.TID 0000.0001) SETDIAG: Allocate  1 x 12 Levels for Diagnostic # 197 SIfrwAtm
(PID.TID 0000.0001) SETDIAG: Allocate  1 x  1 Levels for Diagnostic #  23 ETAN
(PID.TID 0000.0001) SETDIAG: Allocate  1 x  1 Levels for Diagnostic #  76 oceFWflx
(PID.TID 0000.0001) SETDIAG: Allocate  1 x  1 Levels for Diagnostic #  23 ETAN
(PID.TID 0000.0001) SETDIAG: Allocate 15 x  1 Levels for Diagnostic #  26 THETA
(PID.TID 0000.0001) SETDIAG: Allocate 15 x  1 Levels for Diagnostic #  27 SALT
(PID.TID 0000.0001)   space allocated for all diagnostics:   474 levels
(PID.TID 0000.0001)   set mate pointer for diag #  30  UVEL     , Parms: UU   031MR
(PID.TID 0000.0001)   set mate pointer for diag #  31  VVEL     , Parms: VV   030MR
(PID.TID 0000.0001)   set mate pointer for diag #  44  VVELMASS , Parms: VV   043MR
(PID.TID 0000.0001)   set mate pointer for diag #  43  UVELMASS , Parms: UU   044MR
(PID.TID 0000.0001)   set mate pointer for diag #  46  UTHMASS  , Parms: UU   047MR
(PID.TID 0000.0001)   set mate pointer for diag #  47  VTHMASS  , Parms: VV   046MR
(PID.TID 0000.0001)   set mate pointer for diag #  49  USLTMASS , Parms: UU   050MR
(PID.TID 0000.0001)   set mate pointer for diag #  50  VSLTMASS , Parms: VV   049MR
(PID.TID 0000.0001) DIAGNOSTICS_SET_POINTERS: Set levels for Outp.Stream: dynDiag
(PID.TID 0000.0001)  Levels:       1.   2.   3.   4.   5.   6.   7.   8.   9.  10.  11.  12.  13.  14.  15.
(PID.TID 0000.0001) DIAGNOSTICS_SET_POINTERS: Set levels for Outp.Stream: thSIceDiag
(PID.TID 0000.0001)  Levels:       1.
(PID.TID 0000.0001) DIAGNOSTICS_SET_POINTERS: Set levels for Outp.Stream: surfInst
(PID.TID 0000.0001)  Levels:       1.
(PID.TID 0000.0001) DIAGNOSTICS_SET_POINTERS: Set levels for Outp.Stream: etaInst
(PID.TID 0000.0001)  Levels:       1.
(PID.TID 0000.0001) DIAGNOSTICS_SET_POINTERS: Set levels for Outp.Stream: dynInst
(PID.TID 0000.0001)  Levels:       1.   2.   3.   4.   5.   6.   7.   8.   9.  10.  11.  12.  13.  14.  15.
(PID.TID 0000.0001) DIAGNOSTICS_SET_POINTERS: done
(PID.TID 0000.0001) ------------------------------------------------------------
 DIAGSTATS_SET_REGIONS: start reading region-mask file: regMask_lat24.bin
 DIAGSTATS_SET_REGIONS:  reading set k=  1
(PID.TID 0000.0001)  MDS_READ_FIELD: opening global file: regMask_lat24.bin
 DIAGSTATS_SET_REGIONS:          set k=  1 <= done
(PID.TID 0000.0001) DIAGSTATS_SET_REGIONS: define   3 regions:  1  2  3
(PID.TID 0000.0001) ------------------------------------------------------------
(PID.TID 0000.0001) SETDIAG: Allocate  1 Levels for Stats-Diag #  23 ETAN
(PID.TID 0000.0001) SETDIAG: Allocate  1 Levels for Stats-Diag #  24 ETANSQ
(PID.TID 0000.0001) SETDIAG: Allocate  1 Levels for Stats-Diag #  25 DETADT2
(PID.TID 0000.0001) SETDIAG: Allocate 15 Levels for Stats-Diag #  26 THETA
(PID.TID 0000.0001) SETDIAG: Allocate 15 Levels for Stats-Diag #  27 SALT
(PID.TID 0000.0001) SETDIAG: Allocate 15 Levels for Stats-Diag #  71 CONVADJ
(PID.TID 0000.0001) SETDIAG: Allocate  1 Levels for Stats-Diag #  72 oceTAUX
(PID.TID 0000.0001) SETDIAG: Allocate  1 Levels for Stats-Diag #  73 oceTAUY
(PID.TID 0000.0001) SETDIAG: Allocate  1 Levels for Stats-Diag #  81 TRELAX
(PID.TID 0000.0001) SETDIAG: Allocate  1 Levels for Stats-Diag #  82 SRELAX
(PID.TID 0000.0001) SETDIAG: Allocate  1 Levels for Stats-Diag #  83 surForcT
(PID.TID 0000.0001) SETDIAG: Allocate  1 Levels for Stats-Diag #  84 surForcS
(PID.TID 0000.0001) SETDIAG: Allocate  1 Levels for Stats-Diag #  85 TFLUX
(PID.TID 0000.0001) SETDIAG: Allocate  1 Levels for Stats-Diag #  86 SFLUX
(PID.TID 0000.0001) SETDIAG: Allocate  1 Levels for Stats-Diag #  78 oceQnet
(PID.TID 0000.0001) SETDIAG: Allocate  1 Levels for Stats-Diag #  77 oceSflux
(PID.TID 0000.0001) SETDIAG: Allocate  1 Levels for Stats-Diag #  76 oceFWflx
(PID.TID 0000.0001) SETDIAG: Allocate  1 Levels for Stats-Diag #  23 ETAN
(PID.TID 0000.0001) SETDIAG: Allocate 15 Levels for Stats-Diag #  26 THETA
(PID.TID 0000.0001) SETDIAG: Allocate 15 Levels for Stats-Diag #  27 SALT
(PID.TID 0000.0001) SETDIAG: Allocate  1 Levels for Stats-Diag # 184 SI_Fract
(PID.TID 0000.0001) SETDIAG: Allocate  1 Levels for Stats-Diag # 185 SI_Thick
(PID.TID 0000.0001) - NOTE - SETDIAG: Counter Diagnostic # 184 SI_Fract has already been set
(PID.TID 0000.0001) SETDIAG: Allocate  1 Levels for Stats-Diag # 186 SI_SnowH
(PID.TID 0000.0001) - NOTE - SETDIAG: Counter Diagnostic # 184 SI_Fract has already been set
(PID.TID 0000.0001) SETDIAG: Allocate  1 Levels for Stats-Diag # 187 SI_Tsrf
(PID.TID 0000.0001) - NOTE - SETDIAG: Counter Diagnostic # 184 SI_Fract has already been set
(PID.TID 0000.0001) SETDIAG: Allocate  1 Levels for Stats-Diag # 188 SI_Tice1
(PID.TID 0000.0001) - NOTE - SETDIAG: Counter Diagnostic # 184 SI_Fract has already been set
(PID.TID 0000.0001) SETDIAG: Allocate  1 Levels for Stats-Diag # 189 SI_Tice2
(PID.TID 0000.0001) - NOTE - SETDIAG: Counter Diagnostic # 184 SI_Fract has already been set
(PID.TID 0000.0001) SETDIAG: Allocate  1 Levels for Stats-Diag # 190 SI_Qice1
(PID.TID 0000.0001) - NOTE - SETDIAG: Counter Diagnostic # 185 SI_Thick has already been set
(PID.TID 0000.0001) SETDIAG: Allocate  1 Levels for Stats-Diag # 191 SI_Qice2
(PID.TID 0000.0001) - NOTE - SETDIAG: Counter Diagnostic # 185 SI_Thick has already been set
(PID.TID 0000.0001) SETDIAG: Allocate  1 Levels for Stats-Diag # 195 SIsnwPrc
(PID.TID 0000.0001) SETDIAG: Allocate  1 Levels for Count.Diag # 193 SI_FrcFx
(PID.TID 0000.0001) SETDIAG: Allocate  1 Levels for Stats-Diag # 194 SIalbedo
(PID.TID 0000.0001) - NOTE - SETDIAG: Counter Diagnostic # 193 SI_FrcFx has already been set
(PID.TID 0000.0001) SETDIAG: Allocate  1 Levels for Stats-Diag # 192 SIsnwAge
(PID.TID 0000.0001) SETDIAG: Allocate  1 Levels for Stats-Diag # 198 SIflx2oc
(PID.TID 0000.0001) SETDIAG: Allocate  1 Levels for Stats-Diag # 199 SIfrw2oc
(PID.TID 0000.0001) SETDIAG: Allocate  1 Levels for Stats-Diag # 200 SIsaltFx
(PID.TID 0000.0001) SETDIAG: Allocate  1 Levels for Stats-Diag # 196 SIflxAtm
(PID.TID 0000.0001) SETDIAG: Allocate  1 Levels for Stats-Diag # 197 SIfrwAtm
(PID.TID 0000.0001)   space allocated for all stats-diags:   107 levels
(PID.TID 0000.0001) DIAGSTATS_SET_POINTERS: done
(PID.TID 0000.0001) ------------------------------------------------------------
(PID.TID 0000.0001) DIAGSTATS_INI_IO: open file: dynStDiag.0000036000.txt , unit=     9
(PID.TID 0000.0001) DIAGSTATS_INI_IO: open file: surfStDiag.0000036000.txt , unit=    10
(PID.TID 0000.0001) DIAGSTATS_INI_IO: open file: instStDiag.0000036000.txt , unit=    11
(PID.TID 0000.0001) DIAGSTATS_INI_IO: open file: thSIceStDiag.0000036000.txt , unit=    12
(PID.TID 0000.0001) GAD_CHECK: #define ALLOW_GENERIC_ADVDIFF
(PID.TID 0000.0001) GMREDI_CHECK: #define GMREDI
(PID.TID 0000.0001) GM_AdvForm =  /* if FALSE => use SkewFlux Form */
(PID.TID 0000.0001)                   F
(PID.TID 0000.0001)     ;
(PID.TID 0000.0001) GM_AdvSeparate = /* Calc Bolus & Euler Adv. separately */
(PID.TID 0000.0001)                   F
(PID.TID 0000.0001)     ;
(PID.TID 0000.0001) GM_ExtraDiag =  /* Tensor Extra Diag (line 1&2) non 0 */
(PID.TID 0000.0001)                   F
(PID.TID 0000.0001)     ;
(PID.TID 0000.0001) GM_isopycK =   /* Background Isopyc. Diffusivity ( m^2/s ) */
(PID.TID 0000.0001)                 8.000000000000000E+02
(PID.TID 0000.0001)     ;
(PID.TID 0000.0001)  GM_skewflx*K =   /* Background GM_SkewFlx Diffusivity ( m^2/s ) */
(PID.TID 0000.0001)                 8.000000000000000E+02
(PID.TID 0000.0001)     ;
(PID.TID 0000.0001)  GM_advec*K =   /* Backg. GM-Advec(=Bolus) Diffusivity ( m^2/s ) */
(PID.TID 0000.0001)                 0.000000000000000E+00
(PID.TID 0000.0001)     ;
(PID.TID 0000.0001)  GM_Visbeck_alpha =   /* Visbeck alpha coeff. ( ) */
(PID.TID 0000.0001)                 0.000000000000000E+00
(PID.TID 0000.0001)     ;
(PID.TID 0000.0001)  Tapering/Cliping : gkw91
(PID.TID 0000.0001)  GM_Small_Number =  /* epsilon used in slope calc */
(PID.TID 0000.0001)                 9.999999999999999E-21
(PID.TID 0000.0001)     ;
(PID.TID 0000.0001)  GM_slopeSqCutoff =  /* Slope^2 cut-off value */
(PID.TID 0000.0001)                 1.000000000000000E+48
(PID.TID 0000.0001)     ;
(PID.TID 0000.0001) THSICE_CHECK: #define THSICE
(PID.TID 0000.0001) %MON fCori_max                    =   1.4535016908525E-04
(PID.TID 0000.0001) %MON fCori_min                    =  -1.4535016908525E-04
(PID.TID 0000.0001) %MON fCori_mean                   =   0.0000000000000E+00
(PID.TID 0000.0001) %MON fCori_sd                     =   8.3972192788621E-05
(PID.TID 0000.0001) %MON fCoriG_max                   =   1.4544410433286E-04
(PID.TID 0000.0001) %MON fCoriG_min                   =  -1.4544410433286E-04
(PID.TID 0000.0001) %MON fCoriG_mean                  =   0.0000000000000E+00
(PID.TID 0000.0001) %MON fCoriG_sd                    =   8.4860812167727E-05
(PID.TID 0000.0001) %MON fCoriCos_max                 =   1.4540341538469E-04
(PID.TID 0000.0001) %MON fCoriCos_min                 =   5.2264550201501E-06
(PID.TID 0000.0001) %MON fCoriCos_mean                =   1.1482595466044E-04
(PID.TID 0000.0001) %MON fCoriCos_sd                  =   3.0292878037194E-05
(PID.TID 0000.0001) INI_CG2D: CG2D normalisation factor =  1.9156564154949553E-04
(PID.TID 0000.0001) INI_CG2D: cg2dTolerance = 5.809016360175293E-07 (Area=3.6388673751E+14)
(PID.TID 0000.0001) 
(PID.TID 0000.0001) CONFIG_CHECK: OK
(PID.TID 0000.0001) // =======================================================
(PID.TID 0000.0001) // Model configuration
(PID.TID 0000.0001) // =======================================================
(PID.TID 0000.0001) //
(PID.TID 0000.0001) // "Physical" paramters ( PARM01 in namelist )
(PID.TID 0000.0001) //
(PID.TID 0000.0001) buoyancyRelation = /* Type of relation to get Buoyancy */
(PID.TID 0000.0001)               'OCEANIC'
(PID.TID 0000.0001)     ;
(PID.TID 0000.0001) fluidIsAir  =  /* fluid major constituent is Air */
(PID.TID 0000.0001)                   F
(PID.TID 0000.0001)     ;
(PID.TID 0000.0001) fluidIsWater=  /* fluid major constituent is Water */
(PID.TID 0000.0001)                   T
(PID.TID 0000.0001)     ;
(PID.TID 0000.0001) usingPCoords =  /* use p (or p*) vertical coordinate */
(PID.TID 0000.0001)                   F
(PID.TID 0000.0001)     ;
(PID.TID 0000.0001) usingZCoords =  /* use z (or z*) vertical coordinate */
(PID.TID 0000.0001)                   T
(PID.TID 0000.0001)     ;
(PID.TID 0000.0001) tRef =   /* Reference temperature profile ( oC or K ) */
(PID.TID 0000.0001)    15 @  2.000000000000000E+01              /* K =  1: 15 */
(PID.TID 0000.0001)     ;
(PID.TID 0000.0001) sRef =   /* Reference salinity profile ( psu ) */
(PID.TID 0000.0001)    15 @  3.500000000000000E+01              /* K =  1: 15 */
(PID.TID 0000.0001)     ;
(PID.TID 0000.0001) viscAh =   /* Lateral eddy viscosity ( m^2/s ) */
(PID.TID 0000.0001)                 3.000000000000000E+05
(PID.TID 0000.0001)     ;
(PID.TID 0000.0001) viscAhMax =   /* Maximum lateral eddy viscosity ( m^2/s ) */
(PID.TID 0000.0001)                 1.000000000000000E+21
(PID.TID 0000.0001)     ;
(PID.TID 0000.0001) viscAhGrid =   /* Grid dependent lateral eddy viscosity ( non-dim. ) */
(PID.TID 0000.0001)                 0.000000000000000E+00
(PID.TID 0000.0001)     ;
(PID.TID 0000.0001) useFullLeith =   /* Use Full Form of Leith Viscosity on/off flag*/
(PID.TID 0000.0001)                   F
(PID.TID 0000.0001)     ;
(PID.TID 0000.0001) useStrainTensionVisc =   /* Use StrainTension Form of Viscous Operator on/off flag*/
(PID.TID 0000.0001)                   F
(PID.TID 0000.0001)     ;
(PID.TID 0000.0001) useAreaViscLength =   /* Use area for visc length instead of geom. mean*/
(PID.TID 0000.0001)                   F
(PID.TID 0000.0001)     ;
(PID.TID 0000.0001) viscC2leith = /* Leith harmonic visc. factor (on grad(vort),non-dim.) */
(PID.TID 0000.0001)                 0.000000000000000E+00
(PID.TID 0000.0001)     ;
(PID.TID 0000.0001) viscC2leithD = /* Leith harmonic viscosity factor (on grad(div),non-dim.) */
(PID.TID 0000.0001)                 0.000000000000000E+00
(PID.TID 0000.0001)     ;
(PID.TID 0000.0001) viscC2smag =   /* Smagorinsky harmonic viscosity factor (non-dim.) */
(PID.TID 0000.0001)                 0.000000000000000E+00
(PID.TID 0000.0001)     ;
(PID.TID 0000.0001) viscA4 =   /* Lateral biharmonic viscosity ( m^4/s ) */
(PID.TID 0000.0001)                 0.000000000000000E+00
(PID.TID 0000.0001)     ;
(PID.TID 0000.0001) viscA4Max =   /* Maximum biharmonic viscosity ( m^2/s ) */
(PID.TID 0000.0001)                 1.000000000000000E+21
(PID.TID 0000.0001)     ;
(PID.TID 0000.0001) viscA4Grid =   /* Grid dependent biharmonic viscosity ( non-dim. ) */
(PID.TID 0000.0001)                 0.000000000000000E+00
(PID.TID 0000.0001)     ;
(PID.TID 0000.0001) viscC4leith = /* Leith biharm viscosity factor (on grad(vort), non-dim.) */
(PID.TID 0000.0001)                 0.000000000000000E+00
(PID.TID 0000.0001)     ;
(PID.TID 0000.0001) viscC4leithD = /* Leith biharm viscosity factor (on grad(div), non-dim.) */
(PID.TID 0000.0001)                 0.000000000000000E+00
(PID.TID 0000.0001)     ;
(PID.TID 0000.0001) viscC4Smag = /* Smagorinsky biharm viscosity factor (non-dim) */
(PID.TID 0000.0001)                 0.000000000000000E+00
(PID.TID 0000.0001)     ;
(PID.TID 0000.0001) no_slip_sides =  /* Viscous BCs: No-slip sides */
(PID.TID 0000.0001)                   T
(PID.TID 0000.0001)     ;
(PID.TID 0000.0001) sideDragFactor = /* side-drag scaling factor (non-dim) */
(PID.TID 0000.0001)                 2.000000000000000E+00
(PID.TID 0000.0001)     ;
(PID.TID 0000.0001) viscAr =   /* Vertical eddy viscosity ( units of r^2/s ) */
(PID.TID 0000.0001)                 1.000000000000000E-03
(PID.TID 0000.0001)     ;
(PID.TID 0000.0001) no_slip_bottom =  /* Viscous BCs: No-slip bottom */
(PID.TID 0000.0001)                   T
(PID.TID 0000.0001)     ;
(PID.TID 0000.0001) bottomDragLinear = /* linear bottom-drag coefficient ( 1/s ) */
(PID.TID 0000.0001)                 0.000000000000000E+00
(PID.TID 0000.0001)     ;
(PID.TID 0000.0001) bottomDragQuadratic = /* quadratic bottom-drag coeff. ( 1/m ) */
(PID.TID 0000.0001)                 0.000000000000000E+00
(PID.TID 0000.0001)     ;
(PID.TID 0000.0001) diffKhT =   /* Laplacian diffusion of heat laterally ( m^2/s ) */
(PID.TID 0000.0001)                 0.000000000000000E+00
(PID.TID 0000.0001)     ;
(PID.TID 0000.0001) diffK4T =   /* Bihaarmonic diffusion of heat laterally ( m^4/s ) */
(PID.TID 0000.0001)                 0.000000000000000E+00
(PID.TID 0000.0001)     ;
(PID.TID 0000.0001) diffKhS =   /* Laplacian diffusion of salt laterally ( m^2/s ) */
(PID.TID 0000.0001)                 0.000000000000000E+00
(PID.TID 0000.0001)     ;
(PID.TID 0000.0001) diffK4S =   /* Bihaarmonic diffusion of salt laterally ( m^4/s ) */
(PID.TID 0000.0001)                 0.000000000000000E+00
(PID.TID 0000.0001)     ;
(PID.TID 0000.0001) diffKrNrT = /* vertical profile of vertical diffusion of Temp ( m^2/s )*/
(PID.TID 0000.0001)    15 @  3.000000000000000E-05              /* K =  1: 15 */
(PID.TID 0000.0001)     ;
(PID.TID 0000.0001) diffKrNrS = /* vertical profile of vertical diffusion of Salt ( m^2/s )*/
(PID.TID 0000.0001)    15 @  3.000000000000000E-05              /* K =  1: 15 */
(PID.TID 0000.0001)     ;
(PID.TID 0000.0001) diffKrBL79surf =   /* Surface diffusion for Bryan and Lewis 1979 ( m^2/s ) */
(PID.TID 0000.0001)                 0.000000000000000E+00
(PID.TID 0000.0001)     ;
(PID.TID 0000.0001) diffKrBL79deep =   /* Deep diffusion for Bryan and Lewis 1979 ( m^2/s ) */
(PID.TID 0000.0001)                 0.000000000000000E+00
(PID.TID 0000.0001)     ;
(PID.TID 0000.0001) diffKrBL79scl =   /* Depth scale for Bryan and Lewis 1979 ( m ) */
(PID.TID 0000.0001)                 2.000000000000000E+02
(PID.TID 0000.0001)     ;
(PID.TID 0000.0001) diffKrBL79Ho =   /* Turning depth for Bryan and Lewis 1979 ( m ) */
(PID.TID 0000.0001)                -2.000000000000000E+03
(PID.TID 0000.0001)     ;
(PID.TID 0000.0001) ivdc_kappa = /* Implicit Vertical Diffusivity for Convection ( m^2/s ) */
(PID.TID 0000.0001)                 1.000000000000000E+01
(PID.TID 0000.0001)     ;
(PID.TID 0000.0001) hMixCriteria=  /* Criteria for mixed-layer diagnostic */
(PID.TID 0000.0001)                -8.000000000000000E-01
(PID.TID 0000.0001)     ;
(PID.TID 0000.0001) eosType =  /* Type of Equation of State */
(PID.TID 0000.0001)               'JMD95Z'
(PID.TID 0000.0001)     ;
(PID.TID 0000.0001) tAlpha =   /* Linear EOS thermal expansion coefficient ( 1/oC ) */
(PID.TID 0000.0001)                 1.234567000000000E+05
(PID.TID 0000.0001)     ;
(PID.TID 0000.0001) sBeta =   /* Linear EOS haline contraction coefficient ( 1/psu ) */
(PID.TID 0000.0001)                 1.234567000000000E+05
(PID.TID 0000.0001)     ;
(PID.TID 0000.0001) rhonil =   /* Reference density ( kg/m^3 ) */
(PID.TID 0000.0001)                 1.035000000000000E+03
(PID.TID 0000.0001)     ;
(PID.TID 0000.0001) rhoConst =   /* Reference density ( kg/m^3 ) */
(PID.TID 0000.0001)                 1.035000000000000E+03
(PID.TID 0000.0001)     ;
(PID.TID 0000.0001) rhoFacC = /* normalized Reference density @ cell-Center (-) */
(PID.TID 0000.0001)    15 @  1.000000000000000E+00              /* K =  1: 15 */
(PID.TID 0000.0001)     ;
(PID.TID 0000.0001) rhoFacF = /* normalized Reference density @ W-Interface (-) */
(PID.TID 0000.0001)    16 @  1.000000000000000E+00              /* K =  1: 16 */
(PID.TID 0000.0001)     ;
(PID.TID 0000.0001) rhoConstFresh =   /* Reference density ( kg/m^3 ) */
(PID.TID 0000.0001)                 1.000000000000000E+03
(PID.TID 0000.0001)     ;
(PID.TID 0000.0001) gravity =   /* Gravitational acceleration ( m/s^2 ) */
(PID.TID 0000.0001)                 9.810000000000000E+00
(PID.TID 0000.0001)     ;
(PID.TID 0000.0001) gBaro =   /* Barotropic gravity ( m/s^2 ) */
(PID.TID 0000.0001)                 9.810000000000000E+00
(PID.TID 0000.0001)     ;
(PID.TID 0000.0001) rotationPeriod =   /* Rotation Period ( s ) */
(PID.TID 0000.0001)                 8.640000000000000E+04
(PID.TID 0000.0001)     ;
(PID.TID 0000.0001) omega =   /* Angular velocity ( rad/s ) */
(PID.TID 0000.0001)                 7.272205216643040E-05
(PID.TID 0000.0001)     ;
(PID.TID 0000.0001) f0 =   /* Reference coriolis parameter ( 1/s ) */
(PID.TID 0000.0001)                 1.000000000000000E-04
(PID.TID 0000.0001)     ;
(PID.TID 0000.0001) beta =   /* Beta ( 1/(m.s) ) */
(PID.TID 0000.0001)                 9.999999999999999E-12
(PID.TID 0000.0001)     ;
(PID.TID 0000.0001) freeSurfFac =   /* Implicit free surface factor */
(PID.TID 0000.0001)                 1.000000000000000E+00
(PID.TID 0000.0001)     ;
(PID.TID 0000.0001) implicitFreeSurface =   /* Implicit free surface on/off flag */
(PID.TID 0000.0001)                   T
(PID.TID 0000.0001)     ;
(PID.TID 0000.0001) rigidLid =   /* Rigid lid on/off flag */
(PID.TID 0000.0001)                   F
(PID.TID 0000.0001)     ;
(PID.TID 0000.0001) implicSurfPress =   /* Surface Pressure implicit factor (0-1)*/
(PID.TID 0000.0001)                 1.000000000000000E+00
(PID.TID 0000.0001)     ;
(PID.TID 0000.0001) implicDiv2Dflow =   /* Barot. Flow Div. implicit factor (0-1)*/
(PID.TID 0000.0001)                 1.000000000000000E+00
(PID.TID 0000.0001)     ;
(PID.TID 0000.0001) exactConserv =   /* Exact Volume Conservation on/off flag*/
(PID.TID 0000.0001)                   T
(PID.TID 0000.0001)     ;
(PID.TID 0000.0001) linFSConserveTr =   /* Tracer correction for Lin Free Surface on/off flag*/
(PID.TID 0000.0001)                   F
(PID.TID 0000.0001)     ;
(PID.TID 0000.0001) uniformLin_PhiSurf =   /* use uniform Bo_surf on/off flag*/
(PID.TID 0000.0001)                   T
(PID.TID 0000.0001)     ;
(PID.TID 0000.0001) nonlinFreeSurf =   /* Non-linear Free Surf. options (-1,0,1,2,3)*/
(PID.TID 0000.0001)                       4
(PID.TID 0000.0001)     ;
(PID.TID 0000.0001)      -1,0= Off ; 1,2,3= On, 2=+rescale gU,gV, 3=+update cg2d solv.
(PID.TID 0000.0001) hFacInf =   /* lower threshold for hFac (nonlinFreeSurf only)*/
(PID.TID 0000.0001)                 2.000000000000000E-01
(PID.TID 0000.0001)     ;
(PID.TID 0000.0001) hFacSup =   /* upper threshold for hFac (nonlinFreeSurf only)*/
(PID.TID 0000.0001)                 2.000000000000000E+00
(PID.TID 0000.0001)     ;
(PID.TID 0000.0001) select_rStar =   /* r* Coordinate options (not yet implemented)*/
(PID.TID 0000.0001)                       2
(PID.TID 0000.0001)     ;
(PID.TID 0000.0001) useRealFreshWaterFlux =   /* Real Fresh Water Flux on/off flag*/
(PID.TID 0000.0001)                   T
(PID.TID 0000.0001)     ;
(PID.TID 0000.0001) temp_EvPrRn = /* Temp. of Evap/Prec/R (UNSET=use local T)(oC)*/
(PID.TID 0000.0001)                 1.234567000000000E+05
(PID.TID 0000.0001)     ;
(PID.TID 0000.0001) salt_EvPrRn = /* Salin. of Evap/Prec/R (UNSET=use local S)(ppt)*/
(PID.TID 0000.0001)                 0.000000000000000E+00
(PID.TID 0000.0001)     ;
(PID.TID 0000.0001) use3Dsolver = /* use 3-D pressure solver on/off flag */
(PID.TID 0000.0001)                   F
(PID.TID 0000.0001)     ;
(PID.TID 0000.0001) nonHydrostatic =  /* Non-Hydrostatic on/off flag */
(PID.TID 0000.0001)                   F
(PID.TID 0000.0001)     ;
(PID.TID 0000.0001) nh_Am2 = /* Non-Hydrostatic terms scaling factor */
(PID.TID 0000.0001)                 1.000000000000000E+00
(PID.TID 0000.0001)     ;
(PID.TID 0000.0001) quasiHydrostatic = /* Quasi-Hydrostatic on/off flag */
(PID.TID 0000.0001)                   F
(PID.TID 0000.0001)     ;
(PID.TID 0000.0001) momStepping =  /* Momentum equation on/off flag */
(PID.TID 0000.0001)                   T
(PID.TID 0000.0001)     ;
(PID.TID 0000.0001) vectorInvariantMomentum= /* Vector-Invariant Momentum on/off */
(PID.TID 0000.0001)                   T
(PID.TID 0000.0001)     ;
(PID.TID 0000.0001) momAdvection =  /* Momentum advection on/off flag */
(PID.TID 0000.0001)                   T
(PID.TID 0000.0001)     ;
(PID.TID 0000.0001) momViscosity =  /* Momentum viscosity on/off flag */
(PID.TID 0000.0001)                   T
(PID.TID 0000.0001)     ;
(PID.TID 0000.0001) momImplVertAdv =/* Momentum implicit vert. advection on/off*/
(PID.TID 0000.0001)                   F
(PID.TID 0000.0001)     ;
(PID.TID 0000.0001) implicitViscosity = /* Implicit viscosity on/off flag */
(PID.TID 0000.0001)                   F
(PID.TID 0000.0001)     ;
(PID.TID 0000.0001) metricTerms =  /* metric-Terms on/off flag */
(PID.TID 0000.0001)                   F
(PID.TID 0000.0001)     ;
(PID.TID 0000.0001) useNHMTerms = /* Non-Hydrostatic Metric-Terms on/off */
(PID.TID 0000.0001)                   F
(PID.TID 0000.0001)     ;
(PID.TID 0000.0001) useConstantF =  /* use Constant f0 Coriolis flag */
(PID.TID 0000.0001)                   F
(PID.TID 0000.0001)     ;
(PID.TID 0000.0001) useBetaPlaneF = /* use Beta-Plane Coriolis flag */
(PID.TID 0000.0001)                   F
(PID.TID 0000.0001)     ;
(PID.TID 0000.0001) useSphereF  =   /* use Spherical Coriolis flag */
(PID.TID 0000.0001)                   T
(PID.TID 0000.0001)     ;
(PID.TID 0000.0001) use3dCoriolis = /* 3-D Coriolis on/off flag */
(PID.TID 0000.0001)                   F
(PID.TID 0000.0001)     ;
(PID.TID 0000.0001) useCoriolis =  /* Coriolis on/off flag */
(PID.TID 0000.0001)                   T
(PID.TID 0000.0001)     ;
(PID.TID 0000.0001) useCDscheme =  /* CD scheme on/off flag */
(PID.TID 0000.0001)                   F
(PID.TID 0000.0001)     ;
(PID.TID 0000.0001) useJamartWetPoints= /* Coriolis WetPoints method flag */
(PID.TID 0000.0001)                   F
(PID.TID 0000.0001)     ;
(PID.TID 0000.0001) useJamartMomAdv= /* V.I. Non-linear terms Jamart flag */
(PID.TID 0000.0001)                   F
(PID.TID 0000.0001)     ;
(PID.TID 0000.0001) SadournyCoriolis= /* Sadourny Coriolis discr. flag */
(PID.TID 0000.0001)                   F
(PID.TID 0000.0001)     ;
(PID.TID 0000.0001) upwindVorticity= /* Upwind bias vorticity flag */
(PID.TID 0000.0001)                   F
(PID.TID 0000.0001)     ;
(PID.TID 0000.0001) useAbsVorticity= /* Work with f+zeta in Coriolis */
(PID.TID 0000.0001)                   F
(PID.TID 0000.0001)     ;
(PID.TID 0000.0001) highOrderVorticity= /* High order interp. of vort. flag */
(PID.TID 0000.0001)                   F
(PID.TID 0000.0001)     ;
(PID.TID 0000.0001) upwindShear= /* Upwind vertical Shear advection flag */
(PID.TID 0000.0001)                   F
(PID.TID 0000.0001)     ;
(PID.TID 0000.0001) selectKEscheme= /* Kinetic Energy scheme selector */
(PID.TID 0000.0001)                       0
(PID.TID 0000.0001)     ;
(PID.TID 0000.0001) momForcing =  /* Momentum forcing on/off flag */
(PID.TID 0000.0001)                   T
(PID.TID 0000.0001)     ;
(PID.TID 0000.0001) momPressureForcing =  /* Momentum pressure term on/off flag */
(PID.TID 0000.0001)                   T
(PID.TID 0000.0001)     ;
(PID.TID 0000.0001) implicitIntGravWave= /* Implicit Internal Gravity Wave flag */
(PID.TID 0000.0001)                   F
(PID.TID 0000.0001)     ;
(PID.TID 0000.0001) staggerTimeStep =   /* Stagger time stepping on/off flag */
(PID.TID 0000.0001)                   T
(PID.TID 0000.0001)     ;
(PID.TID 0000.0001) multiDimAdvection =   /* enable/disable Multi-Dim Advection */
(PID.TID 0000.0001)                   T
(PID.TID 0000.0001)     ;
(PID.TID 0000.0001) useMultiDimAdvec =   /* Multi-Dim Advection is/is-not used */
(PID.TID 0000.0001)                   F
(PID.TID 0000.0001)     ;
(PID.TID 0000.0001) implicitDiffusion =/* Implicit Diffusion on/off flag */
(PID.TID 0000.0001)                   T
(PID.TID 0000.0001)     ;
(PID.TID 0000.0001) tempStepping =  /* Temperature equation on/off flag */
(PID.TID 0000.0001)                   T
(PID.TID 0000.0001)     ;
(PID.TID 0000.0001) tempAdvection=  /* Temperature advection on/off flag */
(PID.TID 0000.0001)                   T
(PID.TID 0000.0001)     ;
(PID.TID 0000.0001) tempImplVertAdv =/* Temp. implicit vert. advection on/off */
(PID.TID 0000.0001)                   F
(PID.TID 0000.0001)     ;
(PID.TID 0000.0001) tempForcing  =  /* Temperature forcing on/off flag */
(PID.TID 0000.0001)                   T
(PID.TID 0000.0001)     ;
(PID.TID 0000.0001) saltStepping =  /* Salinity equation on/off flag */
(PID.TID 0000.0001)                   T
(PID.TID 0000.0001)     ;
(PID.TID 0000.0001) saltAdvection=  /* Salinity advection on/off flag */
(PID.TID 0000.0001)                   T
(PID.TID 0000.0001)     ;
(PID.TID 0000.0001) saltImplVertAdv =/* Sali. implicit vert. advection on/off */
(PID.TID 0000.0001)                   F
(PID.TID 0000.0001)     ;
(PID.TID 0000.0001) saltForcing  =  /* Salinity forcing on/off flag */
(PID.TID 0000.0001)                   T
(PID.TID 0000.0001)     ;
(PID.TID 0000.0001)  readBinaryPrec = /* Precision used for reading binary files */
(PID.TID 0000.0001)                      64
(PID.TID 0000.0001)     ;
(PID.TID 0000.0001) writeBinaryPrec = /* Precision used for writing binary files */
(PID.TID 0000.0001)                      32
(PID.TID 0000.0001)     ;
(PID.TID 0000.0001)  globalFiles = /* write "global" (=not per tile) files */
(PID.TID 0000.0001)                   F
(PID.TID 0000.0001)     ;
(PID.TID 0000.0001)  useSingleCpuIO = /* only master MPI process does I/O */
(PID.TID 0000.0001)                   F
(PID.TID 0000.0001)     ;
(PID.TID 0000.0001)  debugMode  =  /* Debug Mode on/off flag */
(PID.TID 0000.0001)                   F
(PID.TID 0000.0001)     ;
(PID.TID 0000.0001)    debLevA  =  /* 1rst level of debugging */
(PID.TID 0000.0001)                       1
(PID.TID 0000.0001)     ;
(PID.TID 0000.0001)    debLevB  =  /* 2nd  level of debugging */
(PID.TID 0000.0001)                       2
(PID.TID 0000.0001)     ;
(PID.TID 0000.0001)  debugLevel =  /* select debugging level */
(PID.TID 0000.0001)                       1
(PID.TID 0000.0001)     ;
(PID.TID 0000.0001) //
(PID.TID 0000.0001) // Elliptic solver(s) paramters ( PARM02 in namelist )
(PID.TID 0000.0001) //
(PID.TID 0000.0001) cg2dMaxIters =   /* Upper limit on 2d con. grad iterations  */
(PID.TID 0000.0001)                     200
(PID.TID 0000.0001)     ;
(PID.TID 0000.0001) cg2dChkResFreq =   /* 2d con. grad convergence test frequency */
(PID.TID 0000.0001)                       1
(PID.TID 0000.0001)     ;
(PID.TID 0000.0001) cg2dTargetResidual =   /* 2d con. grad target residual  */
(PID.TID 0000.0001)                 1.000000000000000E-07
(PID.TID 0000.0001)     ;
(PID.TID 0000.0001) cg2dTargetResWunit =   /* CG2d target residual [W units] */
(PID.TID 0000.0001)                 1.000000000000000E-14
(PID.TID 0000.0001)     ;
(PID.TID 0000.0001) cg2dPreCondFreq =   /* Freq. for updating cg2d preconditioner */
(PID.TID 0000.0001)                       1
(PID.TID 0000.0001)     ;
(PID.TID 0000.0001) //
(PID.TID 0000.0001) // Time stepping paramters ( PARM03 in namelist )
(PID.TID 0000.0001) //
(PID.TID 0000.0001) nIter0 =   /* Run starting timestep number  */
(PID.TID 0000.0001)                   36000
(PID.TID 0000.0001)     ;
(PID.TID 0000.0001) nTimeSteps =   /* Number of timesteps */
(PID.TID 0000.0001)                      20
(PID.TID 0000.0001)     ;
(PID.TID 0000.0001) deltaTmom =   /* Momentum equation timestep ( s ) */
(PID.TID 0000.0001)                 1.200000000000000E+03
(PID.TID 0000.0001)     ;
(PID.TID 0000.0001) deltaTfreesurf =   /* FreeSurface equation timestep ( s ) */
(PID.TID 0000.0001)                 8.640000000000000E+04
(PID.TID 0000.0001)     ;
(PID.TID 0000.0001) dTtracerLev =   /* Tracer equation timestep ( s ) */
(PID.TID 0000.0001)    15 @  8.640000000000000E+04              /* K =  1: 15 */
(PID.TID 0000.0001)     ;
(PID.TID 0000.0001) deltaTClock  =   /* Model clock timestep ( s ) */
(PID.TID 0000.0001)                 8.640000000000000E+04
(PID.TID 0000.0001)     ;
(PID.TID 0000.0001) cAdjFreq =   /* Convective adjustment interval ( s ) */
(PID.TID 0000.0001)                 0.000000000000000E+00
(PID.TID 0000.0001)     ;
(PID.TID 0000.0001) momForcingOutAB = /* =1: take Momentum Forcing out of Adams-Bash. stepping */
(PID.TID 0000.0001)                       0
(PID.TID 0000.0001)     ;
(PID.TID 0000.0001) tracForcingOutAB = /* =1: take T,S,pTr Forcing out of Adams-Bash. stepping */
(PID.TID 0000.0001)                       1
(PID.TID 0000.0001)     ;
(PID.TID 0000.0001) momDissip_In_AB = /* put Dissipation Tendency in Adams-Bash. stepping */
(PID.TID 0000.0001)                   T
(PID.TID 0000.0001)     ;
(PID.TID 0000.0001) doAB_onGtGs = /* apply AB on Tendencies (rather than on T,S)*/
(PID.TID 0000.0001)                   T
(PID.TID 0000.0001)     ;
(PID.TID 0000.0001) abEps =   /* Adams-Bashforth-2 stabilizing weight */
(PID.TID 0000.0001)                 1.000000000000000E-01
(PID.TID 0000.0001)     ;
(PID.TID 0000.0001) baseTime =   /* Model base time ( s ). */
(PID.TID 0000.0001)                 0.000000000000000E+00
(PID.TID 0000.0001)     ;
(PID.TID 0000.0001) startTime =   /* Run start time ( s ). */
(PID.TID 0000.0001)                 3.110400000000000E+09
(PID.TID 0000.0001)     ;
(PID.TID 0000.0001) endTime =   /* Integration ending time ( s ). */
(PID.TID 0000.0001)                 3.112128000000000E+09
(PID.TID 0000.0001)     ;
(PID.TID 0000.0001) pChkPtFreq =   /* Permanent restart/checkpoint file interval ( s ). */
(PID.TID 0000.0001)                 3.110400000000000E+07
(PID.TID 0000.0001)     ;
(PID.TID 0000.0001) chkPtFreq =   /* Rolling restart/checkpoint file interval ( s ). */
(PID.TID 0000.0001)                 0.000000000000000E+00
(PID.TID 0000.0001)     ;
(PID.TID 0000.0001) pickup_write_mdsio =   /* Model IO flag. */
(PID.TID 0000.0001)                   T
(PID.TID 0000.0001)     ;
(PID.TID 0000.0001) pickup_read_mdsio =   /* Model IO flag. */
(PID.TID 0000.0001)                   T
(PID.TID 0000.0001)     ;
(PID.TID 0000.0001) pickup_write_mnc =   /* Model IO flag. */
(PID.TID 0000.0001)                   F
(PID.TID 0000.0001)     ;
(PID.TID 0000.0001) pickup_read_mnc =   /* Model IO flag. */
(PID.TID 0000.0001)                   F
(PID.TID 0000.0001)     ;
(PID.TID 0000.0001) pickup_write_immed =   /* Model IO flag. */
(PID.TID 0000.0001)                   F
(PID.TID 0000.0001)     ;
(PID.TID 0000.0001) dumpFreq =   /* Model state write out interval ( s ). */
(PID.TID 0000.0001)                 3.110400000000000E+07
(PID.TID 0000.0001)     ;
(PID.TID 0000.0001) dumpInitAndLast= /* write out Initial & Last iter. model state */
(PID.TID 0000.0001)                   T
(PID.TID 0000.0001)     ;
(PID.TID 0000.0001) snapshot_mdsio =   /* Model IO flag. */
(PID.TID 0000.0001)                   T
(PID.TID 0000.0001)     ;
(PID.TID 0000.0001) snapshot_mnc =   /* Model IO flag. */
(PID.TID 0000.0001)                   F
(PID.TID 0000.0001)     ;
(PID.TID 0000.0001) monitorFreq =   /* Monitor output interval ( s ). */
(PID.TID 0000.0001)                 1.000000000000000E+00
(PID.TID 0000.0001)     ;
(PID.TID 0000.0001) monitor_stdio =   /* Model IO flag. */
(PID.TID 0000.0001)                   T
(PID.TID 0000.0001)     ;
(PID.TID 0000.0001) monitor_mnc =   /* Model IO flag. */
(PID.TID 0000.0001)                   F
(PID.TID 0000.0001)     ;
(PID.TID 0000.0001) externForcingPeriod =   /* forcing period (s) */
(PID.TID 0000.0001)                 2.592000000000000E+06
(PID.TID 0000.0001)     ;
(PID.TID 0000.0001) externForcingCycle =   /* period of the cyle (s). */
(PID.TID 0000.0001)                 3.110400000000000E+07
(PID.TID 0000.0001)     ;
(PID.TID 0000.0001) tauThetaClimRelax =   /* relaxation time scale (s) */
(PID.TID 0000.0001)                 5.184000000000000E+06
(PID.TID 0000.0001)     ;
(PID.TID 0000.0001) tauSaltClimRelax =   /* relaxation time scale (s) */
(PID.TID 0000.0001)                 1.555200000000000E+07
(PID.TID 0000.0001)     ;
(PID.TID 0000.0001) latBandClimRelax =   /* max. Lat. where relaxation */
(PID.TID 0000.0001)                 5.000000000000000E+01
(PID.TID 0000.0001)     ;
(PID.TID 0000.0001) //
(PID.TID 0000.0001) // Gridding paramters ( PARM04 in namelist )
(PID.TID 0000.0001) //
(PID.TID 0000.0001) usingCartesianGrid = /* Cartesian coordinates flag ( True/False ) */
(PID.TID 0000.0001)                   F
(PID.TID 0000.0001)     ;
(PID.TID 0000.0001) usingCylindricalGrid = /* Cylindrical coordinates flag ( True/False ) */
(PID.TID 0000.0001)                   F
(PID.TID 0000.0001)     ;
(PID.TID 0000.0001) usingSphericalPolarGrid = /* Spherical coordinates flag ( True/False ) */
(PID.TID 0000.0001)                   F
(PID.TID 0000.0001)     ;
(PID.TID 0000.0001) usingCurvilinearGrid = /* Curvilinear coordinates flag ( True/False ) */
(PID.TID 0000.0001)                   T
(PID.TID 0000.0001)     ;
(PID.TID 0000.0001) Ro_SeaLevel = /* r(1) ( units of r ) */
(PID.TID 0000.0001)                 0.000000000000000E+00
(PID.TID 0000.0001)     ;
(PID.TID 0000.0001) rkSign =   /* index orientation relative to vertical coordinate */
(PID.TID 0000.0001)                -1.000000000000000E+00
(PID.TID 0000.0001)     ;
(PID.TID 0000.0001) gravitySign = /* gravity orientation relative to vertical coordinate */
(PID.TID 0000.0001)                -1.000000000000000E+00
(PID.TID 0000.0001)     ;
(PID.TID 0000.0001) horiVertRatio =   /* Ratio on units : Horiz - Vertical */
(PID.TID 0000.0001)                 1.000000000000000E+00
(PID.TID 0000.0001)     ;
(PID.TID 0000.0001) drC =   /* C spacing ( units of r ) */
(PID.TID 0000.0001)                 2.500000000000000E+01,      /* K =  1 */
(PID.TID 0000.0001)                 6.000000000000000E+01,      /* K =  2 */
(PID.TID 0000.0001)                 8.500000000000000E+01,      /* K =  3 */
(PID.TID 0000.0001)                 1.200000000000000E+02,      /* K =  4 */
(PID.TID 0000.0001)                 1.650000000000000E+02,      /* K =  5 */
(PID.TID 0000.0001)                 2.150000000000000E+02,      /* K =  6 */
(PID.TID 0000.0001)                 2.650000000000000E+02,      /* K =  7 */
(PID.TID 0000.0001)                 3.150000000000000E+02,      /* K =  8 */
(PID.TID 0000.0001)                 3.650000000000000E+02,      /* K =  9 */
(PID.TID 0000.0001)                 4.150000000000000E+02,      /* K = 10 */
(PID.TID 0000.0001)                 4.650000000000000E+02,      /* K = 11 */
(PID.TID 0000.0001)                 5.150000000000000E+02,      /* K = 12 */
(PID.TID 0000.0001)                 5.650000000000000E+02,      /* K = 13 */
(PID.TID 0000.0001)                 6.150000000000000E+02,      /* K = 14 */
(PID.TID 0000.0001)                 6.650000000000000E+02       /* K = 15 */
(PID.TID 0000.0001)     ;
(PID.TID 0000.0001) drF =   /* W spacing ( units of r ) */
(PID.TID 0000.0001)                 5.000000000000000E+01,      /* K =  1 */
(PID.TID 0000.0001)                 7.000000000000000E+01,      /* K =  2 */
(PID.TID 0000.0001)                 1.000000000000000E+02,      /* K =  3 */
(PID.TID 0000.0001)                 1.400000000000000E+02,      /* K =  4 */
(PID.TID 0000.0001)                 1.900000000000000E+02,      /* K =  5 */
(PID.TID 0000.0001)                 2.400000000000000E+02,      /* K =  6 */
(PID.TID 0000.0001)                 2.900000000000000E+02,      /* K =  7 */
(PID.TID 0000.0001)                 3.400000000000000E+02,      /* K =  8 */
(PID.TID 0000.0001)                 3.900000000000000E+02,      /* K =  9 */
(PID.TID 0000.0001)                 4.400000000000000E+02,      /* K = 10 */
(PID.TID 0000.0001)                 4.900000000000000E+02,      /* K = 11 */
(PID.TID 0000.0001)                 5.400000000000000E+02,      /* K = 12 */
(PID.TID 0000.0001)                 5.900000000000000E+02,      /* K = 13 */
(PID.TID 0000.0001)                 6.400000000000000E+02,      /* K = 14 */
(PID.TID 0000.0001)                 6.900000000000000E+02       /* K = 15 */
(PID.TID 0000.0001)     ;
(PID.TID 0000.0001) delX =   /* U spacing ( m - cartesian, degrees - spherical ) */
(PID.TID 0000.0001)   192 @  1.234567000000000E+05              /* I =  1:192 */
(PID.TID 0000.0001)     ;
(PID.TID 0000.0001) delY =   /* V spacing ( m - cartesian, degrees - spherical ) */
(PID.TID 0000.0001)    32 @  1.234567000000000E+05              /* J =  1: 32 */
(PID.TID 0000.0001)     ;
(PID.TID 0000.0001) phiMin =    /* South edge (ignored - cartesian, degrees - spherical ) */
(PID.TID 0000.0001)                 0.000000000000000E+00
(PID.TID 0000.0001)     ;
(PID.TID 0000.0001) thetaMin =    /* West edge ( ignored - cartesian, degrees - spherical ) */
(PID.TID 0000.0001)                 0.000000000000000E+00
(PID.TID 0000.0001)     ;
(PID.TID 0000.0001) rSphere =  /* Radius ( ignored - cartesian, m - spherical ) */
(PID.TID 0000.0001)                 6.370000000000000E+06
(PID.TID 0000.0001)     ;
(PID.TID 0000.0001) deepAtmosphere = /* Deep/Shallow Atmosphere flag (True/False) */
(PID.TID 0000.0001)                   F
(PID.TID 0000.0001)     ;
(PID.TID 0000.0001) xcoord =   /* P-point X coord ( m - cartesian, degrees - spherical ) */
(PID.TID 0000.0001)                -4.439521994760536E+01,      /* I =  1 */
(PID.TID 0000.0001)                -4.295641272275883E+01,      /* I =  2 */
(PID.TID 0000.0001)                -4.122055553388957E+01,      /* I =  3 */
(PID.TID 0000.0001)                -3.923446288487304E+01,      /* I =  4 */
(PID.TID 0000.0001)                -3.702585158682200E+01,      /* I =  5 */
(PID.TID 0000.0001)                -3.461179367094151E+01,      /* I =  6 */
(PID.TID 0000.0001)                -3.200434569041793E+01,      /* I =  7 */
(PID.TID 0000.0001)                -2.921355965632675E+01,      /* I =  8 */
(PID.TID 0000.0001)                -2.624932223028290E+01,      /* I =  9 */
(PID.TID 0000.0001)                -2.312261250426344E+01,      /* I = 10 */
(PID.TID 0000.0001)                -1.984640717127058E+01,      /* I = 11 */
(PID.TID 0000.0001)                -1.643630800555134E+01,      /* I = 12 */
(PID.TID 0000.0001)                -1.291089806302069E+01,      /* I = 13 */
(PID.TID 0000.0001)                -9.291807802719402E+00,      /* I = 14 */
(PID.TID 0000.0001)                -5.603475335822332E+00,      /* I = 15 */
(PID.TID 0000.0001)                -1.872608513033445E+00,      /* I = 16 */
(PID.TID 0000.0001)                 1.872608513033445E+00,      /* I = 17 */
(PID.TID 0000.0001)                 5.603475335822332E+00,      /* I = 18 */
(PID.TID 0000.0001)                 9.291807802719402E+00,      /* I = 19 */
(PID.TID 0000.0001)                 1.291089806302069E+01,      /* I = 20 */
(PID.TID 0000.0001)                 1.643630800555134E+01,      /* I = 21 */
(PID.TID 0000.0001)                 1.984640717127058E+01,      /* I = 22 */
(PID.TID 0000.0001)                 2.312261250426344E+01,      /* I = 23 */
(PID.TID 0000.0001)                 2.624932223028290E+01,      /* I = 24 */
(PID.TID 0000.0001)                 2.921355965632675E+01,      /* I = 25 */
(PID.TID 0000.0001)                 3.200434569041793E+01,      /* I = 26 */
(PID.TID 0000.0001)                 3.461179367094151E+01,      /* I = 27 */
(PID.TID 0000.0001)                 3.702585158682200E+01,      /* I = 28 */
(PID.TID 0000.0001)                 3.923446288487304E+01,      /* I = 29 */
(PID.TID 0000.0001)                 4.122055553388957E+01,      /* I = 30 */
(PID.TID 0000.0001)                 4.295641272275883E+01,      /* I = 31 */
(PID.TID 0000.0001)                 4.439521994760536E+01,      /* I = 32 */
(PID.TID 0000.0001)                 4.560478005239464E+01,      /* I = 33 */
(PID.TID 0000.0001)                 4.704358727724117E+01,      /* I = 34 */
(PID.TID 0000.0001)                 4.877944446611043E+01,      /* I = 35 */
(PID.TID 0000.0001)                 5.076553711512697E+01,      /* I = 36 */
(PID.TID 0000.0001)                 5.297414841317801E+01,      /* I = 37 */
(PID.TID 0000.0001)                 5.538820632905850E+01,      /* I = 38 */
(PID.TID 0000.0001)                 5.799565430958209E+01,      /* I = 39 */
(PID.TID 0000.0001)                 6.078644034367325E+01,      /* I = 40 */
(PID.TID 0000.0001)                 6.375067776971711E+01,      /* I = 41 */
(PID.TID 0000.0001)                 6.687738749573657E+01,      /* I = 42 */
(PID.TID 0000.0001)                 7.015359282872943E+01,      /* I = 43 */
(PID.TID 0000.0001)                 7.356369199444866E+01,      /* I = 44 */
(PID.TID 0000.0001)                 7.708910193697932E+01,      /* I = 45 */
(PID.TID 0000.0001)                 8.070819219728060E+01,      /* I = 46 */
(PID.TID 0000.0001)                 8.439652466417766E+01,      /* I = 47 */
(PID.TID 0000.0001)                 8.812739148696656E+01,      /* I = 48 */
(PID.TID 0000.0001)                 9.187260851303344E+01,      /* I = 49 */
(PID.TID 0000.0001)                 9.560347533582234E+01,      /* I = 50 */
(PID.TID 0000.0001)                 9.929180780271940E+01,      /* I = 51 */
(PID.TID 0000.0001)                 1.029108980630207E+02,      /* I = 52 */
(PID.TID 0000.0001)                 1.064363080055513E+02,      /* I = 53 */
(PID.TID 0000.0001)                 1.098464071712706E+02,      /* I = 54 */
(PID.TID 0000.0001)                 1.131226125042634E+02,      /* I = 55 */
(PID.TID 0000.0001)                 1.162493222302829E+02,      /* I = 56 */
(PID.TID 0000.0001)                 1.192135596563268E+02,      /* I = 57 */
(PID.TID 0000.0001)                 1.220043456904179E+02,      /* I = 58 */
(PID.TID 0000.0001)                 1.246117936709415E+02,      /* I = 59 */
(PID.TID 0000.0001)                 1.270258515868220E+02,      /* I = 60 */
(PID.TID 0000.0001)                 1.292344628848730E+02,      /* I = 61 */
(PID.TID 0000.0001)                 1.312205555338896E+02,      /* I = 62 */
(PID.TID 0000.0001)                 1.329564127227588E+02,      /* I = 63 */
(PID.TID 0000.0001)                 1.343952199476053E+02,      /* I = 64 */
(PID.TID 0000.0001)                 4.500000000000000E+01,      /* I = 65 */
(PID.TID 0000.0001)                 4.620805468796297E+01,      /* I = 66 */
(PID.TID 0000.0001)                 4.781369642513039E+01,      /* I = 67 */
(PID.TID 0000.0001)                 4.971767671143929E+01,      /* I = 68 */
(PID.TID 0000.0001)                 5.187738319787235E+01,      /* I = 69 */
(PID.TID 0000.0001)                 5.427004371478710E+01,      /* I = 70 */
(PID.TID 0000.0001)                 5.688128325334060E+01,      /* I = 71 */
(PID.TID 0000.0001)                 5.970018167786760E+01,      /* I = 72 */
(PID.TID 0000.0001)                 6.271654991792347E+01,      /* I = 73 */
(PID.TID 0000.0001)                 6.591914604853015E+01,      /* I = 74 */
(PID.TID 0000.0001)                 6.929439270484148E+01,      /* I = 75 */
(PID.TID 0000.0001)                 7.282545807616151E+01,      /* I = 76 */
(PID.TID 0000.0001)                 7.649168830618933E+01,      /* I = 77 */
(PID.TID 0000.0001)                 8.026842803787176E+01,      /* I = 78 */
(PID.TID 0000.0001)                 8.412726743124185E+01,      /* I = 79 */
(PID.TID 0000.0001)                 8.803672008547504E+01,      /* I = 80 */
(PID.TID 0000.0001)                 9.196327991452496E+01,      /* I = 81 */
(PID.TID 0000.0001)                 9.587273256875815E+01,      /* I = 82 */
(PID.TID 0000.0001)                 9.973157196212824E+01,      /* I = 83 */
(PID.TID 0000.0001)                 1.035083116938107E+02,      /* I = 84 */
(PID.TID 0000.0001)                 1.071745419238385E+02,      /* I = 85 */
(PID.TID 0000.0001)                 1.107056072951585E+02,      /* I = 86 */
(PID.TID 0000.0001)                 1.140808539514698E+02,      /* I = 87 */
(PID.TID 0000.0001)                 1.172834500820765E+02,      /* I = 88 */
(PID.TID 0000.0001)                 1.202998183221324E+02,      /* I = 89 */
(PID.TID 0000.0001)                 1.231187167466594E+02,      /* I = 90 */
(PID.TID 0000.0001)                 1.257299562852129E+02,      /* I = 91 */
(PID.TID 0000.0001)                 1.281226168021277E+02,      /* I = 92 */
(PID.TID 0000.0001)                 1.302823232885607E+02,      /* I = 93 */
(PID.TID 0000.0001)                 1.321863035748696E+02,      /* I = 94 */
(PID.TID 0000.0001)                 1.337919453120370E+02,      /* I = 95 */
(PID.TID 0000.0001)                 1.350000000000000E+02,      /* I = 96 */
(PID.TID 0000.0001)                 1.356047800523947E+02,      /* I = 97 */
(PID.TID 0000.0001)                 1.358367907661329E+02,      /* I = 98 */
(PID.TID 0000.0001)                 1.359720382181193E+02,      /* I = 99 */
(PID.TID 0000.0001)                 1.360654656901789E+02,      /* I =100 */
(PID.TID 0000.0001)                 1.361344533147042E+02,      /* I =101 */
(PID.TID 0000.0001)                 1.361871219420981E+02,      /* I =102 */
(PID.TID 0000.0001)                 1.362280794509603E+02,      /* I =103 */
(PID.TID 0000.0001)                 1.362602511071934E+02,      /* I =104 */
(PID.TID 0000.0001)                 1.362856280326734E+02,      /* I =105 */
(PID.TID 0000.0001)                 1.363056266270901E+02,      /* I =106 */
(PID.TID 0000.0001)                 1.363212817739446E+02,      /* I =107 */
(PID.TID 0000.0001)                 1.363333595910255E+02,      /* I =108 */
(PID.TID 0000.0001)                 1.363424272425760E+02,      /* I =109 */
(PID.TID 0000.0001)                 1.363488978790713E+02,      /* I =110 */
(PID.TID 0000.0001)                 1.363530600590580E+02,      /* I =111 */
(PID.TID 0000.0001)     2 @  1.363550967500717E+02,             /* I =112:113 */
(PID.TID 0000.0001)                 1.363530600590580E+02,      /* I =114 */
(PID.TID 0000.0001)                 1.363488978790713E+02,      /* I =115 */
(PID.TID 0000.0001)                 1.363424272425760E+02,      /* I =116 */
(PID.TID 0000.0001)                 1.363333595910255E+02,      /* I =117 */
(PID.TID 0000.0001)                 1.363212817739446E+02,      /* I =118 */
(PID.TID 0000.0001)                 1.363056266270901E+02,      /* I =119 */
(PID.TID 0000.0001)                 1.362856280326734E+02,      /* I =120 */
(PID.TID 0000.0001)                 1.362602511071934E+02,      /* I =121 */
(PID.TID 0000.0001)                 1.362280794509603E+02,      /* I =122 */
(PID.TID 0000.0001)                 1.361871219420981E+02,      /* I =123 */
(PID.TID 0000.0001)                 1.361344533147042E+02,      /* I =124 */
(PID.TID 0000.0001)                 1.360654656901789E+02,      /* I =125 */
(PID.TID 0000.0001)                 1.359720382181193E+02,      /* I =126 */
(PID.TID 0000.0001)                 1.358367907661329E+02,      /* I =127 */
(PID.TID 0000.0001)                 1.356047800523947E+02,      /* I =128 */
(PID.TID 0000.0001)                -1.343952199476053E+02,      /* I =129 */
(PID.TID 0000.0001)                -1.341632092338671E+02,      /* I =130 */
(PID.TID 0000.0001)                -1.340279617818807E+02,      /* I =131 */
(PID.TID 0000.0001)                -1.339345343098211E+02,      /* I =132 */
(PID.TID 0000.0001)                -1.338655466852958E+02,      /* I =133 */
(PID.TID 0000.0001)                -1.338128780579019E+02,      /* I =134 */
(PID.TID 0000.0001)                -1.337719205490397E+02,      /* I =135 */
(PID.TID 0000.0001)                -1.337397488928066E+02,      /* I =136 */
(PID.TID 0000.0001)                -1.337143719673266E+02,      /* I =137 */
(PID.TID 0000.0001)                -1.336943733729099E+02,      /* I =138 */
(PID.TID 0000.0001)                -1.336787182260554E+02,      /* I =139 */
(PID.TID 0000.0001)                -1.336666404089745E+02,      /* I =140 */
(PID.TID 0000.0001)                -1.336575727574240E+02,      /* I =141 */
(PID.TID 0000.0001)                -1.336511021209287E+02,      /* I =142 */
(PID.TID 0000.0001)                -1.336469399409420E+02,      /* I =143 */
(PID.TID 0000.0001)     2 @ -1.336449032499283E+02,             /* I =144:145 */
(PID.TID 0000.0001)                -1.336469399409420E+02,      /* I =146 */
(PID.TID 0000.0001)                -1.336511021209287E+02,      /* I =147 */
(PID.TID 0000.0001)                -1.336575727574240E+02,      /* I =148 */
(PID.TID 0000.0001)                -1.336666404089745E+02,      /* I =149 */
(PID.TID 0000.0001)                -1.336787182260554E+02,      /* I =150 */
(PID.TID 0000.0001)                -1.336943733729099E+02,      /* I =151 */
(PID.TID 0000.0001)                -1.337143719673266E+02,      /* I =152 */
(PID.TID 0000.0001)                -1.337397488928066E+02,      /* I =153 */
(PID.TID 0000.0001)                -1.337719205490397E+02,      /* I =154 */
(PID.TID 0000.0001)                -1.338128780579019E+02,      /* I =155 */
(PID.TID 0000.0001)                -1.338655466852958E+02,      /* I =156 */
(PID.TID 0000.0001)                -1.339345343098211E+02,      /* I =157 */
(PID.TID 0000.0001)                -1.340279617818807E+02,      /* I =158 */
(PID.TID 0000.0001)                -1.341632092338671E+02,      /* I =159 */
(PID.TID 0000.0001)                -1.343952199476053E+02,      /* I =160 */
(PID.TID 0000.0001)                -1.350000000000000E+02,      /* I =161 */
(PID.TID 0000.0001)                -1.362080546879630E+02,      /* I =162 */
(PID.TID 0000.0001)                -1.378136964251304E+02,      /* I =163 */
(PID.TID 0000.0001)                -1.397176767114393E+02,      /* I =164 */
(PID.TID 0000.0001)                -1.418773831978723E+02,      /* I =165 */
(PID.TID 0000.0001)                -1.442700437147871E+02,      /* I =166 */
(PID.TID 0000.0001)                -1.468812832533406E+02,      /* I =167 */
(PID.TID 0000.0001)                -1.497001816778676E+02,      /* I =168 */
(PID.TID 0000.0001)                -1.527165499179235E+02,      /* I =169 */
(PID.TID 0000.0001)                -1.559191460485302E+02,      /* I =170 */
(PID.TID 0000.0001)                -1.592943927048415E+02,      /* I =171 */
(PID.TID 0000.0001)                -1.628254580761615E+02,      /* I =172 */
(PID.TID 0000.0001)                -1.664916883061893E+02,      /* I =173 */
(PID.TID 0000.0001)                -1.702684280378718E+02,      /* I =174 */
(PID.TID 0000.0001)                -1.741272674312418E+02,      /* I =175 */
(PID.TID 0000.0001)                -1.780367200854751E+02,      /* I =176 */
(PID.TID 0000.0001)                 1.780367200854751E+02,      /* I =177 */
(PID.TID 0000.0001)                 1.741272674312418E+02,      /* I =178 */
(PID.TID 0000.0001)                 1.702684280378718E+02,      /* I =179 */
(PID.TID 0000.0001)                 1.664916883061893E+02,      /* I =180 */
(PID.TID 0000.0001)                 1.628254580761615E+02,      /* I =181 */
(PID.TID 0000.0001)                 1.592943927048415E+02,      /* I =182 */
(PID.TID 0000.0001)                 1.559191460485302E+02,      /* I =183 */
(PID.TID 0000.0001)                 1.527165499179235E+02,      /* I =184 */
(PID.TID 0000.0001)                 1.497001816778676E+02,      /* I =185 */
(PID.TID 0000.0001)                 1.468812832533406E+02,      /* I =186 */
(PID.TID 0000.0001)                 1.442700437147871E+02,      /* I =187 */
(PID.TID 0000.0001)                 1.418773831978723E+02,      /* I =188 */
(PID.TID 0000.0001)                 1.397176767114393E+02,      /* I =189 */
(PID.TID 0000.0001)                 1.378136964251304E+02,      /* I =190 */
(PID.TID 0000.0001)                 1.362080546879630E+02,      /* I =191 */
(PID.TID 0000.0001)                 1.350000000000000E+02       /* I =192 */
(PID.TID 0000.0001)     ;
(PID.TID 0000.0001) ycoord =   /* P-point Y coord ( m - cartesian, degrees - spherical ) */
(PID.TID 0000.0001)                -3.497677942598243E+01,      /* J =  1 */
(PID.TID 0000.0001)                -3.374005967394886E+01,      /* J =  2 */
(PID.TID 0000.0001)                -3.220655175667454E+01,      /* J =  3 */
(PID.TID 0000.0001)                -3.045756348838641E+01,      /* J =  4 */
(PID.TID 0000.0001)                -2.853728129852918E+01,      /* J =  5 */
(PID.TID 0000.0001)                -2.647426640173173E+01,      /* J =  6 */
(PID.TID 0000.0001)                -2.428936657094636E+01,      /* J =  7 */
(PID.TID 0000.0001)                -2.199915808312262E+01,      /* J =  8 */
(PID.TID 0000.0001)                -1.961768597440146E+01,      /* J =  9 */
(PID.TID 0000.0001)                -1.715743888281371E+01,      /* J = 10 */
(PID.TID 0000.0001)                -1.462993396899330E+01,      /* J = 11 */
(PID.TID 0000.0001)                -1.204608340464756E+01,      /* J = 12 */
(PID.TID 0000.0001)                -9.416429130284818E+00,      /* J = 13 */
(PID.TID 0000.0001)                -6.751293662992216E+00,      /* J = 14 */
(PID.TID 0000.0001)                -4.060875511835959E+00,      /* J = 15 */
(PID.TID 0000.0001)                -1.355307764409121E+00,      /* J = 16 */
(PID.TID 0000.0001)                 1.355307764409121E+00,      /* J = 17 */
(PID.TID 0000.0001)                 4.060875511835959E+00,      /* J = 18 */
(PID.TID 0000.0001)                 6.751293662992216E+00,      /* J = 19 */
(PID.TID 0000.0001)                 9.416429130284818E+00,      /* J = 20 */
(PID.TID 0000.0001)                 1.204608340464756E+01,      /* J = 21 */
(PID.TID 0000.0001)                 1.462993396899330E+01,      /* J = 22 */
(PID.TID 0000.0001)                 1.715743888281371E+01,      /* J = 23 */
(PID.TID 0000.0001)                 1.961768597440146E+01,      /* J = 24 */
(PID.TID 0000.0001)                 2.199915808312262E+01,      /* J = 25 */
(PID.TID 0000.0001)                 2.428936657094636E+01,      /* J = 26 */
(PID.TID 0000.0001)                 2.647426640173173E+01,      /* J = 27 */
(PID.TID 0000.0001)                 2.853728129852918E+01,      /* J = 28 */
(PID.TID 0000.0001)                 3.045756348838641E+01,      /* J = 29 */
(PID.TID 0000.0001)                 3.220655175667454E+01,      /* J = 30 */
(PID.TID 0000.0001)                 3.374005967394886E+01,      /* J = 31 */
(PID.TID 0000.0001)                 3.497677942598243E+01       /* J = 32 */
(PID.TID 0000.0001)     ;
(PID.TID 0000.0001) rcoord =   /* P-point R coordinate (  units of r ) */
(PID.TID 0000.0001)                -2.500000000000000E+01,      /* K =  1 */
(PID.TID 0000.0001)                -8.500000000000000E+01,      /* K =  2 */
(PID.TID 0000.0001)                -1.700000000000000E+02,      /* K =  3 */
(PID.TID 0000.0001)                -2.900000000000000E+02,      /* K =  4 */
(PID.TID 0000.0001)                -4.550000000000000E+02,      /* K =  5 */
(PID.TID 0000.0001)                -6.700000000000000E+02,      /* K =  6 */
(PID.TID 0000.0001)                -9.350000000000000E+02,      /* K =  7 */
(PID.TID 0000.0001)                -1.250000000000000E+03,      /* K =  8 */
(PID.TID 0000.0001)                -1.615000000000000E+03,      /* K =  9 */
(PID.TID 0000.0001)                -2.030000000000000E+03,      /* K = 10 */
(PID.TID 0000.0001)                -2.495000000000000E+03,      /* K = 11 */
(PID.TID 0000.0001)                -3.010000000000000E+03,      /* K = 12 */
(PID.TID 0000.0001)                -3.575000000000000E+03,      /* K = 13 */
(PID.TID 0000.0001)                -4.190000000000000E+03,      /* K = 14 */
(PID.TID 0000.0001)                -4.855000000000000E+03       /* K = 15 */
(PID.TID 0000.0001)     ;
(PID.TID 0000.0001) rF =   /* W-Interf. R coordinate (  units of r ) */
(PID.TID 0000.0001)                 0.000000000000000E+00,      /* K =  1 */
(PID.TID 0000.0001)                -5.000000000000000E+01,      /* K =  2 */
(PID.TID 0000.0001)                -1.200000000000000E+02,      /* K =  3 */
(PID.TID 0000.0001)                -2.200000000000000E+02,      /* K =  4 */
(PID.TID 0000.0001)                -3.600000000000000E+02,      /* K =  5 */
(PID.TID 0000.0001)                -5.500000000000000E+02,      /* K =  6 */
(PID.TID 0000.0001)                -7.900000000000000E+02,      /* K =  7 */
(PID.TID 0000.0001)                -1.080000000000000E+03,      /* K =  8 */
(PID.TID 0000.0001)                -1.420000000000000E+03,      /* K =  9 */
(PID.TID 0000.0001)                -1.810000000000000E+03,      /* K = 10 */
(PID.TID 0000.0001)                -2.250000000000000E+03,      /* K = 11 */
(PID.TID 0000.0001)                -2.740000000000000E+03,      /* K = 12 */
(PID.TID 0000.0001)                -3.280000000000000E+03,      /* K = 13 */
(PID.TID 0000.0001)                -3.870000000000000E+03,      /* K = 14 */
(PID.TID 0000.0001)                -4.510000000000000E+03,      /* K = 15 */
(PID.TID 0000.0001)                -5.200000000000000E+03       /* K = 16 */
(PID.TID 0000.0001)     ;
(PID.TID 0000.0001) deepFacC = /* deep-model grid factor @ cell-Center (-) */
(PID.TID 0000.0001)    15 @  1.000000000000000E+00              /* K =  1: 15 */
(PID.TID 0000.0001)     ;
(PID.TID 0000.0001) deepFacF = /* deep-model grid factor @ W-Interface (-) */
(PID.TID 0000.0001)    16 @  1.000000000000000E+00              /* K =  1: 16 */
(PID.TID 0000.0001)     ;
(PID.TID 0000.0001) rVel2wUnit = /* convert units: rVel -> wSpeed (=1 if z-coord)*/
(PID.TID 0000.0001)    16 @  1.000000000000000E+00              /* K =  1: 16 */
(PID.TID 0000.0001)     ;
(PID.TID 0000.0001) wUnit2rVel = /* convert units: wSpeed -> rVel (=1 if z-coord)*/
(PID.TID 0000.0001)    16 @  1.000000000000000E+00              /* K =  1: 16 */
(PID.TID 0000.0001)     ;
(PID.TID 0000.0001) dBdrRef = /* Vertical gradient of reference boyancy [(m/s/r)^2)] */
(PID.TID 0000.0001)    15 @  0.000000000000000E+00              /* K =  1: 15 */
(PID.TID 0000.0001)     ;
(PID.TID 0000.0001) dxF =  /* dxF(:,1,:,1) ( units: m ) */
(PID.TID 0000.0001)                 1.202082051331828E+05,      /* I =  1 */
(PID.TID 0000.0001)                 1.563594089971120E+05,      /* I =  2 */
(PID.TID 0000.0001)                 1.835530058121492E+05,      /* I =  3 */
(PID.TID 0000.0001)                 2.045883481718707E+05,      /* I =  4 */
(PID.TID 0000.0001)                 2.218350349844185E+05,      /* I =  5 */
(PID.TID 0000.0001)                 2.364352994647058E+05,      /* I =  6 */
(PID.TID 0000.0001)                 2.490022710862746E+05,      /* I =  7 */
(PID.TID 0000.0001)                 2.598919724358304E+05,      /* I =  8 */
(PID.TID 0000.0001)                 2.693210245495156E+05,      /* I =  9 */
(PID.TID 0000.0001)                 2.774243179696503E+05,      /* I = 10 */
(PID.TID 0000.0001)                 2.842862532064524E+05,      /* I = 11 */
(PID.TID 0000.0001)                 2.899590699694043E+05,      /* I = 12 */
(PID.TID 0000.0001)                 2.944742915095688E+05,      /* I = 13 */
(PID.TID 0000.0001)                 2.978501920522794E+05,      /* I = 14 */
(PID.TID 0000.0001)                 3.000967749619962E+05,      /* I = 15 */
(PID.TID 0000.0001)     2 @  3.012190981969055E+05,             /* I = 16: 17 */
(PID.TID 0000.0001)                 3.000967749619962E+05,      /* I = 18 */
(PID.TID 0000.0001)                 2.978501920522794E+05,      /* I = 19 */
(PID.TID 0000.0001)                 2.944742915095688E+05,      /* I = 20 */
(PID.TID 0000.0001)                 2.899590699694043E+05,      /* I = 21 */
(PID.TID 0000.0001)                 2.842862532064524E+05,      /* I = 22 */
(PID.TID 0000.0001)                 2.774243179696503E+05,      /* I = 23 */
(PID.TID 0000.0001)                 2.693210245495156E+05,      /* I = 24 */
(PID.TID 0000.0001)                 2.598919724358304E+05,      /* I = 25 */
(PID.TID 0000.0001)                 2.490022710862746E+05,      /* I = 26 */
(PID.TID 0000.0001)                 2.364352994647058E+05,      /* I = 27 */
(PID.TID 0000.0001)                 2.218350349844185E+05,      /* I = 28 */
(PID.TID 0000.0001)                 2.045883481718707E+05,      /* I = 29 */
(PID.TID 0000.0001)                 1.835530058121492E+05,      /* I = 30 */
(PID.TID 0000.0001)                 1.563594089971120E+05,      /* I = 31 */
(PID.TID 0000.0001)     2 @  1.202082051331828E+05,             /* I = 32: 33 */
(PID.TID 0000.0001)                 1.563594089971120E+05,      /* I = 34 */
(PID.TID 0000.0001)                 1.835530058121492E+05,      /* I = 35 */
(PID.TID 0000.0001)                 2.045883481718707E+05,      /* I = 36 */
(PID.TID 0000.0001)                 2.218350349844185E+05,      /* I = 37 */
(PID.TID 0000.0001)                 2.364352994647058E+05,      /* I = 38 */
(PID.TID 0000.0001)                 2.490022710862746E+05,      /* I = 39 */
(PID.TID 0000.0001)                 2.598919724358304E+05,      /* I = 40 */
(PID.TID 0000.0001)                 2.693210245495156E+05,      /* I = 41 */
(PID.TID 0000.0001)                 2.774243179696503E+05,      /* I = 42 */
(PID.TID 0000.0001)                 2.842862532064524E+05,      /* I = 43 */
(PID.TID 0000.0001)                 2.899590699694043E+05,      /* I = 44 */
(PID.TID 0000.0001)                 2.944742915095688E+05,      /* I = 45 */
(PID.TID 0000.0001)                 2.978501920522794E+05,      /* I = 46 */
(PID.TID 0000.0001)                 3.000967749619962E+05,      /* I = 47 */
(PID.TID 0000.0001)     2 @  3.012190981969055E+05,             /* I = 48: 49 */
(PID.TID 0000.0001)                 3.000967749619962E+05,      /* I = 50 */
(PID.TID 0000.0001)                 2.978501920522794E+05,      /* I = 51 */
(PID.TID 0000.0001)                 2.944742915095688E+05,      /* I = 52 */
(PID.TID 0000.0001)                 2.899590699694043E+05,      /* I = 53 */
(PID.TID 0000.0001)                 2.842862532064524E+05,      /* I = 54 */
(PID.TID 0000.0001)                 2.774243179696503E+05,      /* I = 55 */
(PID.TID 0000.0001)                 2.693210245495156E+05,      /* I = 56 */
(PID.TID 0000.0001)                 2.598919724358304E+05,      /* I = 57 */
(PID.TID 0000.0001)                 2.490022710862746E+05,      /* I = 58 */
(PID.TID 0000.0001)                 2.364352994647058E+05,      /* I = 59 */
(PID.TID 0000.0001)                 2.218350349844185E+05,      /* I = 60 */
(PID.TID 0000.0001)                 2.045883481718707E+05,      /* I = 61 */
(PID.TID 0000.0001)                 1.835530058121492E+05,      /* I = 62 */
(PID.TID 0000.0001)                 1.563594089971120E+05,      /* I = 63 */
(PID.TID 0000.0001)     2 @  1.202082051331828E+05,             /* I = 64: 65 */
(PID.TID 0000.0001)                 1.563594089971120E+05,      /* I = 66 */
(PID.TID 0000.0001)                 1.835530058121492E+05,      /* I = 67 */
(PID.TID 0000.0001)                 2.045883481718707E+05,      /* I = 68 */
(PID.TID 0000.0001)                 2.218350349844185E+05,      /* I = 69 */
(PID.TID 0000.0001)                 2.364352994647058E+05,      /* I = 70 */
(PID.TID 0000.0001)                 2.490022710862746E+05,      /* I = 71 */
(PID.TID 0000.0001)                 2.598919724358304E+05,      /* I = 72 */
(PID.TID 0000.0001)                 2.693210245495156E+05,      /* I = 73 */
(PID.TID 0000.0001)                 2.774243179696503E+05,      /* I = 74 */
(PID.TID 0000.0001)                 2.842862532064524E+05,      /* I = 75 */
(PID.TID 0000.0001)                 2.899590699694043E+05,      /* I = 76 */
(PID.TID 0000.0001)                 2.944742915095688E+05,      /* I = 77 */
(PID.TID 0000.0001)                 2.978501920522794E+05,      /* I = 78 */
(PID.TID 0000.0001)                 3.000967749619962E+05,      /* I = 79 */
(PID.TID 0000.0001)     2 @  3.012190981969055E+05,             /* I = 80: 81 */
(PID.TID 0000.0001)                 3.000967749619962E+05,      /* I = 82 */
(PID.TID 0000.0001)                 2.978501920522794E+05,      /* I = 83 */
(PID.TID 0000.0001)                 2.944742915095688E+05,      /* I = 84 */
(PID.TID 0000.0001)                 2.899590699694043E+05,      /* I = 85 */
(PID.TID 0000.0001)                 2.842862532064524E+05,      /* I = 86 */
(PID.TID 0000.0001)                 2.774243179696503E+05,      /* I = 87 */
(PID.TID 0000.0001)                 2.693210245495156E+05,      /* I = 88 */
(PID.TID 0000.0001)                 2.598919724358304E+05,      /* I = 89 */
(PID.TID 0000.0001)                 2.490022710862746E+05,      /* I = 90 */
(PID.TID 0000.0001)                 2.364352994647058E+05,      /* I = 91 */
(PID.TID 0000.0001)                 2.218350349844185E+05,      /* I = 92 */
(PID.TID 0000.0001)                 2.045883481718707E+05,      /* I = 93 */
(PID.TID 0000.0001)                 1.835530058121492E+05,      /* I = 94 */
(PID.TID 0000.0001)                 1.563594089971120E+05,      /* I = 95 */
(PID.TID 0000.0001)     2 @  1.202082051331828E+05,             /* I = 96: 97 */
(PID.TID 0000.0001)                 1.563594089971120E+05,      /* I = 98 */
(PID.TID 0000.0001)                 1.835530058121492E+05,      /* I = 99 */
(PID.TID 0000.0001)                 2.045883481718707E+05,      /* I =100 */
(PID.TID 0000.0001)                 2.218350349844185E+05,      /* I =101 */
(PID.TID 0000.0001)                 2.364352994647058E+05,      /* I =102 */
(PID.TID 0000.0001)                 2.490022710862746E+05,      /* I =103 */
(PID.TID 0000.0001)                 2.598919724358304E+05,      /* I =104 */
(PID.TID 0000.0001)                 2.693210245495156E+05,      /* I =105 */
(PID.TID 0000.0001)                 2.774243179696503E+05,      /* I =106 */
(PID.TID 0000.0001)                 2.842862532064524E+05,      /* I =107 */
(PID.TID 0000.0001)                 2.899590699694043E+05,      /* I =108 */
(PID.TID 0000.0001)                 2.944742915095688E+05,      /* I =109 */
(PID.TID 0000.0001)                 2.978501920522794E+05,      /* I =110 */
(PID.TID 0000.0001)                 3.000967749619962E+05,      /* I =111 */
(PID.TID 0000.0001)     2 @  3.012190981969055E+05,             /* I =112:113 */
(PID.TID 0000.0001)                 3.000967749619962E+05,      /* I =114 */
(PID.TID 0000.0001)                 2.978501920522794E+05,      /* I =115 */
(PID.TID 0000.0001)                 2.944742915095688E+05,      /* I =116 */
(PID.TID 0000.0001)                 2.899590699694043E+05,      /* I =117 */
(PID.TID 0000.0001)                 2.842862532064524E+05,      /* I =118 */
(PID.TID 0000.0001)                 2.774243179696503E+05,      /* I =119 */
(PID.TID 0000.0001)                 2.693210245495156E+05,      /* I =120 */
(PID.TID 0000.0001)                 2.598919724358304E+05,      /* I =121 */
(PID.TID 0000.0001)                 2.490022710862746E+05,      /* I =122 */
(PID.TID 0000.0001)                 2.364352994647058E+05,      /* I =123 */
(PID.TID 0000.0001)                 2.218350349844185E+05,      /* I =124 */
(PID.TID 0000.0001)                 2.045883481718707E+05,      /* I =125 */
(PID.TID 0000.0001)                 1.835530058121492E+05,      /* I =126 */
(PID.TID 0000.0001)                 1.563594089971120E+05,      /* I =127 */
(PID.TID 0000.0001)     2 @  1.202082051331828E+05,             /* I =128:129 */
(PID.TID 0000.0001)                 1.563594089971120E+05,      /* I =130 */
(PID.TID 0000.0001)                 1.835530058121492E+05,      /* I =131 */
(PID.TID 0000.0001)                 2.045883481718707E+05,      /* I =132 */
(PID.TID 0000.0001)                 2.218350349844185E+05,      /* I =133 */
(PID.TID 0000.0001)                 2.364352994647058E+05,      /* I =134 */
(PID.TID 0000.0001)                 2.490022710862746E+05,      /* I =135 */
(PID.TID 0000.0001)                 2.598919724358304E+05,      /* I =136 */
(PID.TID 0000.0001)                 2.693210245495156E+05,      /* I =137 */
(PID.TID 0000.0001)                 2.774243179696503E+05,      /* I =138 */
(PID.TID 0000.0001)                 2.842862532064524E+05,      /* I =139 */
(PID.TID 0000.0001)                 2.899590699694043E+05,      /* I =140 */
(PID.TID 0000.0001)                 2.944742915095688E+05,      /* I =141 */
(PID.TID 0000.0001)                 2.978501920522794E+05,      /* I =142 */
(PID.TID 0000.0001)                 3.000967749619962E+05,      /* I =143 */
(PID.TID 0000.0001)     2 @  3.012190981969055E+05,             /* I =144:145 */
(PID.TID 0000.0001)                 3.000967749619962E+05,      /* I =146 */
(PID.TID 0000.0001)                 2.978501920522794E+05,      /* I =147 */
(PID.TID 0000.0001)                 2.944742915095688E+05,      /* I =148 */
(PID.TID 0000.0001)                 2.899590699694043E+05,      /* I =149 */
(PID.TID 0000.0001)                 2.842862532064524E+05,      /* I =150 */
(PID.TID 0000.0001)                 2.774243179696503E+05,      /* I =151 */
(PID.TID 0000.0001)                 2.693210245495156E+05,      /* I =152 */
(PID.TID 0000.0001)                 2.598919724358304E+05,      /* I =153 */
(PID.TID 0000.0001)                 2.490022710862746E+05,      /* I =154 */
(PID.TID 0000.0001)                 2.364352994647058E+05,      /* I =155 */
(PID.TID 0000.0001)                 2.218350349844185E+05,      /* I =156 */
(PID.TID 0000.0001)                 2.045883481718707E+05,      /* I =157 */
(PID.TID 0000.0001)                 1.835530058121492E+05,      /* I =158 */
(PID.TID 0000.0001)                 1.563594089971120E+05,      /* I =159 */
(PID.TID 0000.0001)     2 @  1.202082051331828E+05,             /* I =160:161 */
(PID.TID 0000.0001)                 1.563594089971120E+05,      /* I =162 */
(PID.TID 0000.0001)                 1.835530058121492E+05,      /* I =163 */
(PID.TID 0000.0001)                 2.045883481718707E+05,      /* I =164 */
(PID.TID 0000.0001)                 2.218350349844185E+05,      /* I =165 */
(PID.TID 0000.0001)                 2.364352994647058E+05,      /* I =166 */
(PID.TID 0000.0001)                 2.490022710862746E+05,      /* I =167 */
(PID.TID 0000.0001)                 2.598919724358304E+05,      /* I =168 */
(PID.TID 0000.0001)                 2.693210245495156E+05,      /* I =169 */
(PID.TID 0000.0001)                 2.774243179696503E+05,      /* I =170 */
(PID.TID 0000.0001)                 2.842862532064524E+05,      /* I =171 */
(PID.TID 0000.0001)                 2.899590699694043E+05,      /* I =172 */
(PID.TID 0000.0001)                 2.944742915095688E+05,      /* I =173 */
(PID.TID 0000.0001)                 2.978501920522794E+05,      /* I =174 */
(PID.TID 0000.0001)                 3.000967749619962E+05,      /* I =175 */
(PID.TID 0000.0001)     2 @  3.012190981969055E+05,             /* I =176:177 */
(PID.TID 0000.0001)                 3.000967749619962E+05,      /* I =178 */
(PID.TID 0000.0001)                 2.978501920522794E+05,      /* I =179 */
(PID.TID 0000.0001)                 2.944742915095688E+05,      /* I =180 */
(PID.TID 0000.0001)                 2.899590699694043E+05,      /* I =181 */
(PID.TID 0000.0001)                 2.842862532064524E+05,      /* I =182 */
(PID.TID 0000.0001)                 2.774243179696503E+05,      /* I =183 */
(PID.TID 0000.0001)                 2.693210245495156E+05,      /* I =184 */
(PID.TID 0000.0001)                 2.598919724358304E+05,      /* I =185 */
(PID.TID 0000.0001)                 2.490022710862746E+05,      /* I =186 */
(PID.TID 0000.0001)                 2.364352994647058E+05,      /* I =187 */
(PID.TID 0000.0001)                 2.218350349844185E+05,      /* I =188 */
(PID.TID 0000.0001)                 2.045883481718707E+05,      /* I =189 */
(PID.TID 0000.0001)                 1.835530058121492E+05,      /* I =190 */
(PID.TID 0000.0001)                 1.563594089971120E+05,      /* I =191 */
(PID.TID 0000.0001)                 1.202082051331828E+05       /* I =192 */
(PID.TID 0000.0001)     ;
(PID.TID 0000.0001) dxF =  /* dxF(1,:,1,:) ( units: m ) */
(PID.TID 0000.0001)                 1.202082051331828E+05,      /* J =  1 */
(PID.TID 0000.0001)                 1.572908084538706E+05,      /* J =  2 */
(PID.TID 0000.0001)                 1.840412227747703E+05,      /* J =  3 */
(PID.TID 0000.0001)                 2.048868197919576E+05,      /* J =  4 */
(PID.TID 0000.0001)                 2.220405216043041E+05,      /* J =  5 */
(PID.TID 0000.0001)                 2.365892017348392E+05,      /* J =  6 */
(PID.TID 0000.0001)                 2.491250781852558E+05,      /* J =  7 */
(PID.TID 0000.0001)                 2.599949918261881E+05,      /* J =  8 */
(PID.TID 0000.0001)                 2.694110134598581E+05,      /* J =  9 */
(PID.TID 0000.0001)                 2.775055554645015E+05,      /* J = 10 */
(PID.TID 0000.0001)                 2.843615645344775E+05,      /* J = 11 */
(PID.TID 0000.0001)                 2.900303768613599E+05,      /* J = 12 */
(PID.TID 0000.0001)                 2.945429307892709E+05,      /* J = 13 */
(PID.TID 0000.0001)                 2.979171143158405E+05,      /* J = 14 */
(PID.TID 0000.0001)                 3.001626787528886E+05,      /* J = 15 */
(PID.TID 0000.0001)     2 @  3.012844832048790E+05,             /* J = 16: 17 */
(PID.TID 0000.0001)                 3.001626787528886E+05,      /* J = 18 */
(PID.TID 0000.0001)                 2.979171143158405E+05,      /* J = 19 */
(PID.TID 0000.0001)                 2.945429307892709E+05,      /* J = 20 */
(PID.TID 0000.0001)                 2.900303768613599E+05,      /* J = 21 */
(PID.TID 0000.0001)                 2.843615645344775E+05,      /* J = 22 */
(PID.TID 0000.0001)                 2.775055554645015E+05,      /* J = 23 */
(PID.TID 0000.0001)                 2.694110134598581E+05,      /* J = 24 */
(PID.TID 0000.0001)                 2.599949918261881E+05,      /* J = 25 */
(PID.TID 0000.0001)                 2.491250781852558E+05,      /* J = 26 */
(PID.TID 0000.0001)                 2.365892017348392E+05,      /* J = 27 */
(PID.TID 0000.0001)                 2.220405216043041E+05,      /* J = 28 */
(PID.TID 0000.0001)                 2.048868197919576E+05,      /* J = 29 */
(PID.TID 0000.0001)                 1.840412227747703E+05,      /* J = 30 */
(PID.TID 0000.0001)                 1.572908084538706E+05,      /* J = 31 */
(PID.TID 0000.0001)                 1.202082051331828E+05       /* J = 32 */
(PID.TID 0000.0001)     ;
(PID.TID 0000.0001) dyF =  /* dyF(:,1,:,1) ( units: m ) */
(PID.TID 0000.0001)                 1.202082051331828E+05,      /* I =  1 */
(PID.TID 0000.0001)                 1.572908084538706E+05,      /* I =  2 */
(PID.TID 0000.0001)                 1.840412227747703E+05,      /* I =  3 */
(PID.TID 0000.0001)                 2.048868197919576E+05,      /* I =  4 */
(PID.TID 0000.0001)                 2.220405216043041E+05,      /* I =  5 */
(PID.TID 0000.0001)                 2.365892017348392E+05,      /* I =  6 */
(PID.TID 0000.0001)                 2.491250781852558E+05,      /* I =  7 */
(PID.TID 0000.0001)                 2.599949918261881E+05,      /* I =  8 */
(PID.TID 0000.0001)                 2.694110134598581E+05,      /* I =  9 */
(PID.TID 0000.0001)                 2.775055554645015E+05,      /* I = 10 */
(PID.TID 0000.0001)                 2.843615645344775E+05,      /* I = 11 */
(PID.TID 0000.0001)                 2.900303768613599E+05,      /* I = 12 */
(PID.TID 0000.0001)                 2.945429307892709E+05,      /* I = 13 */
(PID.TID 0000.0001)                 2.979171143158405E+05,      /* I = 14 */
(PID.TID 0000.0001)                 3.001626787528886E+05,      /* I = 15 */
(PID.TID 0000.0001)     2 @  3.012844832048790E+05,             /* I = 16: 17 */
(PID.TID 0000.0001)                 3.001626787528886E+05,      /* I = 18 */
(PID.TID 0000.0001)                 2.979171143158405E+05,      /* I = 19 */
(PID.TID 0000.0001)                 2.945429307892709E+05,      /* I = 20 */
(PID.TID 0000.0001)                 2.900303768613599E+05,      /* I = 21 */
(PID.TID 0000.0001)                 2.843615645344775E+05,      /* I = 22 */
(PID.TID 0000.0001)                 2.775055554645015E+05,      /* I = 23 */
(PID.TID 0000.0001)                 2.694110134598581E+05,      /* I = 24 */
(PID.TID 0000.0001)                 2.599949918261881E+05,      /* I = 25 */
(PID.TID 0000.0001)                 2.491250781852558E+05,      /* I = 26 */
(PID.TID 0000.0001)                 2.365892017348392E+05,      /* I = 27 */
(PID.TID 0000.0001)                 2.220405216043041E+05,      /* I = 28 */
(PID.TID 0000.0001)                 2.048868197919576E+05,      /* I = 29 */
(PID.TID 0000.0001)                 1.840412227747703E+05,      /* I = 30 */
(PID.TID 0000.0001)                 1.572908084538706E+05,      /* I = 31 */
(PID.TID 0000.0001)     2 @  1.202082051331828E+05,             /* I = 32: 33 */
(PID.TID 0000.0001)                 1.572908084538706E+05,      /* I = 34 */
(PID.TID 0000.0001)                 1.840412227747703E+05,      /* I = 35 */
(PID.TID 0000.0001)                 2.048868197919576E+05,      /* I = 36 */
(PID.TID 0000.0001)                 2.220405216043041E+05,      /* I = 37 */
(PID.TID 0000.0001)                 2.365892017348392E+05,      /* I = 38 */
(PID.TID 0000.0001)                 2.491250781852558E+05,      /* I = 39 */
(PID.TID 0000.0001)                 2.599949918261881E+05,      /* I = 40 */
(PID.TID 0000.0001)                 2.694110134598581E+05,      /* I = 41 */
(PID.TID 0000.0001)                 2.775055554645015E+05,      /* I = 42 */
(PID.TID 0000.0001)                 2.843615645344775E+05,      /* I = 43 */
(PID.TID 0000.0001)                 2.900303768613599E+05,      /* I = 44 */
(PID.TID 0000.0001)                 2.945429307892709E+05,      /* I = 45 */
(PID.TID 0000.0001)                 2.979171143158405E+05,      /* I = 46 */
(PID.TID 0000.0001)                 3.001626787528886E+05,      /* I = 47 */
(PID.TID 0000.0001)     2 @  3.012844832048790E+05,             /* I = 48: 49 */
(PID.TID 0000.0001)                 3.001626787528886E+05,      /* I = 50 */
(PID.TID 0000.0001)                 2.979171143158405E+05,      /* I = 51 */
(PID.TID 0000.0001)                 2.945429307892709E+05,      /* I = 52 */
(PID.TID 0000.0001)                 2.900303768613599E+05,      /* I = 53 */
(PID.TID 0000.0001)                 2.843615645344775E+05,      /* I = 54 */
(PID.TID 0000.0001)                 2.775055554645015E+05,      /* I = 55 */
(PID.TID 0000.0001)                 2.694110134598581E+05,      /* I = 56 */
(PID.TID 0000.0001)                 2.599949918261881E+05,      /* I = 57 */
(PID.TID 0000.0001)                 2.491250781852558E+05,      /* I = 58 */
(PID.TID 0000.0001)                 2.365892017348392E+05,      /* I = 59 */
(PID.TID 0000.0001)                 2.220405216043041E+05,      /* I = 60 */
(PID.TID 0000.0001)                 2.048868197919576E+05,      /* I = 61 */
(PID.TID 0000.0001)                 1.840412227747703E+05,      /* I = 62 */
(PID.TID 0000.0001)                 1.572908084538706E+05,      /* I = 63 */
(PID.TID 0000.0001)     2 @  1.202082051331828E+05,             /* I = 64: 65 */
(PID.TID 0000.0001)                 1.572908084538706E+05,      /* I = 66 */
(PID.TID 0000.0001)                 1.840412227747703E+05,      /* I = 67 */
(PID.TID 0000.0001)                 2.048868197919576E+05,      /* I = 68 */
(PID.TID 0000.0001)                 2.220405216043041E+05,      /* I = 69 */
(PID.TID 0000.0001)                 2.365892017348392E+05,      /* I = 70 */
(PID.TID 0000.0001)                 2.491250781852558E+05,      /* I = 71 */
(PID.TID 0000.0001)                 2.599949918261881E+05,      /* I = 72 */
(PID.TID 0000.0001)                 2.694110134598581E+05,      /* I = 73 */
(PID.TID 0000.0001)                 2.775055554645015E+05,      /* I = 74 */
(PID.TID 0000.0001)                 2.843615645344775E+05,      /* I = 75 */
(PID.TID 0000.0001)                 2.900303768613599E+05,      /* I = 76 */
(PID.TID 0000.0001)                 2.945429307892709E+05,      /* I = 77 */
(PID.TID 0000.0001)                 2.979171143158405E+05,      /* I = 78 */
(PID.TID 0000.0001)                 3.001626787528886E+05,      /* I = 79 */
(PID.TID 0000.0001)     2 @  3.012844832048790E+05,             /* I = 80: 81 */
(PID.TID 0000.0001)                 3.001626787528886E+05,      /* I = 82 */
(PID.TID 0000.0001)                 2.979171143158405E+05,      /* I = 83 */
(PID.TID 0000.0001)                 2.945429307892709E+05,      /* I = 84 */
(PID.TID 0000.0001)                 2.900303768613599E+05,      /* I = 85 */
(PID.TID 0000.0001)                 2.843615645344775E+05,      /* I = 86 */
(PID.TID 0000.0001)                 2.775055554645015E+05,      /* I = 87 */
(PID.TID 0000.0001)                 2.694110134598581E+05,      /* I = 88 */
(PID.TID 0000.0001)                 2.599949918261881E+05,      /* I = 89 */
(PID.TID 0000.0001)                 2.491250781852558E+05,      /* I = 90 */
(PID.TID 0000.0001)                 2.365892017348392E+05,      /* I = 91 */
(PID.TID 0000.0001)                 2.220405216043041E+05,      /* I = 92 */
(PID.TID 0000.0001)                 2.048868197919576E+05,      /* I = 93 */
(PID.TID 0000.0001)                 1.840412227747703E+05,      /* I = 94 */
(PID.TID 0000.0001)                 1.572908084538706E+05,      /* I = 95 */
(PID.TID 0000.0001)     2 @  1.202082051331828E+05,             /* I = 96: 97 */
(PID.TID 0000.0001)                 1.572908084538706E+05,      /* I = 98 */
(PID.TID 0000.0001)                 1.840412227747703E+05,      /* I = 99 */
(PID.TID 0000.0001)                 2.048868197919576E+05,      /* I =100 */
(PID.TID 0000.0001)                 2.220405216043041E+05,      /* I =101 */
(PID.TID 0000.0001)                 2.365892017348392E+05,      /* I =102 */
(PID.TID 0000.0001)                 2.491250781852558E+05,      /* I =103 */
(PID.TID 0000.0001)                 2.599949918261881E+05,      /* I =104 */
(PID.TID 0000.0001)                 2.694110134598581E+05,      /* I =105 */
(PID.TID 0000.0001)                 2.775055554645015E+05,      /* I =106 */
(PID.TID 0000.0001)                 2.843615645344775E+05,      /* I =107 */
(PID.TID 0000.0001)                 2.900303768613599E+05,      /* I =108 */
(PID.TID 0000.0001)                 2.945429307892709E+05,      /* I =109 */
(PID.TID 0000.0001)                 2.979171143158405E+05,      /* I =110 */
(PID.TID 0000.0001)                 3.001626787528886E+05,      /* I =111 */
(PID.TID 0000.0001)     2 @  3.012844832048790E+05,             /* I =112:113 */
(PID.TID 0000.0001)                 3.001626787528886E+05,      /* I =114 */
(PID.TID 0000.0001)                 2.979171143158405E+05,      /* I =115 */
(PID.TID 0000.0001)                 2.945429307892709E+05,      /* I =116 */
(PID.TID 0000.0001)                 2.900303768613599E+05,      /* I =117 */
(PID.TID 0000.0001)                 2.843615645344775E+05,      /* I =118 */
(PID.TID 0000.0001)                 2.775055554645015E+05,      /* I =119 */
(PID.TID 0000.0001)                 2.694110134598581E+05,      /* I =120 */
(PID.TID 0000.0001)                 2.599949918261881E+05,      /* I =121 */
(PID.TID 0000.0001)                 2.491250781852558E+05,      /* I =122 */
(PID.TID 0000.0001)                 2.365892017348392E+05,      /* I =123 */
(PID.TID 0000.0001)                 2.220405216043041E+05,      /* I =124 */
(PID.TID 0000.0001)                 2.048868197919576E+05,      /* I =125 */
(PID.TID 0000.0001)                 1.840412227747703E+05,      /* I =126 */
(PID.TID 0000.0001)                 1.572908084538706E+05,      /* I =127 */
(PID.TID 0000.0001)     2 @  1.202082051331828E+05,             /* I =128:129 */
(PID.TID 0000.0001)                 1.572908084538706E+05,      /* I =130 */
(PID.TID 0000.0001)                 1.840412227747703E+05,      /* I =131 */
(PID.TID 0000.0001)                 2.048868197919576E+05,      /* I =132 */
(PID.TID 0000.0001)                 2.220405216043041E+05,      /* I =133 */
(PID.TID 0000.0001)                 2.365892017348392E+05,      /* I =134 */
(PID.TID 0000.0001)                 2.491250781852558E+05,      /* I =135 */
(PID.TID 0000.0001)                 2.599949918261881E+05,      /* I =136 */
(PID.TID 0000.0001)                 2.694110134598581E+05,      /* I =137 */
(PID.TID 0000.0001)                 2.775055554645015E+05,      /* I =138 */
(PID.TID 0000.0001)                 2.843615645344775E+05,      /* I =139 */
(PID.TID 0000.0001)                 2.900303768613599E+05,      /* I =140 */
(PID.TID 0000.0001)                 2.945429307892709E+05,      /* I =141 */
(PID.TID 0000.0001)                 2.979171143158405E+05,      /* I =142 */
(PID.TID 0000.0001)                 3.001626787528886E+05,      /* I =143 */
(PID.TID 0000.0001)     2 @  3.012844832048790E+05,             /* I =144:145 */
(PID.TID 0000.0001)                 3.001626787528886E+05,      /* I =146 */
(PID.TID 0000.0001)                 2.979171143158405E+05,      /* I =147 */
(PID.TID 0000.0001)                 2.945429307892709E+05,      /* I =148 */
(PID.TID 0000.0001)                 2.900303768613599E+05,      /* I =149 */
(PID.TID 0000.0001)                 2.843615645344775E+05,      /* I =150 */
(PID.TID 0000.0001)                 2.775055554645015E+05,      /* I =151 */
(PID.TID 0000.0001)                 2.694110134598581E+05,      /* I =152 */
(PID.TID 0000.0001)                 2.599949918261881E+05,      /* I =153 */
(PID.TID 0000.0001)                 2.491250781852558E+05,      /* I =154 */
(PID.TID 0000.0001)                 2.365892017348392E+05,      /* I =155 */
(PID.TID 0000.0001)                 2.220405216043041E+05,      /* I =156 */
(PID.TID 0000.0001)                 2.048868197919576E+05,      /* I =157 */
(PID.TID 0000.0001)                 1.840412227747703E+05,      /* I =158 */
(PID.TID 0000.0001)                 1.572908084538706E+05,      /* I =159 */
(PID.TID 0000.0001)     2 @  1.202082051331828E+05,             /* I =160:161 */
(PID.TID 0000.0001)                 1.572908084538706E+05,      /* I =162 */
(PID.TID 0000.0001)                 1.840412227747703E+05,      /* I =163 */
(PID.TID 0000.0001)                 2.048868197919576E+05,      /* I =164 */
(PID.TID 0000.0001)                 2.220405216043041E+05,      /* I =165 */
(PID.TID 0000.0001)                 2.365892017348392E+05,      /* I =166 */
(PID.TID 0000.0001)                 2.491250781852558E+05,      /* I =167 */
(PID.TID 0000.0001)                 2.599949918261881E+05,      /* I =168 */
(PID.TID 0000.0001)                 2.694110134598581E+05,      /* I =169 */
(PID.TID 0000.0001)                 2.775055554645015E+05,      /* I =170 */
(PID.TID 0000.0001)                 2.843615645344775E+05,      /* I =171 */
(PID.TID 0000.0001)                 2.900303768613599E+05,      /* I =172 */
(PID.TID 0000.0001)                 2.945429307892709E+05,      /* I =173 */
(PID.TID 0000.0001)                 2.979171143158405E+05,      /* I =174 */
(PID.TID 0000.0001)                 3.001626787528886E+05,      /* I =175 */
(PID.TID 0000.0001)     2 @  3.012844832048790E+05,             /* I =176:177 */
(PID.TID 0000.0001)                 3.001626787528886E+05,      /* I =178 */
(PID.TID 0000.0001)                 2.979171143158405E+05,      /* I =179 */
(PID.TID 0000.0001)                 2.945429307892709E+05,      /* I =180 */
(PID.TID 0000.0001)                 2.900303768613599E+05,      /* I =181 */
(PID.TID 0000.0001)                 2.843615645344775E+05,      /* I =182 */
(PID.TID 0000.0001)                 2.775055554645015E+05,      /* I =183 */
(PID.TID 0000.0001)                 2.694110134598581E+05,      /* I =184 */
(PID.TID 0000.0001)                 2.599949918261881E+05,      /* I =185 */
(PID.TID 0000.0001)                 2.491250781852558E+05,      /* I =186 */
(PID.TID 0000.0001)                 2.365892017348392E+05,      /* I =187 */
(PID.TID 0000.0001)                 2.220405216043041E+05,      /* I =188 */
(PID.TID 0000.0001)                 2.048868197919576E+05,      /* I =189 */
(PID.TID 0000.0001)                 1.840412227747703E+05,      /* I =190 */
(PID.TID 0000.0001)                 1.572908084538706E+05,      /* I =191 */
(PID.TID 0000.0001)                 1.202082051331828E+05       /* I =192 */
(PID.TID 0000.0001)     ;
(PID.TID 0000.0001) dyF =  /* dyF(1,:,1,:) ( units: m ) */
(PID.TID 0000.0001)                 1.202082051331828E+05,      /* J =  1 */
(PID.TID 0000.0001)                 1.563594089971120E+05,      /* J =  2 */
(PID.TID 0000.0001)                 1.835530058121492E+05,      /* J =  3 */
(PID.TID 0000.0001)                 2.045883481718707E+05,      /* J =  4 */
(PID.TID 0000.0001)                 2.218350349844185E+05,      /* J =  5 */
(PID.TID 0000.0001)                 2.364352994647058E+05,      /* J =  6 */
(PID.TID 0000.0001)                 2.490022710862746E+05,      /* J =  7 */
(PID.TID 0000.0001)                 2.598919724358304E+05,      /* J =  8 */
(PID.TID 0000.0001)                 2.693210245495156E+05,      /* J =  9 */
(PID.TID 0000.0001)                 2.774243179696503E+05,      /* J = 10 */
(PID.TID 0000.0001)                 2.842862532064524E+05,      /* J = 11 */
(PID.TID 0000.0001)                 2.899590699694043E+05,      /* J = 12 */
(PID.TID 0000.0001)                 2.944742915095688E+05,      /* J = 13 */
(PID.TID 0000.0001)                 2.978501920522794E+05,      /* J = 14 */
(PID.TID 0000.0001)                 3.000967749619962E+05,      /* J = 15 */
(PID.TID 0000.0001)     2 @  3.012190981969055E+05,             /* J = 16: 17 */
(PID.TID 0000.0001)                 3.000967749619962E+05,      /* J = 18 */
(PID.TID 0000.0001)                 2.978501920522794E+05,      /* J = 19 */
(PID.TID 0000.0001)                 2.944742915095688E+05,      /* J = 20 */
(PID.TID 0000.0001)                 2.899590699694043E+05,      /* J = 21 */
(PID.TID 0000.0001)                 2.842862532064524E+05,      /* J = 22 */
(PID.TID 0000.0001)                 2.774243179696503E+05,      /* J = 23 */
(PID.TID 0000.0001)                 2.693210245495156E+05,      /* J = 24 */
(PID.TID 0000.0001)                 2.598919724358304E+05,      /* J = 25 */
(PID.TID 0000.0001)                 2.490022710862746E+05,      /* J = 26 */
(PID.TID 0000.0001)                 2.364352994647058E+05,      /* J = 27 */
(PID.TID 0000.0001)                 2.218350349844185E+05,      /* J = 28 */
(PID.TID 0000.0001)                 2.045883481718707E+05,      /* J = 29 */
(PID.TID 0000.0001)                 1.835530058121492E+05,      /* J = 30 */
(PID.TID 0000.0001)                 1.563594089971120E+05,      /* J = 31 */
(PID.TID 0000.0001)                 1.202082051331828E+05       /* J = 32 */
(PID.TID 0000.0001)     ;
(PID.TID 0000.0001) dxG =  /* dxG(:,1,:,1) ( units: m ) */
(PID.TID 0000.0001)                 1.009837800879055E+05,      /* I =  1 */
(PID.TID 0000.0001)                 1.534505834330338E+05,      /* I =  2 */
(PID.TID 0000.0001)                 1.823321598773926E+05,      /* I =  3 */
(PID.TID 0000.0001)                 2.038999045536999E+05,      /* I =  4 */
(PID.TID 0000.0001)                 2.213884732245467E+05,      /* I =  5 */
(PID.TID 0000.0001)                 2.361211699596122E+05,      /* I =  6 */
(PID.TID 0000.0001)                 2.487693460283865E+05,      /* I =  7 */
(PID.TID 0000.0001)                 2.597126963772147E+05,      /* I =  8 */
(PID.TID 0000.0001)                 2.691790288994575E+05,      /* I =  9 */
(PID.TID 0000.0001)                 2.773091043277394E+05,      /* I = 10 */
(PID.TID 0000.0001)                 2.841906470085516E+05,      /* I = 11 */
(PID.TID 0000.0001)                 2.898778860929753E+05,      /* I = 12 */
(PID.TID 0000.0001)                 2.944035815526416E+05,      /* I = 13 */
(PID.TID 0000.0001)                 2.977867909042096E+05,      /* I = 14 */
(PID.TID 0000.0001)                 3.000380090330854E+05,      /* I = 15 */
(PID.TID 0000.0001)     2 @  3.011625828699101E+05,             /* I = 16: 17 */
(PID.TID 0000.0001)                 3.000380090330854E+05,      /* I = 18 */
(PID.TID 0000.0001)                 2.977867909042096E+05,      /* I = 19 */
(PID.TID 0000.0001)                 2.944035815526416E+05,      /* I = 20 */
(PID.TID 0000.0001)                 2.898778860929753E+05,      /* I = 21 */
(PID.TID 0000.0001)                 2.841906470085516E+05,      /* I = 22 */
(PID.TID 0000.0001)                 2.773091043277394E+05,      /* I = 23 */
(PID.TID 0000.0001)                 2.691790288994575E+05,      /* I = 24 */
(PID.TID 0000.0001)                 2.597126963772147E+05,      /* I = 25 */
(PID.TID 0000.0001)                 2.487693460283865E+05,      /* I = 26 */
(PID.TID 0000.0001)                 2.361211699596122E+05,      /* I = 27 */
(PID.TID 0000.0001)                 2.213884732245467E+05,      /* I = 28 */
(PID.TID 0000.0001)                 2.038999045536999E+05,      /* I = 29 */
(PID.TID 0000.0001)                 1.823321598773926E+05,      /* I = 30 */
(PID.TID 0000.0001)                 1.534505834330338E+05,      /* I = 31 */
(PID.TID 0000.0001)     2 @  1.009837800879055E+05,             /* I = 32: 33 */
(PID.TID 0000.0001)                 1.534505834330338E+05,      /* I = 34 */
(PID.TID 0000.0001)                 1.823321598773926E+05,      /* I = 35 */
(PID.TID 0000.0001)                 2.038999045536999E+05,      /* I = 36 */
(PID.TID 0000.0001)                 2.213884732245467E+05,      /* I = 37 */
(PID.TID 0000.0001)                 2.361211699596122E+05,      /* I = 38 */
(PID.TID 0000.0001)                 2.487693460283865E+05,      /* I = 39 */
(PID.TID 0000.0001)                 2.597126963772147E+05,      /* I = 40 */
(PID.TID 0000.0001)                 2.691790288994575E+05,      /* I = 41 */
(PID.TID 0000.0001)                 2.773091043277394E+05,      /* I = 42 */
(PID.TID 0000.0001)                 2.841906470085516E+05,      /* I = 43 */
(PID.TID 0000.0001)                 2.898778860929753E+05,      /* I = 44 */
(PID.TID 0000.0001)                 2.944035815526416E+05,      /* I = 45 */
(PID.TID 0000.0001)                 2.977867909042096E+05,      /* I = 46 */
(PID.TID 0000.0001)                 3.000380090330854E+05,      /* I = 47 */
(PID.TID 0000.0001)     2 @  3.011625828699101E+05,             /* I = 48: 49 */
(PID.TID 0000.0001)                 3.000380090330854E+05,      /* I = 50 */
(PID.TID 0000.0001)                 2.977867909042096E+05,      /* I = 51 */
(PID.TID 0000.0001)                 2.944035815526416E+05,      /* I = 52 */
(PID.TID 0000.0001)                 2.898778860929753E+05,      /* I = 53 */
(PID.TID 0000.0001)                 2.841906470085516E+05,      /* I = 54 */
(PID.TID 0000.0001)                 2.773091043277394E+05,      /* I = 55 */
(PID.TID 0000.0001)                 2.691790288994575E+05,      /* I = 56 */
(PID.TID 0000.0001)                 2.597126963772147E+05,      /* I = 57 */
(PID.TID 0000.0001)                 2.487693460283865E+05,      /* I = 58 */
(PID.TID 0000.0001)                 2.361211699596122E+05,      /* I = 59 */
(PID.TID 0000.0001)                 2.213884732245467E+05,      /* I = 60 */
(PID.TID 0000.0001)                 2.038999045536999E+05,      /* I = 61 */
(PID.TID 0000.0001)                 1.823321598773926E+05,      /* I = 62 */
(PID.TID 0000.0001)                 1.534505834330338E+05,      /* I = 63 */
(PID.TID 0000.0001)     2 @  1.009837800879055E+05,             /* I = 64: 65 */
(PID.TID 0000.0001)                 1.534505834330338E+05,      /* I = 66 */
(PID.TID 0000.0001)                 1.823321598773926E+05,      /* I = 67 */
(PID.TID 0000.0001)                 2.038999045536999E+05,      /* I = 68 */
(PID.TID 0000.0001)                 2.213884732245467E+05,      /* I = 69 */
(PID.TID 0000.0001)                 2.361211699596122E+05,      /* I = 70 */
(PID.TID 0000.0001)                 2.487693460283865E+05,      /* I = 71 */
(PID.TID 0000.0001)                 2.597126963772147E+05,      /* I = 72 */
(PID.TID 0000.0001)                 2.691790288994575E+05,      /* I = 73 */
(PID.TID 0000.0001)                 2.773091043277394E+05,      /* I = 74 */
(PID.TID 0000.0001)                 2.841906470085516E+05,      /* I = 75 */
(PID.TID 0000.0001)                 2.898778860929753E+05,      /* I = 76 */
(PID.TID 0000.0001)                 2.944035815526416E+05,      /* I = 77 */
(PID.TID 0000.0001)                 2.977867909042096E+05,      /* I = 78 */
(PID.TID 0000.0001)                 3.000380090330854E+05,      /* I = 79 */
(PID.TID 0000.0001)     2 @  3.011625828699101E+05,             /* I = 80: 81 */
(PID.TID 0000.0001)                 3.000380090330854E+05,      /* I = 82 */
(PID.TID 0000.0001)                 2.977867909042096E+05,      /* I = 83 */
(PID.TID 0000.0001)                 2.944035815526416E+05,      /* I = 84 */
(PID.TID 0000.0001)                 2.898778860929753E+05,      /* I = 85 */
(PID.TID 0000.0001)                 2.841906470085516E+05,      /* I = 86 */
(PID.TID 0000.0001)                 2.773091043277394E+05,      /* I = 87 */
(PID.TID 0000.0001)                 2.691790288994575E+05,      /* I = 88 */
(PID.TID 0000.0001)                 2.597126963772147E+05,      /* I = 89 */
(PID.TID 0000.0001)                 2.487693460283865E+05,      /* I = 90 */
(PID.TID 0000.0001)                 2.361211699596122E+05,      /* I = 91 */
(PID.TID 0000.0001)                 2.213884732245467E+05,      /* I = 92 */
(PID.TID 0000.0001)                 2.038999045536999E+05,      /* I = 93 */
(PID.TID 0000.0001)                 1.823321598773926E+05,      /* I = 94 */
(PID.TID 0000.0001)                 1.534505834330338E+05,      /* I = 95 */
(PID.TID 0000.0001)     2 @  1.009837800879055E+05,             /* I = 96: 97 */
(PID.TID 0000.0001)                 1.534505834330338E+05,      /* I = 98 */
(PID.TID 0000.0001)                 1.823321598773926E+05,      /* I = 99 */
(PID.TID 0000.0001)                 2.038999045536999E+05,      /* I =100 */
(PID.TID 0000.0001)                 2.213884732245467E+05,      /* I =101 */
(PID.TID 0000.0001)                 2.361211699596122E+05,      /* I =102 */
(PID.TID 0000.0001)                 2.487693460283865E+05,      /* I =103 */
(PID.TID 0000.0001)                 2.597126963772147E+05,      /* I =104 */
(PID.TID 0000.0001)                 2.691790288994575E+05,      /* I =105 */
(PID.TID 0000.0001)                 2.773091043277394E+05,      /* I =106 */
(PID.TID 0000.0001)                 2.841906470085516E+05,      /* I =107 */
(PID.TID 0000.0001)                 2.898778860929753E+05,      /* I =108 */
(PID.TID 0000.0001)                 2.944035815526416E+05,      /* I =109 */
(PID.TID 0000.0001)                 2.977867909042096E+05,      /* I =110 */
(PID.TID 0000.0001)                 3.000380090330854E+05,      /* I =111 */
(PID.TID 0000.0001)     2 @  3.011625828699101E+05,             /* I =112:113 */
(PID.TID 0000.0001)                 3.000380090330854E+05,      /* I =114 */
(PID.TID 0000.0001)                 2.977867909042096E+05,      /* I =115 */
(PID.TID 0000.0001)                 2.944035815526416E+05,      /* I =116 */
(PID.TID 0000.0001)                 2.898778860929753E+05,      /* I =117 */
(PID.TID 0000.0001)                 2.841906470085516E+05,      /* I =118 */
(PID.TID 0000.0001)                 2.773091043277394E+05,      /* I =119 */
(PID.TID 0000.0001)                 2.691790288994575E+05,      /* I =120 */
(PID.TID 0000.0001)                 2.597126963772147E+05,      /* I =121 */
(PID.TID 0000.0001)                 2.487693460283865E+05,      /* I =122 */
(PID.TID 0000.0001)                 2.361211699596122E+05,      /* I =123 */
(PID.TID 0000.0001)                 2.213884732245467E+05,      /* I =124 */
(PID.TID 0000.0001)                 2.038999045536999E+05,      /* I =125 */
(PID.TID 0000.0001)                 1.823321598773926E+05,      /* I =126 */
(PID.TID 0000.0001)                 1.534505834330338E+05,      /* I =127 */
(PID.TID 0000.0001)     2 @  1.009837800879055E+05,             /* I =128:129 */
(PID.TID 0000.0001)                 1.534505834330338E+05,      /* I =130 */
(PID.TID 0000.0001)                 1.823321598773926E+05,      /* I =131 */
(PID.TID 0000.0001)                 2.038999045536999E+05,      /* I =132 */
(PID.TID 0000.0001)                 2.213884732245467E+05,      /* I =133 */
(PID.TID 0000.0001)                 2.361211699596122E+05,      /* I =134 */
(PID.TID 0000.0001)                 2.487693460283865E+05,      /* I =135 */
(PID.TID 0000.0001)                 2.597126963772147E+05,      /* I =136 */
(PID.TID 0000.0001)                 2.691790288994575E+05,      /* I =137 */
(PID.TID 0000.0001)                 2.773091043277394E+05,      /* I =138 */
(PID.TID 0000.0001)                 2.841906470085516E+05,      /* I =139 */
(PID.TID 0000.0001)                 2.898778860929753E+05,      /* I =140 */
(PID.TID 0000.0001)                 2.944035815526416E+05,      /* I =141 */
(PID.TID 0000.0001)                 2.977867909042096E+05,      /* I =142 */
(PID.TID 0000.0001)                 3.000380090330854E+05,      /* I =143 */
(PID.TID 0000.0001)     2 @  3.011625828699101E+05,             /* I =144:145 */
(PID.TID 0000.0001)                 3.000380090330854E+05,      /* I =146 */
(PID.TID 0000.0001)                 2.977867909042096E+05,      /* I =147 */
(PID.TID 0000.0001)                 2.944035815526416E+05,      /* I =148 */
(PID.TID 0000.0001)                 2.898778860929753E+05,      /* I =149 */
(PID.TID 0000.0001)                 2.841906470085516E+05,      /* I =150 */
(PID.TID 0000.0001)                 2.773091043277394E+05,      /* I =151 */
(PID.TID 0000.0001)                 2.691790288994575E+05,      /* I =152 */
(PID.TID 0000.0001)                 2.597126963772147E+05,      /* I =153 */
(PID.TID 0000.0001)                 2.487693460283865E+05,      /* I =154 */
(PID.TID 0000.0001)                 2.361211699596122E+05,      /* I =155 */
(PID.TID 0000.0001)                 2.213884732245467E+05,      /* I =156 */
(PID.TID 0000.0001)                 2.038999045536999E+05,      /* I =157 */
(PID.TID 0000.0001)                 1.823321598773926E+05,      /* I =158 */
(PID.TID 0000.0001)                 1.534505834330338E+05,      /* I =159 */
(PID.TID 0000.0001)     2 @  1.009837800879055E+05,             /* I =160:161 */
(PID.TID 0000.0001)                 1.534505834330338E+05,      /* I =162 */
(PID.TID 0000.0001)                 1.823321598773926E+05,      /* I =163 */
(PID.TID 0000.0001)                 2.038999045536999E+05,      /* I =164 */
(PID.TID 0000.0001)                 2.213884732245467E+05,      /* I =165 */
(PID.TID 0000.0001)                 2.361211699596122E+05,      /* I =166 */
(PID.TID 0000.0001)                 2.487693460283865E+05,      /* I =167 */
(PID.TID 0000.0001)                 2.597126963772147E+05,      /* I =168 */
(PID.TID 0000.0001)                 2.691790288994575E+05,      /* I =169 */
(PID.TID 0000.0001)                 2.773091043277394E+05,      /* I =170 */
(PID.TID 0000.0001)                 2.841906470085516E+05,      /* I =171 */
(PID.TID 0000.0001)                 2.898778860929753E+05,      /* I =172 */
(PID.TID 0000.0001)                 2.944035815526416E+05,      /* I =173 */
(PID.TID 0000.0001)                 2.977867909042096E+05,      /* I =174 */
(PID.TID 0000.0001)                 3.000380090330854E+05,      /* I =175 */
(PID.TID 0000.0001)     2 @  3.011625828699101E+05,             /* I =176:177 */
(PID.TID 0000.0001)                 3.000380090330854E+05,      /* I =178 */
(PID.TID 0000.0001)                 2.977867909042096E+05,      /* I =179 */
(PID.TID 0000.0001)                 2.944035815526416E+05,      /* I =180 */
(PID.TID 0000.0001)                 2.898778860929753E+05,      /* I =181 */
(PID.TID 0000.0001)                 2.841906470085516E+05,      /* I =182 */
(PID.TID 0000.0001)                 2.773091043277394E+05,      /* I =183 */
(PID.TID 0000.0001)                 2.691790288994575E+05,      /* I =184 */
(PID.TID 0000.0001)                 2.597126963772147E+05,      /* I =185 */
(PID.TID 0000.0001)                 2.487693460283865E+05,      /* I =186 */
(PID.TID 0000.0001)                 2.361211699596122E+05,      /* I =187 */
(PID.TID 0000.0001)                 2.213884732245467E+05,      /* I =188 */
(PID.TID 0000.0001)                 2.038999045536999E+05,      /* I =189 */
(PID.TID 0000.0001)                 1.823321598773926E+05,      /* I =190 */
(PID.TID 0000.0001)                 1.534505834330338E+05,      /* I =191 */
(PID.TID 0000.0001)                 1.009837800879055E+05       /* I =192 */
(PID.TID 0000.0001)     ;
(PID.TID 0000.0001) dxG =  /* dxG(1,:,1,:) ( units: m ) */
(PID.TID 0000.0001)                 1.009837800879055E+05,      /* J =  1 */
(PID.TID 0000.0001)                 1.403701524205398E+05,      /* J =  2 */
(PID.TID 0000.0001)                 1.716197227386011E+05,      /* J =  3 */
(PID.TID 0000.0001)                 1.950254041626018E+05,      /* J =  4 */
(PID.TID 0000.0001)                 2.138410773065497E+05,      /* J =  5 */
(PID.TID 0000.0001)                 2.295958105911512E+05,      /* J =  6 */
(PID.TID 0000.0001)                 2.430829951739083E+05,      /* J =  7 */
(PID.TID 0000.0001)                 2.547526806712889E+05,      /* J =  8 */
(PID.TID 0000.0001)                 2.648750305193301E+05,      /* J =  9 */
(PID.TID 0000.0001)                 2.736173771018112E+05,      /* J = 10 */
(PID.TID 0000.0001)                 2.810845823202647E+05,      /* J = 11 */
(PID.TID 0000.0001)                 2.873420591008078E+05,      /* J = 12 */
(PID.TID 0000.0001)                 2.924298293668651E+05,      /* J = 13 */
(PID.TID 0000.0001)                 2.963715635865306E+05,      /* J = 14 */
(PID.TID 0000.0001)                 2.991805843171258E+05,      /* J = 15 */
(PID.TID 0000.0001)                 3.008638765647886E+05,      /* J = 16 */
(PID.TID 0000.0001)                 3.014246674484008E+05,      /* J = 17 */
(PID.TID 0000.0001)                 3.008638765647886E+05,      /* J = 18 */
(PID.TID 0000.0001)                 2.991805843171258E+05,      /* J = 19 */
(PID.TID 0000.0001)                 2.963715635865306E+05,      /* J = 20 */
(PID.TID 0000.0001)                 2.924298293668651E+05,      /* J = 21 */
(PID.TID 0000.0001)                 2.873420591008078E+05,      /* J = 22 */
(PID.TID 0000.0001)                 2.810845823202647E+05,      /* J = 23 */
(PID.TID 0000.0001)                 2.736173771018112E+05,      /* J = 24 */
(PID.TID 0000.0001)                 2.648750305193301E+05,      /* J = 25 */
(PID.TID 0000.0001)                 2.547526806712889E+05,      /* J = 26 */
(PID.TID 0000.0001)                 2.430829951739083E+05,      /* J = 27 */
(PID.TID 0000.0001)                 2.295958105911512E+05,      /* J = 28 */
(PID.TID 0000.0001)                 2.138410773065497E+05,      /* J = 29 */
(PID.TID 0000.0001)                 1.950254041626018E+05,      /* J = 30 */
(PID.TID 0000.0001)                 1.716197227386011E+05,      /* J = 31 */
(PID.TID 0000.0001)                 1.403701524205398E+05       /* J = 32 */
(PID.TID 0000.0001)     ;
(PID.TID 0000.0001) dyG =  /* dyG(:,1,:,1) ( units: m ) */
(PID.TID 0000.0001)                 1.009837800879055E+05,      /* I =  1 */
(PID.TID 0000.0001)                 1.403701524205398E+05,      /* I =  2 */
(PID.TID 0000.0001)                 1.716197227386011E+05,      /* I =  3 */
(PID.TID 0000.0001)                 1.950254041626018E+05,      /* I =  4 */
(PID.TID 0000.0001)                 2.138410773065497E+05,      /* I =  5 */
(PID.TID 0000.0001)                 2.295958105911512E+05,      /* I =  6 */
(PID.TID 0000.0001)                 2.430829951739083E+05,      /* I =  7 */
(PID.TID 0000.0001)                 2.547526806712889E+05,      /* I =  8 */
(PID.TID 0000.0001)                 2.648750305193301E+05,      /* I =  9 */
(PID.TID 0000.0001)                 2.736173771018112E+05,      /* I = 10 */
(PID.TID 0000.0001)                 2.810845823202647E+05,      /* I = 11 */
(PID.TID 0000.0001)                 2.873420591008078E+05,      /* I = 12 */
(PID.TID 0000.0001)                 2.924298293668651E+05,      /* I = 13 */
(PID.TID 0000.0001)                 2.963715635865306E+05,      /* I = 14 */
(PID.TID 0000.0001)                 2.991805843171258E+05,      /* I = 15 */
(PID.TID 0000.0001)                 3.008638765647886E+05,      /* I = 16 */
(PID.TID 0000.0001)                 3.014246674484008E+05,      /* I = 17 */
(PID.TID 0000.0001)                 3.008638765647886E+05,      /* I = 18 */
(PID.TID 0000.0001)                 2.991805843171258E+05,      /* I = 19 */
(PID.TID 0000.0001)                 2.963715635865306E+05,      /* I = 20 */
(PID.TID 0000.0001)                 2.924298293668651E+05,      /* I = 21 */
(PID.TID 0000.0001)                 2.873420591008078E+05,      /* I = 22 */
(PID.TID 0000.0001)                 2.810845823202647E+05,      /* I = 23 */
(PID.TID 0000.0001)                 2.736173771018112E+05,      /* I = 24 */
(PID.TID 0000.0001)                 2.648750305193301E+05,      /* I = 25 */
(PID.TID 0000.0001)                 2.547526806712889E+05,      /* I = 26 */
(PID.TID 0000.0001)                 2.430829951739083E+05,      /* I = 27 */
(PID.TID 0000.0001)                 2.295958105911512E+05,      /* I = 28 */
(PID.TID 0000.0001)                 2.138410773065497E+05,      /* I = 29 */
(PID.TID 0000.0001)                 1.950254041626018E+05,      /* I = 30 */
(PID.TID 0000.0001)                 1.716197227386011E+05,      /* I = 31 */
(PID.TID 0000.0001)                 1.403701524205398E+05,      /* I = 32 */
(PID.TID 0000.0001)                 1.009837800879055E+05,      /* I = 33 */
(PID.TID 0000.0001)                 1.403701524205398E+05,      /* I = 34 */
(PID.TID 0000.0001)                 1.716197227386011E+05,      /* I = 35 */
(PID.TID 0000.0001)                 1.950254041626018E+05,      /* I = 36 */
(PID.TID 0000.0001)                 2.138410773065497E+05,      /* I = 37 */
(PID.TID 0000.0001)                 2.295958105911512E+05,      /* I = 38 */
(PID.TID 0000.0001)                 2.430829951739083E+05,      /* I = 39 */
(PID.TID 0000.0001)                 2.547526806712889E+05,      /* I = 40 */
(PID.TID 0000.0001)                 2.648750305193301E+05,      /* I = 41 */
(PID.TID 0000.0001)                 2.736173771018112E+05,      /* I = 42 */
(PID.TID 0000.0001)                 2.810845823202647E+05,      /* I = 43 */
(PID.TID 0000.0001)                 2.873420591008078E+05,      /* I = 44 */
(PID.TID 0000.0001)                 2.924298293668651E+05,      /* I = 45 */
(PID.TID 0000.0001)                 2.963715635865306E+05,      /* I = 46 */
(PID.TID 0000.0001)                 2.991805843171258E+05,      /* I = 47 */
(PID.TID 0000.0001)                 3.008638765647886E+05,      /* I = 48 */
(PID.TID 0000.0001)                 3.014246674484008E+05,      /* I = 49 */
(PID.TID 0000.0001)                 3.008638765647886E+05,      /* I = 50 */
(PID.TID 0000.0001)                 2.991805843171258E+05,      /* I = 51 */
(PID.TID 0000.0001)                 2.963715635865306E+05,      /* I = 52 */
(PID.TID 0000.0001)                 2.924298293668651E+05,      /* I = 53 */
(PID.TID 0000.0001)                 2.873420591008078E+05,      /* I = 54 */
(PID.TID 0000.0001)                 2.810845823202647E+05,      /* I = 55 */
(PID.TID 0000.0001)                 2.736173771018112E+05,      /* I = 56 */
(PID.TID 0000.0001)                 2.648750305193301E+05,      /* I = 57 */
(PID.TID 0000.0001)                 2.547526806712889E+05,      /* I = 58 */
(PID.TID 0000.0001)                 2.430829951739083E+05,      /* I = 59 */
(PID.TID 0000.0001)                 2.295958105911512E+05,      /* I = 60 */
(PID.TID 0000.0001)                 2.138410773065497E+05,      /* I = 61 */
(PID.TID 0000.0001)                 1.950254041626018E+05,      /* I = 62 */
(PID.TID 0000.0001)                 1.716197227386011E+05,      /* I = 63 */
(PID.TID 0000.0001)                 1.403701524205398E+05,      /* I = 64 */
(PID.TID 0000.0001)                 1.009837800879055E+05,      /* I = 65 */
(PID.TID 0000.0001)                 1.403701524205398E+05,      /* I = 66 */
(PID.TID 0000.0001)                 1.716197227386011E+05,      /* I = 67 */
(PID.TID 0000.0001)                 1.950254041626018E+05,      /* I = 68 */
(PID.TID 0000.0001)                 2.138410773065497E+05,      /* I = 69 */
(PID.TID 0000.0001)                 2.295958105911512E+05,      /* I = 70 */
(PID.TID 0000.0001)                 2.430829951739083E+05,      /* I = 71 */
(PID.TID 0000.0001)                 2.547526806712889E+05,      /* I = 72 */
(PID.TID 0000.0001)                 2.648750305193301E+05,      /* I = 73 */
(PID.TID 0000.0001)                 2.736173771018112E+05,      /* I = 74 */
(PID.TID 0000.0001)                 2.810845823202647E+05,      /* I = 75 */
(PID.TID 0000.0001)                 2.873420591008078E+05,      /* I = 76 */
(PID.TID 0000.0001)                 2.924298293668651E+05,      /* I = 77 */
(PID.TID 0000.0001)                 2.963715635865306E+05,      /* I = 78 */
(PID.TID 0000.0001)                 2.991805843171258E+05,      /* I = 79 */
(PID.TID 0000.0001)                 3.008638765647886E+05,      /* I = 80 */
(PID.TID 0000.0001)                 3.014246674484008E+05,      /* I = 81 */
(PID.TID 0000.0001)                 3.008638765647886E+05,      /* I = 82 */
(PID.TID 0000.0001)                 2.991805843171258E+05,      /* I = 83 */
(PID.TID 0000.0001)                 2.963715635865306E+05,      /* I = 84 */
(PID.TID 0000.0001)                 2.924298293668651E+05,      /* I = 85 */
(PID.TID 0000.0001)                 2.873420591008078E+05,      /* I = 86 */
(PID.TID 0000.0001)                 2.810845823202647E+05,      /* I = 87 */
(PID.TID 0000.0001)                 2.736173771018112E+05,      /* I = 88 */
(PID.TID 0000.0001)                 2.648750305193301E+05,      /* I = 89 */
(PID.TID 0000.0001)                 2.547526806712889E+05,      /* I = 90 */
(PID.TID 0000.0001)                 2.430829951739083E+05,      /* I = 91 */
(PID.TID 0000.0001)                 2.295958105911512E+05,      /* I = 92 */
(PID.TID 0000.0001)                 2.138410773065497E+05,      /* I = 93 */
(PID.TID 0000.0001)                 1.950254041626018E+05,      /* I = 94 */
(PID.TID 0000.0001)                 1.716197227386011E+05,      /* I = 95 */
(PID.TID 0000.0001)                 1.403701524205398E+05,      /* I = 96 */
(PID.TID 0000.0001)                 1.009837800879055E+05,      /* I = 97 */
(PID.TID 0000.0001)                 1.403701524205398E+05,      /* I = 98 */
(PID.TID 0000.0001)                 1.716197227386011E+05,      /* I = 99 */
(PID.TID 0000.0001)                 1.950254041626018E+05,      /* I =100 */
(PID.TID 0000.0001)                 2.138410773065497E+05,      /* I =101 */
(PID.TID 0000.0001)                 2.295958105911512E+05,      /* I =102 */
(PID.TID 0000.0001)                 2.430829951739083E+05,      /* I =103 */
(PID.TID 0000.0001)                 2.547526806712889E+05,      /* I =104 */
(PID.TID 0000.0001)                 2.648750305193301E+05,      /* I =105 */
(PID.TID 0000.0001)                 2.736173771018112E+05,      /* I =106 */
(PID.TID 0000.0001)                 2.810845823202647E+05,      /* I =107 */
(PID.TID 0000.0001)                 2.873420591008078E+05,      /* I =108 */
(PID.TID 0000.0001)                 2.924298293668651E+05,      /* I =109 */
(PID.TID 0000.0001)                 2.963715635865306E+05,      /* I =110 */
(PID.TID 0000.0001)                 2.991805843171258E+05,      /* I =111 */
(PID.TID 0000.0001)                 3.008638765647886E+05,      /* I =112 */
(PID.TID 0000.0001)                 3.014246674484008E+05,      /* I =113 */
(PID.TID 0000.0001)                 3.008638765647886E+05,      /* I =114 */
(PID.TID 0000.0001)                 2.991805843171258E+05,      /* I =115 */
(PID.TID 0000.0001)                 2.963715635865306E+05,      /* I =116 */
(PID.TID 0000.0001)                 2.924298293668651E+05,      /* I =117 */
(PID.TID 0000.0001)                 2.873420591008078E+05,      /* I =118 */
(PID.TID 0000.0001)                 2.810845823202647E+05,      /* I =119 */
(PID.TID 0000.0001)                 2.736173771018112E+05,      /* I =120 */
(PID.TID 0000.0001)                 2.648750305193301E+05,      /* I =121 */
(PID.TID 0000.0001)                 2.547526806712889E+05,      /* I =122 */
(PID.TID 0000.0001)                 2.430829951739083E+05,      /* I =123 */
(PID.TID 0000.0001)                 2.295958105911512E+05,      /* I =124 */
(PID.TID 0000.0001)                 2.138410773065497E+05,      /* I =125 */
(PID.TID 0000.0001)                 1.950254041626018E+05,      /* I =126 */
(PID.TID 0000.0001)                 1.716197227386011E+05,      /* I =127 */
(PID.TID 0000.0001)                 1.403701524205398E+05,      /* I =128 */
(PID.TID 0000.0001)                 1.009837800879055E+05,      /* I =129 */
(PID.TID 0000.0001)                 1.403701524205398E+05,      /* I =130 */
(PID.TID 0000.0001)                 1.716197227386011E+05,      /* I =131 */
(PID.TID 0000.0001)                 1.950254041626018E+05,      /* I =132 */
(PID.TID 0000.0001)                 2.138410773065497E+05,      /* I =133 */
(PID.TID 0000.0001)                 2.295958105911512E+05,      /* I =134 */
(PID.TID 0000.0001)                 2.430829951739083E+05,      /* I =135 */
(PID.TID 0000.0001)                 2.547526806712889E+05,      /* I =136 */
(PID.TID 0000.0001)                 2.648750305193301E+05,      /* I =137 */
(PID.TID 0000.0001)                 2.736173771018112E+05,      /* I =138 */
(PID.TID 0000.0001)                 2.810845823202647E+05,      /* I =139 */
(PID.TID 0000.0001)                 2.873420591008078E+05,      /* I =140 */
(PID.TID 0000.0001)                 2.924298293668651E+05,      /* I =141 */
(PID.TID 0000.0001)                 2.963715635865306E+05,      /* I =142 */
(PID.TID 0000.0001)                 2.991805843171258E+05,      /* I =143 */
(PID.TID 0000.0001)                 3.008638765647886E+05,      /* I =144 */
(PID.TID 0000.0001)                 3.014246674484008E+05,      /* I =145 */
(PID.TID 0000.0001)                 3.008638765647886E+05,      /* I =146 */
(PID.TID 0000.0001)                 2.991805843171258E+05,      /* I =147 */
(PID.TID 0000.0001)                 2.963715635865306E+05,      /* I =148 */
(PID.TID 0000.0001)                 2.924298293668651E+05,      /* I =149 */
(PID.TID 0000.0001)                 2.873420591008078E+05,      /* I =150 */
(PID.TID 0000.0001)                 2.810845823202647E+05,      /* I =151 */
(PID.TID 0000.0001)                 2.736173771018112E+05,      /* I =152 */
(PID.TID 0000.0001)                 2.648750305193301E+05,      /* I =153 */
(PID.TID 0000.0001)                 2.547526806712889E+05,      /* I =154 */
(PID.TID 0000.0001)                 2.430829951739083E+05,      /* I =155 */
(PID.TID 0000.0001)                 2.295958105911512E+05,      /* I =156 */
(PID.TID 0000.0001)                 2.138410773065497E+05,      /* I =157 */
(PID.TID 0000.0001)                 1.950254041626018E+05,      /* I =158 */
(PID.TID 0000.0001)                 1.716197227386011E+05,      /* I =159 */
(PID.TID 0000.0001)                 1.403701524205398E+05,      /* I =160 */
(PID.TID 0000.0001)                 1.009837800879055E+05,      /* I =161 */
(PID.TID 0000.0001)                 1.403701524205398E+05,      /* I =162 */
(PID.TID 0000.0001)                 1.716197227386011E+05,      /* I =163 */
(PID.TID 0000.0001)                 1.950254041626018E+05,      /* I =164 */
(PID.TID 0000.0001)                 2.138410773065497E+05,      /* I =165 */
(PID.TID 0000.0001)                 2.295958105911512E+05,      /* I =166 */
(PID.TID 0000.0001)                 2.430829951739083E+05,      /* I =167 */
(PID.TID 0000.0001)                 2.547526806712889E+05,      /* I =168 */
(PID.TID 0000.0001)                 2.648750305193301E+05,      /* I =169 */
(PID.TID 0000.0001)                 2.736173771018112E+05,      /* I =170 */
(PID.TID 0000.0001)                 2.810845823202647E+05,      /* I =171 */
(PID.TID 0000.0001)                 2.873420591008078E+05,      /* I =172 */
(PID.TID 0000.0001)                 2.924298293668651E+05,      /* I =173 */
(PID.TID 0000.0001)                 2.963715635865306E+05,      /* I =174 */
(PID.TID 0000.0001)                 2.991805843171258E+05,      /* I =175 */
(PID.TID 0000.0001)                 3.008638765647886E+05,      /* I =176 */
(PID.TID 0000.0001)                 3.014246674484008E+05,      /* I =177 */
(PID.TID 0000.0001)                 3.008638765647886E+05,      /* I =178 */
(PID.TID 0000.0001)                 2.991805843171258E+05,      /* I =179 */
(PID.TID 0000.0001)                 2.963715635865306E+05,      /* I =180 */
(PID.TID 0000.0001)                 2.924298293668651E+05,      /* I =181 */
(PID.TID 0000.0001)                 2.873420591008078E+05,      /* I =182 */
(PID.TID 0000.0001)                 2.810845823202647E+05,      /* I =183 */
(PID.TID 0000.0001)                 2.736173771018112E+05,      /* I =184 */
(PID.TID 0000.0001)                 2.648750305193301E+05,      /* I =185 */
(PID.TID 0000.0001)                 2.547526806712889E+05,      /* I =186 */
(PID.TID 0000.0001)                 2.430829951739083E+05,      /* I =187 */
(PID.TID 0000.0001)                 2.295958105911512E+05,      /* I =188 */
(PID.TID 0000.0001)                 2.138410773065497E+05,      /* I =189 */
(PID.TID 0000.0001)                 1.950254041626018E+05,      /* I =190 */
(PID.TID 0000.0001)                 1.716197227386011E+05,      /* I =191 */
(PID.TID 0000.0001)                 1.403701524205398E+05       /* I =192 */
(PID.TID 0000.0001)     ;
(PID.TID 0000.0001) dyG =  /* dyG(1,:,1,:) ( units: m ) */
(PID.TID 0000.0001)                 1.009837800879055E+05,      /* J =  1 */
(PID.TID 0000.0001)                 1.534505834330338E+05,      /* J =  2 */
(PID.TID 0000.0001)                 1.823321598773926E+05,      /* J =  3 */
(PID.TID 0000.0001)                 2.038999045536999E+05,      /* J =  4 */
(PID.TID 0000.0001)                 2.213884732245467E+05,      /* J =  5 */
(PID.TID 0000.0001)                 2.361211699596122E+05,      /* J =  6 */
(PID.TID 0000.0001)                 2.487693460283865E+05,      /* J =  7 */
(PID.TID 0000.0001)                 2.597126963772147E+05,      /* J =  8 */
(PID.TID 0000.0001)                 2.691790288994575E+05,      /* J =  9 */
(PID.TID 0000.0001)                 2.773091043277394E+05,      /* J = 10 */
(PID.TID 0000.0001)                 2.841906470085516E+05,      /* J = 11 */
(PID.TID 0000.0001)                 2.898778860929753E+05,      /* J = 12 */
(PID.TID 0000.0001)                 2.944035815526416E+05,      /* J = 13 */
(PID.TID 0000.0001)                 2.977867909042096E+05,      /* J = 14 */
(PID.TID 0000.0001)                 3.000380090330854E+05,      /* J = 15 */
(PID.TID 0000.0001)     2 @  3.011625828699101E+05,             /* J = 16: 17 */
(PID.TID 0000.0001)                 3.000380090330854E+05,      /* J = 18 */
(PID.TID 0000.0001)                 2.977867909042096E+05,      /* J = 19 */
(PID.TID 0000.0001)                 2.944035815526416E+05,      /* J = 20 */
(PID.TID 0000.0001)                 2.898778860929753E+05,      /* J = 21 */
(PID.TID 0000.0001)                 2.841906470085516E+05,      /* J = 22 */
(PID.TID 0000.0001)                 2.773091043277394E+05,      /* J = 23 */
(PID.TID 0000.0001)                 2.691790288994575E+05,      /* J = 24 */
(PID.TID 0000.0001)                 2.597126963772147E+05,      /* J = 25 */
(PID.TID 0000.0001)                 2.487693460283865E+05,      /* J = 26 */
(PID.TID 0000.0001)                 2.361211699596122E+05,      /* J = 27 */
(PID.TID 0000.0001)                 2.213884732245467E+05,      /* J = 28 */
(PID.TID 0000.0001)                 2.038999045536999E+05,      /* J = 29 */
(PID.TID 0000.0001)                 1.823321598773926E+05,      /* J = 30 */
(PID.TID 0000.0001)                 1.534505834330338E+05,      /* J = 31 */
(PID.TID 0000.0001)                 1.009837800879055E+05       /* J = 32 */
(PID.TID 0000.0001)     ;
(PID.TID 0000.0001) dxC =  /* dxC(:,1,:,1) ( units: m ) */
(PID.TID 0000.0001)                 1.114203141013064E+05,      /* I =  1 */
(PID.TID 0000.0001)                 1.391343389937106E+05,      /* I =  2 */
(PID.TID 0000.0001)                 1.709574999026266E+05,      /* I =  3 */
(PID.TID 0000.0001)                 1.946503699269892E+05,      /* I =  4 */
(PID.TID 0000.0001)                 2.135964483342134E+05,      /* I =  5 */
(PID.TID 0000.0001)                 2.294195678257306E+05,      /* I =  6 */
(PID.TID 0000.0001)                 2.429464709770498E+05,      /* I =  7 */
(PID.TID 0000.0001)                 2.546408290696998E+05,      /* I =  8 */
(PID.TID 0000.0001)                 2.647791839299727E+05,      /* I =  9 */
(PID.TID 0000.0001)                 2.735321911346108E+05,      /* I = 10 */
(PID.TID 0000.0001)                 2.810065951609633E+05,      /* I = 11 */
(PID.TID 0000.0001)                 2.872689479506990E+05,      /* I = 12 */
(PID.TID 0000.0001)                 2.923599955312932E+05,      /* I = 13 */
(PID.TID 0000.0001)                 2.963038832565530E+05,      /* I = 14 */
(PID.TID 0000.0001)                 2.991142470004740E+05,      /* I = 15 */
(PID.TID 0000.0001)                 3.007982711627968E+05,      /* I = 16 */
(PID.TID 0000.0001)                 3.013593857228136E+05,      /* I = 17 */
(PID.TID 0000.0001)                 3.007982711627968E+05,      /* I = 18 */
(PID.TID 0000.0001)                 2.991142470004740E+05,      /* I = 19 */
(PID.TID 0000.0001)                 2.963038832565530E+05,      /* I = 20 */
(PID.TID 0000.0001)                 2.923599955312932E+05,      /* I = 21 */
(PID.TID 0000.0001)                 2.872689479506990E+05,      /* I = 22 */
(PID.TID 0000.0001)                 2.810065951609633E+05,      /* I = 23 */
(PID.TID 0000.0001)                 2.735321911346108E+05,      /* I = 24 */
(PID.TID 0000.0001)                 2.647791839299727E+05,      /* I = 25 */
(PID.TID 0000.0001)                 2.546408290696998E+05,      /* I = 26 */
(PID.TID 0000.0001)                 2.429464709770498E+05,      /* I = 27 */
(PID.TID 0000.0001)                 2.294195678257306E+05,      /* I = 28 */
(PID.TID 0000.0001)                 2.135964483342134E+05,      /* I = 29 */
(PID.TID 0000.0001)                 1.946503699269892E+05,      /* I = 30 */
(PID.TID 0000.0001)                 1.709574999026266E+05,      /* I = 31 */
(PID.TID 0000.0001)                 1.391343389937106E+05,      /* I = 32 */
(PID.TID 0000.0001)                 1.114203141013064E+05,      /* I = 33 */
(PID.TID 0000.0001)                 1.391343389937106E+05,      /* I = 34 */
(PID.TID 0000.0001)                 1.709574999026266E+05,      /* I = 35 */
(PID.TID 0000.0001)                 1.946503699269892E+05,      /* I = 36 */
(PID.TID 0000.0001)                 2.135964483342134E+05,      /* I = 37 */
(PID.TID 0000.0001)                 2.294195678257306E+05,      /* I = 38 */
(PID.TID 0000.0001)                 2.429464709770498E+05,      /* I = 39 */
(PID.TID 0000.0001)                 2.546408290696998E+05,      /* I = 40 */
(PID.TID 0000.0001)                 2.647791839299727E+05,      /* I = 41 */
(PID.TID 0000.0001)                 2.735321911346108E+05,      /* I = 42 */
(PID.TID 0000.0001)                 2.810065951609633E+05,      /* I = 43 */
(PID.TID 0000.0001)                 2.872689479506990E+05,      /* I = 44 */
(PID.TID 0000.0001)                 2.923599955312932E+05,      /* I = 45 */
(PID.TID 0000.0001)                 2.963038832565530E+05,      /* I = 46 */
(PID.TID 0000.0001)                 2.991142470004740E+05,      /* I = 47 */
(PID.TID 0000.0001)                 3.007982711627968E+05,      /* I = 48 */
(PID.TID 0000.0001)                 3.013593857228136E+05,      /* I = 49 */
(PID.TID 0000.0001)                 3.007982711627968E+05,      /* I = 50 */
(PID.TID 0000.0001)                 2.991142470004740E+05,      /* I = 51 */
(PID.TID 0000.0001)                 2.963038832565530E+05,      /* I = 52 */
(PID.TID 0000.0001)                 2.923599955312932E+05,      /* I = 53 */
(PID.TID 0000.0001)                 2.872689479506990E+05,      /* I = 54 */
(PID.TID 0000.0001)                 2.810065951609633E+05,      /* I = 55 */
(PID.TID 0000.0001)                 2.735321911346108E+05,      /* I = 56 */
(PID.TID 0000.0001)                 2.647791839299727E+05,      /* I = 57 */
(PID.TID 0000.0001)                 2.546408290696998E+05,      /* I = 58 */
(PID.TID 0000.0001)                 2.429464709770498E+05,      /* I = 59 */
(PID.TID 0000.0001)                 2.294195678257306E+05,      /* I = 60 */
(PID.TID 0000.0001)                 2.135964483342134E+05,      /* I = 61 */
(PID.TID 0000.0001)                 1.946503699269892E+05,      /* I = 62 */
(PID.TID 0000.0001)                 1.709574999026266E+05,      /* I = 63 */
(PID.TID 0000.0001)                 1.391343389937106E+05,      /* I = 64 */
(PID.TID 0000.0001)                 1.114203141013064E+05,      /* I = 65 */
(PID.TID 0000.0001)                 1.391343389937106E+05,      /* I = 66 */
(PID.TID 0000.0001)                 1.709574999026266E+05,      /* I = 67 */
(PID.TID 0000.0001)                 1.946503699269892E+05,      /* I = 68 */
(PID.TID 0000.0001)                 2.135964483342134E+05,      /* I = 69 */
(PID.TID 0000.0001)                 2.294195678257306E+05,      /* I = 70 */
(PID.TID 0000.0001)                 2.429464709770498E+05,      /* I = 71 */
(PID.TID 0000.0001)                 2.546408290696998E+05,      /* I = 72 */
(PID.TID 0000.0001)                 2.647791839299727E+05,      /* I = 73 */
(PID.TID 0000.0001)                 2.735321911346108E+05,      /* I = 74 */
(PID.TID 0000.0001)                 2.810065951609633E+05,      /* I = 75 */
(PID.TID 0000.0001)                 2.872689479506990E+05,      /* I = 76 */
(PID.TID 0000.0001)                 2.923599955312932E+05,      /* I = 77 */
(PID.TID 0000.0001)                 2.963038832565530E+05,      /* I = 78 */
(PID.TID 0000.0001)                 2.991142470004740E+05,      /* I = 79 */
(PID.TID 0000.0001)                 3.007982711627968E+05,      /* I = 80 */
(PID.TID 0000.0001)                 3.013593857228136E+05,      /* I = 81 */
(PID.TID 0000.0001)                 3.007982711627968E+05,      /* I = 82 */
(PID.TID 0000.0001)                 2.991142470004740E+05,      /* I = 83 */
(PID.TID 0000.0001)                 2.963038832565530E+05,      /* I = 84 */
(PID.TID 0000.0001)                 2.923599955312932E+05,      /* I = 85 */
(PID.TID 0000.0001)                 2.872689479506990E+05,      /* I = 86 */
(PID.TID 0000.0001)                 2.810065951609633E+05,      /* I = 87 */
(PID.TID 0000.0001)                 2.735321911346108E+05,      /* I = 88 */
(PID.TID 0000.0001)                 2.647791839299727E+05,      /* I = 89 */
(PID.TID 0000.0001)                 2.546408290696998E+05,      /* I = 90 */
(PID.TID 0000.0001)                 2.429464709770498E+05,      /* I = 91 */
(PID.TID 0000.0001)                 2.294195678257306E+05,      /* I = 92 */
(PID.TID 0000.0001)                 2.135964483342134E+05,      /* I = 93 */
(PID.TID 0000.0001)                 1.946503699269892E+05,      /* I = 94 */
(PID.TID 0000.0001)                 1.709574999026266E+05,      /* I = 95 */
(PID.TID 0000.0001)                 1.391343389937106E+05,      /* I = 96 */
(PID.TID 0000.0001)                 1.114203141013064E+05,      /* I = 97 */
(PID.TID 0000.0001)                 1.391343389937106E+05,      /* I = 98 */
(PID.TID 0000.0001)                 1.709574999026266E+05,      /* I = 99 */
(PID.TID 0000.0001)                 1.946503699269892E+05,      /* I =100 */
(PID.TID 0000.0001)                 2.135964483342134E+05,      /* I =101 */
(PID.TID 0000.0001)                 2.294195678257306E+05,      /* I =102 */
(PID.TID 0000.0001)                 2.429464709770498E+05,      /* I =103 */
(PID.TID 0000.0001)                 2.546408290696998E+05,      /* I =104 */
(PID.TID 0000.0001)                 2.647791839299727E+05,      /* I =105 */
(PID.TID 0000.0001)                 2.735321911346108E+05,      /* I =106 */
(PID.TID 0000.0001)                 2.810065951609633E+05,      /* I =107 */
(PID.TID 0000.0001)                 2.872689479506990E+05,      /* I =108 */
(PID.TID 0000.0001)                 2.923599955312932E+05,      /* I =109 */
(PID.TID 0000.0001)                 2.963038832565530E+05,      /* I =110 */
(PID.TID 0000.0001)                 2.991142470004740E+05,      /* I =111 */
(PID.TID 0000.0001)                 3.007982711627968E+05,      /* I =112 */
(PID.TID 0000.0001)                 3.013593857228136E+05,      /* I =113 */
(PID.TID 0000.0001)                 3.007982711627968E+05,      /* I =114 */
(PID.TID 0000.0001)                 2.991142470004740E+05,      /* I =115 */
(PID.TID 0000.0001)                 2.963038832565530E+05,      /* I =116 */
(PID.TID 0000.0001)                 2.923599955312932E+05,      /* I =117 */
(PID.TID 0000.0001)                 2.872689479506990E+05,      /* I =118 */
(PID.TID 0000.0001)                 2.810065951609633E+05,      /* I =119 */
(PID.TID 0000.0001)                 2.735321911346108E+05,      /* I =120 */
(PID.TID 0000.0001)                 2.647791839299727E+05,      /* I =121 */
(PID.TID 0000.0001)                 2.546408290696998E+05,      /* I =122 */
(PID.TID 0000.0001)                 2.429464709770498E+05,      /* I =123 */
(PID.TID 0000.0001)                 2.294195678257306E+05,      /* I =124 */
(PID.TID 0000.0001)                 2.135964483342134E+05,      /* I =125 */
(PID.TID 0000.0001)                 1.946503699269892E+05,      /* I =126 */
(PID.TID 0000.0001)                 1.709574999026266E+05,      /* I =127 */
(PID.TID 0000.0001)                 1.391343389937106E+05,      /* I =128 */
(PID.TID 0000.0001)                 1.114203141013064E+05,      /* I =129 */
(PID.TID 0000.0001)                 1.391343389937106E+05,      /* I =130 */
(PID.TID 0000.0001)                 1.709574999026266E+05,      /* I =131 */
(PID.TID 0000.0001)                 1.946503699269892E+05,      /* I =132 */
(PID.TID 0000.0001)                 2.135964483342134E+05,      /* I =133 */
(PID.TID 0000.0001)                 2.294195678257306E+05,      /* I =134 */
(PID.TID 0000.0001)                 2.429464709770498E+05,      /* I =135 */
(PID.TID 0000.0001)                 2.546408290696998E+05,      /* I =136 */
(PID.TID 0000.0001)                 2.647791839299727E+05,      /* I =137 */
(PID.TID 0000.0001)                 2.735321911346108E+05,      /* I =138 */
(PID.TID 0000.0001)                 2.810065951609633E+05,      /* I =139 */
(PID.TID 0000.0001)                 2.872689479506990E+05,      /* I =140 */
(PID.TID 0000.0001)                 2.923599955312932E+05,      /* I =141 */
(PID.TID 0000.0001)                 2.963038832565530E+05,      /* I =142 */
(PID.TID 0000.0001)                 2.991142470004740E+05,      /* I =143 */
(PID.TID 0000.0001)                 3.007982711627968E+05,      /* I =144 */
(PID.TID 0000.0001)                 3.013593857228136E+05,      /* I =145 */
(PID.TID 0000.0001)                 3.007982711627968E+05,      /* I =146 */
(PID.TID 0000.0001)                 2.991142470004740E+05,      /* I =147 */
(PID.TID 0000.0001)                 2.963038832565530E+05,      /* I =148 */
(PID.TID 0000.0001)                 2.923599955312932E+05,      /* I =149 */
(PID.TID 0000.0001)                 2.872689479506990E+05,      /* I =150 */
(PID.TID 0000.0001)                 2.810065951609633E+05,      /* I =151 */
(PID.TID 0000.0001)                 2.735321911346108E+05,      /* I =152 */
(PID.TID 0000.0001)                 2.647791839299727E+05,      /* I =153 */
(PID.TID 0000.0001)                 2.546408290696998E+05,      /* I =154 */
(PID.TID 0000.0001)                 2.429464709770498E+05,      /* I =155 */
(PID.TID 0000.0001)                 2.294195678257306E+05,      /* I =156 */
(PID.TID 0000.0001)                 2.135964483342134E+05,      /* I =157 */
(PID.TID 0000.0001)                 1.946503699269892E+05,      /* I =158 */
(PID.TID 0000.0001)                 1.709574999026266E+05,      /* I =159 */
(PID.TID 0000.0001)                 1.391343389937106E+05,      /* I =160 */
(PID.TID 0000.0001)                 1.114203141013064E+05,      /* I =161 */
(PID.TID 0000.0001)                 1.391343389937106E+05,      /* I =162 */
(PID.TID 0000.0001)                 1.709574999026266E+05,      /* I =163 */
(PID.TID 0000.0001)                 1.946503699269892E+05,      /* I =164 */
(PID.TID 0000.0001)                 2.135964483342134E+05,      /* I =165 */
(PID.TID 0000.0001)                 2.294195678257306E+05,      /* I =166 */
(PID.TID 0000.0001)                 2.429464709770498E+05,      /* I =167 */
(PID.TID 0000.0001)                 2.546408290696998E+05,      /* I =168 */
(PID.TID 0000.0001)                 2.647791839299727E+05,      /* I =169 */
(PID.TID 0000.0001)                 2.735321911346108E+05,      /* I =170 */
(PID.TID 0000.0001)                 2.810065951609633E+05,      /* I =171 */
(PID.TID 0000.0001)                 2.872689479506990E+05,      /* I =172 */
(PID.TID 0000.0001)                 2.923599955312932E+05,      /* I =173 */
(PID.TID 0000.0001)                 2.963038832565530E+05,      /* I =174 */
(PID.TID 0000.0001)                 2.991142470004740E+05,      /* I =175 */
(PID.TID 0000.0001)                 3.007982711627968E+05,      /* I =176 */
(PID.TID 0000.0001)                 3.013593857228136E+05,      /* I =177 */
(PID.TID 0000.0001)                 3.007982711627968E+05,      /* I =178 */
(PID.TID 0000.0001)                 2.991142470004740E+05,      /* I =179 */
(PID.TID 0000.0001)                 2.963038832565530E+05,      /* I =180 */
(PID.TID 0000.0001)                 2.923599955312932E+05,      /* I =181 */
(PID.TID 0000.0001)                 2.872689479506990E+05,      /* I =182 */
(PID.TID 0000.0001)                 2.810065951609633E+05,      /* I =183 */
(PID.TID 0000.0001)                 2.735321911346108E+05,      /* I =184 */
(PID.TID 0000.0001)                 2.647791839299727E+05,      /* I =185 */
(PID.TID 0000.0001)                 2.546408290696998E+05,      /* I =186 */
(PID.TID 0000.0001)                 2.429464709770498E+05,      /* I =187 */
(PID.TID 0000.0001)                 2.294195678257306E+05,      /* I =188 */
(PID.TID 0000.0001)                 2.135964483342134E+05,      /* I =189 */
(PID.TID 0000.0001)                 1.946503699269892E+05,      /* I =190 */
(PID.TID 0000.0001)                 1.709574999026266E+05,      /* I =191 */
(PID.TID 0000.0001)                 1.391343389937106E+05       /* I =192 */
(PID.TID 0000.0001)     ;
(PID.TID 0000.0001) dxC =  /* dxC(1,:,1,:) ( units: m ) */
(PID.TID 0000.0001)                 1.114203141013064E+05,      /* J =  1 */
(PID.TID 0000.0001)                 1.549545757850771E+05,      /* J =  2 */
(PID.TID 0000.0001)                 1.829777599966776E+05,      /* J =  3 */
(PID.TID 0000.0001)                 2.042717761866506E+05,      /* J =  4 */
(PID.TID 0000.0001)                 2.216367828252819E+05,      /* J =  5 */
(PID.TID 0000.0001)                 2.363029564123586E+05,      /* J =  6 */
(PID.TID 0000.0001)                 2.489113743322025E+05,      /* J =  7 */
(PID.TID 0000.0001)                 2.598293319150326E+05,      /* J =  8 */
(PID.TID 0000.0001)                 2.692787333338535E+05,      /* J =  9 */
(PID.TID 0000.0001)                 2.773972106720365E+05,      /* J = 10 */
(PID.TID 0000.0001)                 2.842706922224557E+05,      /* J = 11 */
(PID.TID 0000.0001)                 2.899523122489403E+05,      /* J = 12 */
(PID.TID 0000.0001)                 2.944741346384699E+05,      /* J = 13 */
(PID.TID 0000.0001)                 2.978547649292580E+05,      /* J = 14 */
(PID.TID 0000.0001)                 3.001044073506459E+05,      /* J = 15 */
(PID.TID 0000.0001)     2 @  3.012281885409289E+05,             /* J = 16: 17 */
(PID.TID 0000.0001)                 3.001044073506459E+05,      /* J = 18 */
(PID.TID 0000.0001)                 2.978547649292580E+05,      /* J = 19 */
(PID.TID 0000.0001)                 2.944741346384699E+05,      /* J = 20 */
(PID.TID 0000.0001)                 2.899523122489403E+05,      /* J = 21 */
(PID.TID 0000.0001)                 2.842706922224557E+05,      /* J = 22 */
(PID.TID 0000.0001)                 2.773972106720365E+05,      /* J = 23 */
(PID.TID 0000.0001)                 2.692787333338535E+05,      /* J = 24 */
(PID.TID 0000.0001)                 2.598293319150326E+05,      /* J = 25 */
(PID.TID 0000.0001)                 2.489113743322025E+05,      /* J = 26 */
(PID.TID 0000.0001)                 2.363029564123586E+05,      /* J = 27 */
(PID.TID 0000.0001)                 2.216367828252819E+05,      /* J = 28 */
(PID.TID 0000.0001)                 2.042717761866506E+05,      /* J = 29 */
(PID.TID 0000.0001)                 1.829777599966776E+05,      /* J = 30 */
(PID.TID 0000.0001)                 1.549545757850771E+05,      /* J = 31 */
(PID.TID 0000.0001)                 1.114203141013064E+05       /* J = 32 */
(PID.TID 0000.0001)     ;
(PID.TID 0000.0001) dyC =  /* dyC(:,1,:,1) ( units: m ) */
(PID.TID 0000.0001)                 1.114203141013064E+05,      /* I =  1 */
(PID.TID 0000.0001)                 1.549545757850771E+05,      /* I =  2 */
(PID.TID 0000.0001)                 1.829777599966776E+05,      /* I =  3 */
(PID.TID 0000.0001)                 2.042717761866506E+05,      /* I =  4 */
(PID.TID 0000.0001)                 2.216367828252819E+05,      /* I =  5 */
(PID.TID 0000.0001)                 2.363029564123586E+05,      /* I =  6 */
(PID.TID 0000.0001)                 2.489113743322025E+05,      /* I =  7 */
(PID.TID 0000.0001)                 2.598293319150326E+05,      /* I =  8 */
(PID.TID 0000.0001)                 2.692787333338535E+05,      /* I =  9 */
(PID.TID 0000.0001)                 2.773972106720365E+05,      /* I = 10 */
(PID.TID 0000.0001)                 2.842706922224557E+05,      /* I = 11 */
(PID.TID 0000.0001)                 2.899523122489403E+05,      /* I = 12 */
(PID.TID 0000.0001)                 2.944741346384699E+05,      /* I = 13 */
(PID.TID 0000.0001)                 2.978547649292580E+05,      /* I = 14 */
(PID.TID 0000.0001)                 3.001044073506459E+05,      /* I = 15 */
(PID.TID 0000.0001)     2 @  3.012281885409289E+05,             /* I = 16: 17 */
(PID.TID 0000.0001)                 3.001044073506459E+05,      /* I = 18 */
(PID.TID 0000.0001)                 2.978547649292580E+05,      /* I = 19 */
(PID.TID 0000.0001)                 2.944741346384699E+05,      /* I = 20 */
(PID.TID 0000.0001)                 2.899523122489403E+05,      /* I = 21 */
(PID.TID 0000.0001)                 2.842706922224557E+05,      /* I = 22 */
(PID.TID 0000.0001)                 2.773972106720365E+05,      /* I = 23 */
(PID.TID 0000.0001)                 2.692787333338535E+05,      /* I = 24 */
(PID.TID 0000.0001)                 2.598293319150326E+05,      /* I = 25 */
(PID.TID 0000.0001)                 2.489113743322025E+05,      /* I = 26 */
(PID.TID 0000.0001)                 2.363029564123586E+05,      /* I = 27 */
(PID.TID 0000.0001)                 2.216367828252819E+05,      /* I = 28 */
(PID.TID 0000.0001)                 2.042717761866506E+05,      /* I = 29 */
(PID.TID 0000.0001)                 1.829777599966776E+05,      /* I = 30 */
(PID.TID 0000.0001)                 1.549545757850771E+05,      /* I = 31 */
(PID.TID 0000.0001)     2 @  1.114203141013064E+05,             /* I = 32: 33 */
(PID.TID 0000.0001)                 1.549545757850771E+05,      /* I = 34 */
(PID.TID 0000.0001)                 1.829777599966776E+05,      /* I = 35 */
(PID.TID 0000.0001)                 2.042717761866506E+05,      /* I = 36 */
(PID.TID 0000.0001)                 2.216367828252819E+05,      /* I = 37 */
(PID.TID 0000.0001)                 2.363029564123586E+05,      /* I = 38 */
(PID.TID 0000.0001)                 2.489113743322025E+05,      /* I = 39 */
(PID.TID 0000.0001)                 2.598293319150326E+05,      /* I = 40 */
(PID.TID 0000.0001)                 2.692787333338535E+05,      /* I = 41 */
(PID.TID 0000.0001)                 2.773972106720365E+05,      /* I = 42 */
(PID.TID 0000.0001)                 2.842706922224557E+05,      /* I = 43 */
(PID.TID 0000.0001)                 2.899523122489403E+05,      /* I = 44 */
(PID.TID 0000.0001)                 2.944741346384699E+05,      /* I = 45 */
(PID.TID 0000.0001)                 2.978547649292580E+05,      /* I = 46 */
(PID.TID 0000.0001)                 3.001044073506459E+05,      /* I = 47 */
(PID.TID 0000.0001)     2 @  3.012281885409289E+05,             /* I = 48: 49 */
(PID.TID 0000.0001)                 3.001044073506459E+05,      /* I = 50 */
(PID.TID 0000.0001)                 2.978547649292580E+05,      /* I = 51 */
(PID.TID 0000.0001)                 2.944741346384699E+05,      /* I = 52 */
(PID.TID 0000.0001)                 2.899523122489403E+05,      /* I = 53 */
(PID.TID 0000.0001)                 2.842706922224557E+05,      /* I = 54 */
(PID.TID 0000.0001)                 2.773972106720365E+05,      /* I = 55 */
(PID.TID 0000.0001)                 2.692787333338535E+05,      /* I = 56 */
(PID.TID 0000.0001)                 2.598293319150326E+05,      /* I = 57 */
(PID.TID 0000.0001)                 2.489113743322025E+05,      /* I = 58 */
(PID.TID 0000.0001)                 2.363029564123586E+05,      /* I = 59 */
(PID.TID 0000.0001)                 2.216367828252819E+05,      /* I = 60 */
(PID.TID 0000.0001)                 2.042717761866506E+05,      /* I = 61 */
(PID.TID 0000.0001)                 1.829777599966776E+05,      /* I = 62 */
(PID.TID 0000.0001)                 1.549545757850771E+05,      /* I = 63 */
(PID.TID 0000.0001)     2 @  1.114203141013064E+05,             /* I = 64: 65 */
(PID.TID 0000.0001)                 1.549545757850771E+05,      /* I = 66 */
(PID.TID 0000.0001)                 1.829777599966776E+05,      /* I = 67 */
(PID.TID 0000.0001)                 2.042717761866506E+05,      /* I = 68 */
(PID.TID 0000.0001)                 2.216367828252819E+05,      /* I = 69 */
(PID.TID 0000.0001)                 2.363029564123586E+05,      /* I = 70 */
(PID.TID 0000.0001)                 2.489113743322025E+05,      /* I = 71 */
(PID.TID 0000.0001)                 2.598293319150326E+05,      /* I = 72 */
(PID.TID 0000.0001)                 2.692787333338535E+05,      /* I = 73 */
(PID.TID 0000.0001)                 2.773972106720365E+05,      /* I = 74 */
(PID.TID 0000.0001)                 2.842706922224557E+05,      /* I = 75 */
(PID.TID 0000.0001)                 2.899523122489403E+05,      /* I = 76 */
(PID.TID 0000.0001)                 2.944741346384699E+05,      /* I = 77 */
(PID.TID 0000.0001)                 2.978547649292580E+05,      /* I = 78 */
(PID.TID 0000.0001)                 3.001044073506459E+05,      /* I = 79 */
(PID.TID 0000.0001)     2 @  3.012281885409289E+05,             /* I = 80: 81 */
(PID.TID 0000.0001)                 3.001044073506459E+05,      /* I = 82 */
(PID.TID 0000.0001)                 2.978547649292580E+05,      /* I = 83 */
(PID.TID 0000.0001)                 2.944741346384699E+05,      /* I = 84 */
(PID.TID 0000.0001)                 2.899523122489403E+05,      /* I = 85 */
(PID.TID 0000.0001)                 2.842706922224557E+05,      /* I = 86 */
(PID.TID 0000.0001)                 2.773972106720365E+05,      /* I = 87 */
(PID.TID 0000.0001)                 2.692787333338535E+05,      /* I = 88 */
(PID.TID 0000.0001)                 2.598293319150326E+05,      /* I = 89 */
(PID.TID 0000.0001)                 2.489113743322025E+05,      /* I = 90 */
(PID.TID 0000.0001)                 2.363029564123586E+05,      /* I = 91 */
(PID.TID 0000.0001)                 2.216367828252819E+05,      /* I = 92 */
(PID.TID 0000.0001)                 2.042717761866506E+05,      /* I = 93 */
(PID.TID 0000.0001)                 1.829777599966776E+05,      /* I = 94 */
(PID.TID 0000.0001)                 1.549545757850771E+05,      /* I = 95 */
(PID.TID 0000.0001)     2 @  1.114203141013064E+05,             /* I = 96: 97 */
(PID.TID 0000.0001)                 1.549545757850771E+05,      /* I = 98 */
(PID.TID 0000.0001)                 1.829777599966776E+05,      /* I = 99 */
(PID.TID 0000.0001)                 2.042717761866506E+05,      /* I =100 */
(PID.TID 0000.0001)                 2.216367828252819E+05,      /* I =101 */
(PID.TID 0000.0001)                 2.363029564123586E+05,      /* I =102 */
(PID.TID 0000.0001)                 2.489113743322025E+05,      /* I =103 */
(PID.TID 0000.0001)                 2.598293319150326E+05,      /* I =104 */
(PID.TID 0000.0001)                 2.692787333338535E+05,      /* I =105 */
(PID.TID 0000.0001)                 2.773972106720365E+05,      /* I =106 */
(PID.TID 0000.0001)                 2.842706922224557E+05,      /* I =107 */
(PID.TID 0000.0001)                 2.899523122489403E+05,      /* I =108 */
(PID.TID 0000.0001)                 2.944741346384699E+05,      /* I =109 */
(PID.TID 0000.0001)                 2.978547649292580E+05,      /* I =110 */
(PID.TID 0000.0001)                 3.001044073506459E+05,      /* I =111 */
(PID.TID 0000.0001)     2 @  3.012281885409289E+05,             /* I =112:113 */
(PID.TID 0000.0001)                 3.001044073506459E+05,      /* I =114 */
(PID.TID 0000.0001)                 2.978547649292580E+05,      /* I =115 */
(PID.TID 0000.0001)                 2.944741346384699E+05,      /* I =116 */
(PID.TID 0000.0001)                 2.899523122489403E+05,      /* I =117 */
(PID.TID 0000.0001)                 2.842706922224557E+05,      /* I =118 */
(PID.TID 0000.0001)                 2.773972106720365E+05,      /* I =119 */
(PID.TID 0000.0001)                 2.692787333338535E+05,      /* I =120 */
(PID.TID 0000.0001)                 2.598293319150326E+05,      /* I =121 */
(PID.TID 0000.0001)                 2.489113743322025E+05,      /* I =122 */
(PID.TID 0000.0001)                 2.363029564123586E+05,      /* I =123 */
(PID.TID 0000.0001)                 2.216367828252819E+05,      /* I =124 */
(PID.TID 0000.0001)                 2.042717761866506E+05,      /* I =125 */
(PID.TID 0000.0001)                 1.829777599966776E+05,      /* I =126 */
(PID.TID 0000.0001)                 1.549545757850771E+05,      /* I =127 */
(PID.TID 0000.0001)     2 @  1.114203141013064E+05,             /* I =128:129 */
(PID.TID 0000.0001)                 1.549545757850771E+05,      /* I =130 */
(PID.TID 0000.0001)                 1.829777599966776E+05,      /* I =131 */
(PID.TID 0000.0001)                 2.042717761866506E+05,      /* I =132 */
(PID.TID 0000.0001)                 2.216367828252819E+05,      /* I =133 */
(PID.TID 0000.0001)                 2.363029564123586E+05,      /* I =134 */
(PID.TID 0000.0001)                 2.489113743322025E+05,      /* I =135 */
(PID.TID 0000.0001)                 2.598293319150326E+05,      /* I =136 */
(PID.TID 0000.0001)                 2.692787333338535E+05,      /* I =137 */
(PID.TID 0000.0001)                 2.773972106720365E+05,      /* I =138 */
(PID.TID 0000.0001)                 2.842706922224557E+05,      /* I =139 */
(PID.TID 0000.0001)                 2.899523122489403E+05,      /* I =140 */
(PID.TID 0000.0001)                 2.944741346384699E+05,      /* I =141 */
(PID.TID 0000.0001)                 2.978547649292580E+05,      /* I =142 */
(PID.TID 0000.0001)                 3.001044073506459E+05,      /* I =143 */
(PID.TID 0000.0001)     2 @  3.012281885409289E+05,             /* I =144:145 */
(PID.TID 0000.0001)                 3.001044073506459E+05,      /* I =146 */
(PID.TID 0000.0001)                 2.978547649292580E+05,      /* I =147 */
(PID.TID 0000.0001)                 2.944741346384699E+05,      /* I =148 */
(PID.TID 0000.0001)                 2.899523122489403E+05,      /* I =149 */
(PID.TID 0000.0001)                 2.842706922224557E+05,      /* I =150 */
(PID.TID 0000.0001)                 2.773972106720365E+05,      /* I =151 */
(PID.TID 0000.0001)                 2.692787333338535E+05,      /* I =152 */
(PID.TID 0000.0001)                 2.598293319150326E+05,      /* I =153 */
(PID.TID 0000.0001)                 2.489113743322025E+05,      /* I =154 */
(PID.TID 0000.0001)                 2.363029564123586E+05,      /* I =155 */
(PID.TID 0000.0001)                 2.216367828252819E+05,      /* I =156 */
(PID.TID 0000.0001)                 2.042717761866506E+05,      /* I =157 */
(PID.TID 0000.0001)                 1.829777599966776E+05,      /* I =158 */
(PID.TID 0000.0001)                 1.549545757850771E+05,      /* I =159 */
(PID.TID 0000.0001)     2 @  1.114203141013064E+05,             /* I =160:161 */
(PID.TID 0000.0001)                 1.549545757850771E+05,      /* I =162 */
(PID.TID 0000.0001)                 1.829777599966776E+05,      /* I =163 */
(PID.TID 0000.0001)                 2.042717761866506E+05,      /* I =164 */
(PID.TID 0000.0001)                 2.216367828252819E+05,      /* I =165 */
(PID.TID 0000.0001)                 2.363029564123586E+05,      /* I =166 */
(PID.TID 0000.0001)                 2.489113743322025E+05,      /* I =167 */
(PID.TID 0000.0001)                 2.598293319150326E+05,      /* I =168 */
(PID.TID 0000.0001)                 2.692787333338535E+05,      /* I =169 */
(PID.TID 0000.0001)                 2.773972106720365E+05,      /* I =170 */
(PID.TID 0000.0001)                 2.842706922224557E+05,      /* I =171 */
(PID.TID 0000.0001)                 2.899523122489403E+05,      /* I =172 */
(PID.TID 0000.0001)                 2.944741346384699E+05,      /* I =173 */
(PID.TID 0000.0001)                 2.978547649292580E+05,      /* I =174 */
(PID.TID 0000.0001)                 3.001044073506459E+05,      /* I =175 */
(PID.TID 0000.0001)     2 @  3.012281885409289E+05,             /* I =176:177 */
(PID.TID 0000.0001)                 3.001044073506459E+05,      /* I =178 */
(PID.TID 0000.0001)                 2.978547649292580E+05,      /* I =179 */
(PID.TID 0000.0001)                 2.944741346384699E+05,      /* I =180 */
(PID.TID 0000.0001)                 2.899523122489403E+05,      /* I =181 */
(PID.TID 0000.0001)                 2.842706922224557E+05,      /* I =182 */
(PID.TID 0000.0001)                 2.773972106720365E+05,      /* I =183 */
(PID.TID 0000.0001)                 2.692787333338535E+05,      /* I =184 */
(PID.TID 0000.0001)                 2.598293319150326E+05,      /* I =185 */
(PID.TID 0000.0001)                 2.489113743322025E+05,      /* I =186 */
(PID.TID 0000.0001)                 2.363029564123586E+05,      /* I =187 */
(PID.TID 0000.0001)                 2.216367828252819E+05,      /* I =188 */
(PID.TID 0000.0001)                 2.042717761866506E+05,      /* I =189 */
(PID.TID 0000.0001)                 1.829777599966776E+05,      /* I =190 */
(PID.TID 0000.0001)                 1.549545757850771E+05,      /* I =191 */
(PID.TID 0000.0001)                 1.114203141013064E+05       /* I =192 */
(PID.TID 0000.0001)     ;
(PID.TID 0000.0001) dyC =  /* dyC(1,:,1,:) ( units: m ) */
(PID.TID 0000.0001)                 1.114203141013064E+05,      /* J =  1 */
(PID.TID 0000.0001)                 1.391343389937106E+05,      /* J =  2 */
(PID.TID 0000.0001)                 1.709574999026266E+05,      /* J =  3 */
(PID.TID 0000.0001)                 1.946503699269892E+05,      /* J =  4 */
(PID.TID 0000.0001)                 2.135964483342134E+05,      /* J =  5 */
(PID.TID 0000.0001)                 2.294195678257306E+05,      /* J =  6 */
(PID.TID 0000.0001)                 2.429464709770498E+05,      /* J =  7 */
(PID.TID 0000.0001)                 2.546408290696998E+05,      /* J =  8 */
(PID.TID 0000.0001)                 2.647791839299727E+05,      /* J =  9 */
(PID.TID 0000.0001)                 2.735321911346108E+05,      /* J = 10 */
(PID.TID 0000.0001)                 2.810065951609633E+05,      /* J = 11 */
(PID.TID 0000.0001)                 2.872689479506990E+05,      /* J = 12 */
(PID.TID 0000.0001)                 2.923599955312932E+05,      /* J = 13 */
(PID.TID 0000.0001)                 2.963038832565530E+05,      /* J = 14 */
(PID.TID 0000.0001)                 2.991142470004740E+05,      /* J = 15 */
(PID.TID 0000.0001)                 3.007982711627968E+05,      /* J = 16 */
(PID.TID 0000.0001)                 3.013593857228136E+05,      /* J = 17 */
(PID.TID 0000.0001)                 3.007982711627968E+05,      /* J = 18 */
(PID.TID 0000.0001)                 2.991142470004740E+05,      /* J = 19 */
(PID.TID 0000.0001)                 2.963038832565530E+05,      /* J = 20 */
(PID.TID 0000.0001)                 2.923599955312932E+05,      /* J = 21 */
(PID.TID 0000.0001)                 2.872689479506990E+05,      /* J = 22 */
(PID.TID 0000.0001)                 2.810065951609633E+05,      /* J = 23 */
(PID.TID 0000.0001)                 2.735321911346108E+05,      /* J = 24 */
(PID.TID 0000.0001)                 2.647791839299727E+05,      /* J = 25 */
(PID.TID 0000.0001)                 2.546408290696998E+05,      /* J = 26 */
(PID.TID 0000.0001)                 2.429464709770498E+05,      /* J = 27 */
(PID.TID 0000.0001)                 2.294195678257306E+05,      /* J = 28 */
(PID.TID 0000.0001)                 2.135964483342134E+05,      /* J = 29 */
(PID.TID 0000.0001)                 1.946503699269892E+05,      /* J = 30 */
(PID.TID 0000.0001)                 1.709574999026266E+05,      /* J = 31 */
(PID.TID 0000.0001)                 1.391343389937106E+05       /* J = 32 */
(PID.TID 0000.0001)     ;
(PID.TID 0000.0001) dxV =  /* dxV(:,1,:,1) ( units: m ) */
(PID.TID 0000.0001)                 8.015229982413632E+04,      /* I =  1 */
(PID.TID 0000.0001)                 1.333130744933864E+05,      /* I =  2 */
(PID.TID 0000.0001)                 1.691744868129062E+05,      /* I =  3 */
(PID.TID 0000.0001)                 1.937548202849060E+05,      /* I =  4 */
(PID.TID 0000.0001)                 2.130490056267208E+05,      /* I =  5 */
(PID.TID 0000.0001)                 2.290479919481738E+05,      /* I =  6 */
(PID.TID 0000.0001)                 2.426774358027003E+05,      /* I =  7 */
(PID.TID 0000.0001)                 2.544372984215561E+05,      /* I =  8 */
(PID.TID 0000.0001)                 2.646201463834826E+05,      /* I =  9 */
(PID.TID 0000.0001)                 2.734046499619031E+05,      /* I = 10 */
(PID.TID 0000.0001)                 2.809019351693761E+05,      /* I = 11 */
(PID.TID 0000.0001)                 2.871811105274442E+05,      /* I = 12 */
(PID.TID 0000.0001)                 2.922844849381675E+05,      /* I = 13 */
(PID.TID 0000.0001)                 2.962371870847826E+05,      /* I = 14 */
(PID.TID 0000.0001)                 2.990534755671296E+05,      /* I = 15 */
(PID.TID 0000.0001)                 3.007409169495504E+05,      /* I = 16 */
(PID.TID 0000.0001)                 3.013031486919771E+05,      /* I = 17 */
(PID.TID 0000.0001)                 3.007409169495504E+05,      /* I = 18 */
(PID.TID 0000.0001)                 2.990534755671296E+05,      /* I = 19 */
(PID.TID 0000.0001)                 2.962371870847826E+05,      /* I = 20 */
(PID.TID 0000.0001)                 2.922844849381675E+05,      /* I = 21 */
(PID.TID 0000.0001)                 2.871811105274442E+05,      /* I = 22 */
(PID.TID 0000.0001)                 2.809019351693761E+05,      /* I = 23 */
(PID.TID 0000.0001)                 2.734046499619031E+05,      /* I = 24 */
(PID.TID 0000.0001)                 2.646201463834826E+05,      /* I = 25 */
(PID.TID 0000.0001)                 2.544372984215561E+05,      /* I = 26 */
(PID.TID 0000.0001)                 2.426774358027003E+05,      /* I = 27 */
(PID.TID 0000.0001)                 2.290479919481738E+05,      /* I = 28 */
(PID.TID 0000.0001)                 2.130490056267208E+05,      /* I = 29 */
(PID.TID 0000.0001)                 1.937548202849060E+05,      /* I = 30 */
(PID.TID 0000.0001)                 1.691744868129062E+05,      /* I = 31 */
(PID.TID 0000.0001)                 1.333130744933864E+05,      /* I = 32 */
(PID.TID 0000.0001)                 8.015229982413632E+04,      /* I = 33 */
(PID.TID 0000.0001)                 1.333130744933864E+05,      /* I = 34 */
(PID.TID 0000.0001)                 1.691744868129062E+05,      /* I = 35 */
(PID.TID 0000.0001)                 1.937548202849060E+05,      /* I = 36 */
(PID.TID 0000.0001)                 2.130490056267208E+05,      /* I = 37 */
(PID.TID 0000.0001)                 2.290479919481738E+05,      /* I = 38 */
(PID.TID 0000.0001)                 2.426774358027003E+05,      /* I = 39 */
(PID.TID 0000.0001)                 2.544372984215561E+05,      /* I = 40 */
(PID.TID 0000.0001)                 2.646201463834826E+05,      /* I = 41 */
(PID.TID 0000.0001)                 2.734046499619031E+05,      /* I = 42 */
(PID.TID 0000.0001)                 2.809019351693761E+05,      /* I = 43 */
(PID.TID 0000.0001)                 2.871811105274442E+05,      /* I = 44 */
(PID.TID 0000.0001)                 2.922844849381675E+05,      /* I = 45 */
(PID.TID 0000.0001)                 2.962371870847826E+05,      /* I = 46 */
(PID.TID 0000.0001)                 2.990534755671296E+05,      /* I = 47 */
(PID.TID 0000.0001)                 3.007409169495504E+05,      /* I = 48 */
(PID.TID 0000.0001)                 3.013031486919771E+05,      /* I = 49 */
(PID.TID 0000.0001)                 3.007409169495504E+05,      /* I = 50 */
(PID.TID 0000.0001)                 2.990534755671296E+05,      /* I = 51 */
(PID.TID 0000.0001)                 2.962371870847826E+05,      /* I = 52 */
(PID.TID 0000.0001)                 2.922844849381675E+05,      /* I = 53 */
(PID.TID 0000.0001)                 2.871811105274442E+05,      /* I = 54 */
(PID.TID 0000.0001)                 2.809019351693761E+05,      /* I = 55 */
(PID.TID 0000.0001)                 2.734046499619031E+05,      /* I = 56 */
(PID.TID 0000.0001)                 2.646201463834826E+05,      /* I = 57 */
(PID.TID 0000.0001)                 2.544372984215561E+05,      /* I = 58 */
(PID.TID 0000.0001)                 2.426774358027003E+05,      /* I = 59 */
(PID.TID 0000.0001)                 2.290479919481738E+05,      /* I = 60 */
(PID.TID 0000.0001)                 2.130490056267208E+05,      /* I = 61 */
(PID.TID 0000.0001)                 1.937548202849060E+05,      /* I = 62 */
(PID.TID 0000.0001)                 1.691744868129062E+05,      /* I = 63 */
(PID.TID 0000.0001)                 1.333130744933864E+05,      /* I = 64 */
(PID.TID 0000.0001)                 8.015229982413632E+04,      /* I = 65 */
(PID.TID 0000.0001)                 1.333130744933864E+05,      /* I = 66 */
(PID.TID 0000.0001)                 1.691744868129062E+05,      /* I = 67 */
(PID.TID 0000.0001)                 1.937548202849060E+05,      /* I = 68 */
(PID.TID 0000.0001)                 2.130490056267208E+05,      /* I = 69 */
(PID.TID 0000.0001)                 2.290479919481738E+05,      /* I = 70 */
(PID.TID 0000.0001)                 2.426774358027003E+05,      /* I = 71 */
(PID.TID 0000.0001)                 2.544372984215561E+05,      /* I = 72 */
(PID.TID 0000.0001)                 2.646201463834826E+05,      /* I = 73 */
(PID.TID 0000.0001)                 2.734046499619031E+05,      /* I = 74 */
(PID.TID 0000.0001)                 2.809019351693761E+05,      /* I = 75 */
(PID.TID 0000.0001)                 2.871811105274442E+05,      /* I = 76 */
(PID.TID 0000.0001)                 2.922844849381675E+05,      /* I = 77 */
(PID.TID 0000.0001)                 2.962371870847826E+05,      /* I = 78 */
(PID.TID 0000.0001)                 2.990534755671296E+05,      /* I = 79 */
(PID.TID 0000.0001)                 3.007409169495504E+05,      /* I = 80 */
(PID.TID 0000.0001)                 3.013031486919771E+05,      /* I = 81 */
(PID.TID 0000.0001)                 3.007409169495504E+05,      /* I = 82 */
(PID.TID 0000.0001)                 2.990534755671296E+05,      /* I = 83 */
(PID.TID 0000.0001)                 2.962371870847826E+05,      /* I = 84 */
(PID.TID 0000.0001)                 2.922844849381675E+05,      /* I = 85 */
(PID.TID 0000.0001)                 2.871811105274442E+05,      /* I = 86 */
(PID.TID 0000.0001)                 2.809019351693761E+05,      /* I = 87 */
(PID.TID 0000.0001)                 2.734046499619031E+05,      /* I = 88 */
(PID.TID 0000.0001)                 2.646201463834826E+05,      /* I = 89 */
(PID.TID 0000.0001)                 2.544372984215561E+05,      /* I = 90 */
(PID.TID 0000.0001)                 2.426774358027003E+05,      /* I = 91 */
(PID.TID 0000.0001)                 2.290479919481738E+05,      /* I = 92 */
(PID.TID 0000.0001)                 2.130490056267208E+05,      /* I = 93 */
(PID.TID 0000.0001)                 1.937548202849060E+05,      /* I = 94 */
(PID.TID 0000.0001)                 1.691744868129062E+05,      /* I = 95 */
(PID.TID 0000.0001)                 1.333130744933864E+05,      /* I = 96 */
(PID.TID 0000.0001)                 8.015229982413632E+04,      /* I = 97 */
(PID.TID 0000.0001)                 1.333130744933864E+05,      /* I = 98 */
(PID.TID 0000.0001)                 1.691744868129062E+05,      /* I = 99 */
(PID.TID 0000.0001)                 1.937548202849060E+05,      /* I =100 */
(PID.TID 0000.0001)                 2.130490056267208E+05,      /* I =101 */
(PID.TID 0000.0001)                 2.290479919481738E+05,      /* I =102 */
(PID.TID 0000.0001)                 2.426774358027003E+05,      /* I =103 */
(PID.TID 0000.0001)                 2.544372984215561E+05,      /* I =104 */
(PID.TID 0000.0001)                 2.646201463834826E+05,      /* I =105 */
(PID.TID 0000.0001)                 2.734046499619031E+05,      /* I =106 */
(PID.TID 0000.0001)                 2.809019351693761E+05,      /* I =107 */
(PID.TID 0000.0001)                 2.871811105274442E+05,      /* I =108 */
(PID.TID 0000.0001)                 2.922844849381675E+05,      /* I =109 */
(PID.TID 0000.0001)                 2.962371870847826E+05,      /* I =110 */
(PID.TID 0000.0001)                 2.990534755671296E+05,      /* I =111 */
(PID.TID 0000.0001)                 3.007409169495504E+05,      /* I =112 */
(PID.TID 0000.0001)                 3.013031486919771E+05,      /* I =113 */
(PID.TID 0000.0001)                 3.007409169495504E+05,      /* I =114 */
(PID.TID 0000.0001)                 2.990534755671296E+05,      /* I =115 */
(PID.TID 0000.0001)                 2.962371870847826E+05,      /* I =116 */
(PID.TID 0000.0001)                 2.922844849381675E+05,      /* I =117 */
(PID.TID 0000.0001)                 2.871811105274442E+05,      /* I =118 */
(PID.TID 0000.0001)                 2.809019351693761E+05,      /* I =119 */
(PID.TID 0000.0001)                 2.734046499619031E+05,      /* I =120 */
(PID.TID 0000.0001)                 2.646201463834826E+05,      /* I =121 */
(PID.TID 0000.0001)                 2.544372984215561E+05,      /* I =122 */
(PID.TID 0000.0001)                 2.426774358027003E+05,      /* I =123 */
(PID.TID 0000.0001)                 2.290479919481738E+05,      /* I =124 */
(PID.TID 0000.0001)                 2.130490056267208E+05,      /* I =125 */
(PID.TID 0000.0001)                 1.937548202849060E+05,      /* I =126 */
(PID.TID 0000.0001)                 1.691744868129062E+05,      /* I =127 */
(PID.TID 0000.0001)                 1.333130744933864E+05,      /* I =128 */
(PID.TID 0000.0001)                 8.015229982413632E+04,      /* I =129 */
(PID.TID 0000.0001)                 1.333130744933864E+05,      /* I =130 */
(PID.TID 0000.0001)                 1.691744868129062E+05,      /* I =131 */
(PID.TID 0000.0001)                 1.937548202849060E+05,      /* I =132 */
(PID.TID 0000.0001)                 2.130490056267208E+05,      /* I =133 */
(PID.TID 0000.0001)                 2.290479919481738E+05,      /* I =134 */
(PID.TID 0000.0001)                 2.426774358027003E+05,      /* I =135 */
(PID.TID 0000.0001)                 2.544372984215561E+05,      /* I =136 */
(PID.TID 0000.0001)                 2.646201463834826E+05,      /* I =137 */
(PID.TID 0000.0001)                 2.734046499619031E+05,      /* I =138 */
(PID.TID 0000.0001)                 2.809019351693761E+05,      /* I =139 */
(PID.TID 0000.0001)                 2.871811105274442E+05,      /* I =140 */
(PID.TID 0000.0001)                 2.922844849381675E+05,      /* I =141 */
(PID.TID 0000.0001)                 2.962371870847826E+05,      /* I =142 */
(PID.TID 0000.0001)                 2.990534755671296E+05,      /* I =143 */
(PID.TID 0000.0001)                 3.007409169495504E+05,      /* I =144 */
(PID.TID 0000.0001)                 3.013031486919771E+05,      /* I =145 */
(PID.TID 0000.0001)                 3.007409169495504E+05,      /* I =146 */
(PID.TID 0000.0001)                 2.990534755671296E+05,      /* I =147 */
(PID.TID 0000.0001)                 2.962371870847826E+05,      /* I =148 */
(PID.TID 0000.0001)                 2.922844849381675E+05,      /* I =149 */
(PID.TID 0000.0001)                 2.871811105274442E+05,      /* I =150 */
(PID.TID 0000.0001)                 2.809019351693761E+05,      /* I =151 */
(PID.TID 0000.0001)                 2.734046499619031E+05,      /* I =152 */
(PID.TID 0000.0001)                 2.646201463834826E+05,      /* I =153 */
(PID.TID 0000.0001)                 2.544372984215561E+05,      /* I =154 */
(PID.TID 0000.0001)                 2.426774358027003E+05,      /* I =155 */
(PID.TID 0000.0001)                 2.290479919481738E+05,      /* I =156 */
(PID.TID 0000.0001)                 2.130490056267208E+05,      /* I =157 */
(PID.TID 0000.0001)                 1.937548202849060E+05,      /* I =158 */
(PID.TID 0000.0001)                 1.691744868129062E+05,      /* I =159 */
(PID.TID 0000.0001)                 1.333130744933864E+05,      /* I =160 */
(PID.TID 0000.0001)                 8.015229982413632E+04,      /* I =161 */
(PID.TID 0000.0001)                 1.333130744933864E+05,      /* I =162 */
(PID.TID 0000.0001)                 1.691744868129062E+05,      /* I =163 */
(PID.TID 0000.0001)                 1.937548202849060E+05,      /* I =164 */
(PID.TID 0000.0001)                 2.130490056267208E+05,      /* I =165 */
(PID.TID 0000.0001)                 2.290479919481738E+05,      /* I =166 */
(PID.TID 0000.0001)                 2.426774358027003E+05,      /* I =167 */
(PID.TID 0000.0001)                 2.544372984215561E+05,      /* I =168 */
(PID.TID 0000.0001)                 2.646201463834826E+05,      /* I =169 */
(PID.TID 0000.0001)                 2.734046499619031E+05,      /* I =170 */
(PID.TID 0000.0001)                 2.809019351693761E+05,      /* I =171 */
(PID.TID 0000.0001)                 2.871811105274442E+05,      /* I =172 */
(PID.TID 0000.0001)                 2.922844849381675E+05,      /* I =173 */
(PID.TID 0000.0001)                 2.962371870847826E+05,      /* I =174 */
(PID.TID 0000.0001)                 2.990534755671296E+05,      /* I =175 */
(PID.TID 0000.0001)                 3.007409169495504E+05,      /* I =176 */
(PID.TID 0000.0001)                 3.013031486919771E+05,      /* I =177 */
(PID.TID 0000.0001)                 3.007409169495504E+05,      /* I =178 */
(PID.TID 0000.0001)                 2.990534755671296E+05,      /* I =179 */
(PID.TID 0000.0001)                 2.962371870847826E+05,      /* I =180 */
(PID.TID 0000.0001)                 2.922844849381675E+05,      /* I =181 */
(PID.TID 0000.0001)                 2.871811105274442E+05,      /* I =182 */
(PID.TID 0000.0001)                 2.809019351693761E+05,      /* I =183 */
(PID.TID 0000.0001)                 2.734046499619031E+05,      /* I =184 */
(PID.TID 0000.0001)                 2.646201463834826E+05,      /* I =185 */
(PID.TID 0000.0001)                 2.544372984215561E+05,      /* I =186 */
(PID.TID 0000.0001)                 2.426774358027003E+05,      /* I =187 */
(PID.TID 0000.0001)                 2.290479919481738E+05,      /* I =188 */
(PID.TID 0000.0001)                 2.130490056267208E+05,      /* I =189 */
(PID.TID 0000.0001)                 1.937548202849060E+05,      /* I =190 */
(PID.TID 0000.0001)                 1.691744868129062E+05,      /* I =191 */
(PID.TID 0000.0001)                 1.333130744933864E+05       /* I =192 */
(PID.TID 0000.0001)     ;
(PID.TID 0000.0001) dxV =  /* dxV(1,:,1,:) ( units: m ) */
(PID.TID 0000.0001)                 8.015229982413632E+04,      /* J =  1 */
(PID.TID 0000.0001)                 1.362652340208229E+05,      /* J =  2 */
(PID.TID 0000.0001)                 1.701080315742101E+05,      /* J =  3 */
(PID.TID 0000.0001)                 1.942331448101592E+05,      /* J =  4 */
(PID.TID 0000.0001)                 2.133486626971531E+05,      /* J =  5 */
(PID.TID 0000.0001)                 2.292584591272880E+05,      /* J =  6 */
(PID.TID 0000.0001)                 2.428369969078989E+05,      /* J =  7 */
(PID.TID 0000.0001)                 2.545652950875683E+05,      /* J =  8 */
(PID.TID 0000.0001)                 2.647274964828301E+05,      /* J =  9 */
(PID.TID 0000.0001)                 2.734980225206389E+05,      /* J = 10 */
(PID.TID 0000.0001)                 2.809856491525217E+05,      /* J = 11 */
(PID.TID 0000.0001)                 2.872580915202295E+05,      /* J = 12 */
(PID.TID 0000.0001)                 2.923567890694162E+05,      /* J = 13 */
(PID.TID 0000.0001)                 2.963063101754721E+05,      /* J = 14 */
(PID.TID 0000.0001)                 2.991205495886625E+05,      /* J = 15 */
(PID.TID 0000.0001)                 3.008068453676764E+05,      /* J = 16 */
(PID.TID 0000.0001)                 3.013686170436881E+05,      /* J = 17 */
(PID.TID 0000.0001)                 3.008068453676764E+05,      /* J = 18 */
(PID.TID 0000.0001)                 2.991205495886625E+05,      /* J = 19 */
(PID.TID 0000.0001)                 2.963063101754721E+05,      /* J = 20 */
(PID.TID 0000.0001)                 2.923567890694162E+05,      /* J = 21 */
(PID.TID 0000.0001)                 2.872580915202295E+05,      /* J = 22 */
(PID.TID 0000.0001)                 2.809856491525217E+05,      /* J = 23 */
(PID.TID 0000.0001)                 2.734980225206389E+05,      /* J = 24 */
(PID.TID 0000.0001)                 2.647274964828301E+05,      /* J = 25 */
(PID.TID 0000.0001)                 2.545652950875683E+05,      /* J = 26 */
(PID.TID 0000.0001)                 2.428369969078989E+05,      /* J = 27 */
(PID.TID 0000.0001)                 2.292584591272880E+05,      /* J = 28 */
(PID.TID 0000.0001)                 2.133486626971531E+05,      /* J = 29 */
(PID.TID 0000.0001)                 1.942331448101592E+05,      /* J = 30 */
(PID.TID 0000.0001)                 1.701080315742101E+05,      /* J = 31 */
(PID.TID 0000.0001)                 1.362652340208229E+05       /* J = 32 */
(PID.TID 0000.0001)     ;
(PID.TID 0000.0001) dyU =  /* dyU(:,1,:,1) ( units: m ) */
(PID.TID 0000.0001)                 8.015229982413632E+04,      /* I =  1 */
(PID.TID 0000.0001)                 1.362652340208229E+05,      /* I =  2 */
(PID.TID 0000.0001)                 1.701080315742101E+05,      /* I =  3 */
(PID.TID 0000.0001)                 1.942331448101592E+05,      /* I =  4 */
(PID.TID 0000.0001)                 2.133486626971531E+05,      /* I =  5 */
(PID.TID 0000.0001)                 2.292584591272880E+05,      /* I =  6 */
(PID.TID 0000.0001)                 2.428369969078989E+05,      /* I =  7 */
(PID.TID 0000.0001)                 2.545652950875683E+05,      /* I =  8 */
(PID.TID 0000.0001)                 2.647274964828301E+05,      /* I =  9 */
(PID.TID 0000.0001)                 2.734980225206389E+05,      /* I = 10 */
(PID.TID 0000.0001)                 2.809856491525217E+05,      /* I = 11 */
(PID.TID 0000.0001)                 2.872580915202295E+05,      /* I = 12 */
(PID.TID 0000.0001)                 2.923567890694162E+05,      /* I = 13 */
(PID.TID 0000.0001)                 2.963063101754721E+05,      /* I = 14 */
(PID.TID 0000.0001)                 2.991205495886625E+05,      /* I = 15 */
(PID.TID 0000.0001)                 3.008068453676764E+05,      /* I = 16 */
(PID.TID 0000.0001)                 3.013686170436881E+05,      /* I = 17 */
(PID.TID 0000.0001)                 3.008068453676764E+05,      /* I = 18 */
(PID.TID 0000.0001)                 2.991205495886625E+05,      /* I = 19 */
(PID.TID 0000.0001)                 2.963063101754721E+05,      /* I = 20 */
(PID.TID 0000.0001)                 2.923567890694162E+05,      /* I = 21 */
(PID.TID 0000.0001)                 2.872580915202295E+05,      /* I = 22 */
(PID.TID 0000.0001)                 2.809856491525217E+05,      /* I = 23 */
(PID.TID 0000.0001)                 2.734980225206389E+05,      /* I = 24 */
(PID.TID 0000.0001)                 2.647274964828301E+05,      /* I = 25 */
(PID.TID 0000.0001)                 2.545652950875683E+05,      /* I = 26 */
(PID.TID 0000.0001)                 2.428369969078989E+05,      /* I = 27 */
(PID.TID 0000.0001)                 2.292584591272880E+05,      /* I = 28 */
(PID.TID 0000.0001)                 2.133486626971531E+05,      /* I = 29 */
(PID.TID 0000.0001)                 1.942331448101592E+05,      /* I = 30 */
(PID.TID 0000.0001)                 1.701080315742101E+05,      /* I = 31 */
(PID.TID 0000.0001)                 1.362652340208229E+05,      /* I = 32 */
(PID.TID 0000.0001)                 8.015229982413632E+04,      /* I = 33 */
(PID.TID 0000.0001)                 1.362652340208229E+05,      /* I = 34 */
(PID.TID 0000.0001)                 1.701080315742101E+05,      /* I = 35 */
(PID.TID 0000.0001)                 1.942331448101592E+05,      /* I = 36 */
(PID.TID 0000.0001)                 2.133486626971531E+05,      /* I = 37 */
(PID.TID 0000.0001)                 2.292584591272880E+05,      /* I = 38 */
(PID.TID 0000.0001)                 2.428369969078989E+05,      /* I = 39 */
(PID.TID 0000.0001)                 2.545652950875683E+05,      /* I = 40 */
(PID.TID 0000.0001)                 2.647274964828301E+05,      /* I = 41 */
(PID.TID 0000.0001)                 2.734980225206389E+05,      /* I = 42 */
(PID.TID 0000.0001)                 2.809856491525217E+05,      /* I = 43 */
(PID.TID 0000.0001)                 2.872580915202295E+05,      /* I = 44 */
(PID.TID 0000.0001)                 2.923567890694162E+05,      /* I = 45 */
(PID.TID 0000.0001)                 2.963063101754721E+05,      /* I = 46 */
(PID.TID 0000.0001)                 2.991205495886625E+05,      /* I = 47 */
(PID.TID 0000.0001)                 3.008068453676764E+05,      /* I = 48 */
(PID.TID 0000.0001)                 3.013686170436881E+05,      /* I = 49 */
(PID.TID 0000.0001)                 3.008068453676764E+05,      /* I = 50 */
(PID.TID 0000.0001)                 2.991205495886625E+05,      /* I = 51 */
(PID.TID 0000.0001)                 2.963063101754721E+05,      /* I = 52 */
(PID.TID 0000.0001)                 2.923567890694162E+05,      /* I = 53 */
(PID.TID 0000.0001)                 2.872580915202295E+05,      /* I = 54 */
(PID.TID 0000.0001)                 2.809856491525217E+05,      /* I = 55 */
(PID.TID 0000.0001)                 2.734980225206389E+05,      /* I = 56 */
(PID.TID 0000.0001)                 2.647274964828301E+05,      /* I = 57 */
(PID.TID 0000.0001)                 2.545652950875683E+05,      /* I = 58 */
(PID.TID 0000.0001)                 2.428369969078989E+05,      /* I = 59 */
(PID.TID 0000.0001)                 2.292584591272880E+05,      /* I = 60 */
(PID.TID 0000.0001)                 2.133486626971531E+05,      /* I = 61 */
(PID.TID 0000.0001)                 1.942331448101592E+05,      /* I = 62 */
(PID.TID 0000.0001)                 1.701080315742101E+05,      /* I = 63 */
(PID.TID 0000.0001)                 1.362652340208229E+05,      /* I = 64 */
(PID.TID 0000.0001)                 8.015229982413632E+04,      /* I = 65 */
(PID.TID 0000.0001)                 1.362652340208229E+05,      /* I = 66 */
(PID.TID 0000.0001)                 1.701080315742101E+05,      /* I = 67 */
(PID.TID 0000.0001)                 1.942331448101592E+05,      /* I = 68 */
(PID.TID 0000.0001)                 2.133486626971531E+05,      /* I = 69 */
(PID.TID 0000.0001)                 2.292584591272880E+05,      /* I = 70 */
(PID.TID 0000.0001)                 2.428369969078989E+05,      /* I = 71 */
(PID.TID 0000.0001)                 2.545652950875683E+05,      /* I = 72 */
(PID.TID 0000.0001)                 2.647274964828301E+05,      /* I = 73 */
(PID.TID 0000.0001)                 2.734980225206389E+05,      /* I = 74 */
(PID.TID 0000.0001)                 2.809856491525217E+05,      /* I = 75 */
(PID.TID 0000.0001)                 2.872580915202295E+05,      /* I = 76 */
(PID.TID 0000.0001)                 2.923567890694162E+05,      /* I = 77 */
(PID.TID 0000.0001)                 2.963063101754721E+05,      /* I = 78 */
(PID.TID 0000.0001)                 2.991205495886625E+05,      /* I = 79 */
(PID.TID 0000.0001)                 3.008068453676764E+05,      /* I = 80 */
(PID.TID 0000.0001)                 3.013686170436881E+05,      /* I = 81 */
(PID.TID 0000.0001)                 3.008068453676764E+05,      /* I = 82 */
(PID.TID 0000.0001)                 2.991205495886625E+05,      /* I = 83 */
(PID.TID 0000.0001)                 2.963063101754721E+05,      /* I = 84 */
(PID.TID 0000.0001)                 2.923567890694162E+05,      /* I = 85 */
(PID.TID 0000.0001)                 2.872580915202295E+05,      /* I = 86 */
(PID.TID 0000.0001)                 2.809856491525217E+05,      /* I = 87 */
(PID.TID 0000.0001)                 2.734980225206389E+05,      /* I = 88 */
(PID.TID 0000.0001)                 2.647274964828301E+05,      /* I = 89 */
(PID.TID 0000.0001)                 2.545652950875683E+05,      /* I = 90 */
(PID.TID 0000.0001)                 2.428369969078989E+05,      /* I = 91 */
(PID.TID 0000.0001)                 2.292584591272880E+05,      /* I = 92 */
(PID.TID 0000.0001)                 2.133486626971531E+05,      /* I = 93 */
(PID.TID 0000.0001)                 1.942331448101592E+05,      /* I = 94 */
(PID.TID 0000.0001)                 1.701080315742101E+05,      /* I = 95 */
(PID.TID 0000.0001)                 1.362652340208229E+05,      /* I = 96 */
(PID.TID 0000.0001)                 8.015229982413632E+04,      /* I = 97 */
(PID.TID 0000.0001)                 1.362652340208229E+05,      /* I = 98 */
(PID.TID 0000.0001)                 1.701080315742101E+05,      /* I = 99 */
(PID.TID 0000.0001)                 1.942331448101592E+05,      /* I =100 */
(PID.TID 0000.0001)                 2.133486626971531E+05,      /* I =101 */
(PID.TID 0000.0001)                 2.292584591272880E+05,      /* I =102 */
(PID.TID 0000.0001)                 2.428369969078989E+05,      /* I =103 */
(PID.TID 0000.0001)                 2.545652950875683E+05,      /* I =104 */
(PID.TID 0000.0001)                 2.647274964828301E+05,      /* I =105 */
(PID.TID 0000.0001)                 2.734980225206389E+05,      /* I =106 */
(PID.TID 0000.0001)                 2.809856491525217E+05,      /* I =107 */
(PID.TID 0000.0001)                 2.872580915202295E+05,      /* I =108 */
(PID.TID 0000.0001)                 2.923567890694162E+05,      /* I =109 */
(PID.TID 0000.0001)                 2.963063101754721E+05,      /* I =110 */
(PID.TID 0000.0001)                 2.991205495886625E+05,      /* I =111 */
(PID.TID 0000.0001)                 3.008068453676764E+05,      /* I =112 */
(PID.TID 0000.0001)                 3.013686170436881E+05,      /* I =113 */
(PID.TID 0000.0001)                 3.008068453676764E+05,      /* I =114 */
(PID.TID 0000.0001)                 2.991205495886625E+05,      /* I =115 */
(PID.TID 0000.0001)                 2.963063101754721E+05,      /* I =116 */
(PID.TID 0000.0001)                 2.923567890694162E+05,      /* I =117 */
(PID.TID 0000.0001)                 2.872580915202295E+05,      /* I =118 */
(PID.TID 0000.0001)                 2.809856491525217E+05,      /* I =119 */
(PID.TID 0000.0001)                 2.734980225206389E+05,      /* I =120 */
(PID.TID 0000.0001)                 2.647274964828301E+05,      /* I =121 */
(PID.TID 0000.0001)                 2.545652950875683E+05,      /* I =122 */
(PID.TID 0000.0001)                 2.428369969078989E+05,      /* I =123 */
(PID.TID 0000.0001)                 2.292584591272880E+05,      /* I =124 */
(PID.TID 0000.0001)                 2.133486626971531E+05,      /* I =125 */
(PID.TID 0000.0001)                 1.942331448101592E+05,      /* I =126 */
(PID.TID 0000.0001)                 1.701080315742101E+05,      /* I =127 */
(PID.TID 0000.0001)                 1.362652340208229E+05,      /* I =128 */
(PID.TID 0000.0001)                 8.015229982413632E+04,      /* I =129 */
(PID.TID 0000.0001)                 1.362652340208229E+05,      /* I =130 */
(PID.TID 0000.0001)                 1.701080315742101E+05,      /* I =131 */
(PID.TID 0000.0001)                 1.942331448101592E+05,      /* I =132 */
(PID.TID 0000.0001)                 2.133486626971531E+05,      /* I =133 */
(PID.TID 0000.0001)                 2.292584591272880E+05,      /* I =134 */
(PID.TID 0000.0001)                 2.428369969078989E+05,      /* I =135 */
(PID.TID 0000.0001)                 2.545652950875683E+05,      /* I =136 */
(PID.TID 0000.0001)                 2.647274964828301E+05,      /* I =137 */
(PID.TID 0000.0001)                 2.734980225206389E+05,      /* I =138 */
(PID.TID 0000.0001)                 2.809856491525217E+05,      /* I =139 */
(PID.TID 0000.0001)                 2.872580915202295E+05,      /* I =140 */
(PID.TID 0000.0001)                 2.923567890694162E+05,      /* I =141 */
(PID.TID 0000.0001)                 2.963063101754721E+05,      /* I =142 */
(PID.TID 0000.0001)                 2.991205495886625E+05,      /* I =143 */
(PID.TID 0000.0001)                 3.008068453676764E+05,      /* I =144 */
(PID.TID 0000.0001)                 3.013686170436881E+05,      /* I =145 */
(PID.TID 0000.0001)                 3.008068453676764E+05,      /* I =146 */
(PID.TID 0000.0001)                 2.991205495886625E+05,      /* I =147 */
(PID.TID 0000.0001)                 2.963063101754721E+05,      /* I =148 */
(PID.TID 0000.0001)                 2.923567890694162E+05,      /* I =149 */
(PID.TID 0000.0001)                 2.872580915202295E+05,      /* I =150 */
(PID.TID 0000.0001)                 2.809856491525217E+05,      /* I =151 */
(PID.TID 0000.0001)                 2.734980225206389E+05,      /* I =152 */
(PID.TID 0000.0001)                 2.647274964828301E+05,      /* I =153 */
(PID.TID 0000.0001)                 2.545652950875683E+05,      /* I =154 */
(PID.TID 0000.0001)                 2.428369969078989E+05,      /* I =155 */
(PID.TID 0000.0001)                 2.292584591272880E+05,      /* I =156 */
(PID.TID 0000.0001)                 2.133486626971531E+05,      /* I =157 */
(PID.TID 0000.0001)                 1.942331448101592E+05,      /* I =158 */
(PID.TID 0000.0001)                 1.701080315742101E+05,      /* I =159 */
(PID.TID 0000.0001)                 1.362652340208229E+05,      /* I =160 */
(PID.TID 0000.0001)                 8.015229982413632E+04,      /* I =161 */
(PID.TID 0000.0001)                 1.362652340208229E+05,      /* I =162 */
(PID.TID 0000.0001)                 1.701080315742101E+05,      /* I =163 */
(PID.TID 0000.0001)                 1.942331448101592E+05,      /* I =164 */
(PID.TID 0000.0001)                 2.133486626971531E+05,      /* I =165 */
(PID.TID 0000.0001)                 2.292584591272880E+05,      /* I =166 */
(PID.TID 0000.0001)                 2.428369969078989E+05,      /* I =167 */
(PID.TID 0000.0001)                 2.545652950875683E+05,      /* I =168 */
(PID.TID 0000.0001)                 2.647274964828301E+05,      /* I =169 */
(PID.TID 0000.0001)                 2.734980225206389E+05,      /* I =170 */
(PID.TID 0000.0001)                 2.809856491525217E+05,      /* I =171 */
(PID.TID 0000.0001)                 2.872580915202295E+05,      /* I =172 */
(PID.TID 0000.0001)                 2.923567890694162E+05,      /* I =173 */
(PID.TID 0000.0001)                 2.963063101754721E+05,      /* I =174 */
(PID.TID 0000.0001)                 2.991205495886625E+05,      /* I =175 */
(PID.TID 0000.0001)                 3.008068453676764E+05,      /* I =176 */
(PID.TID 0000.0001)                 3.013686170436881E+05,      /* I =177 */
(PID.TID 0000.0001)                 3.008068453676764E+05,      /* I =178 */
(PID.TID 0000.0001)                 2.991205495886625E+05,      /* I =179 */
(PID.TID 0000.0001)                 2.963063101754721E+05,      /* I =180 */
(PID.TID 0000.0001)                 2.923567890694162E+05,      /* I =181 */
(PID.TID 0000.0001)                 2.872580915202295E+05,      /* I =182 */
(PID.TID 0000.0001)                 2.809856491525217E+05,      /* I =183 */
(PID.TID 0000.0001)                 2.734980225206389E+05,      /* I =184 */
(PID.TID 0000.0001)                 2.647274964828301E+05,      /* I =185 */
(PID.TID 0000.0001)                 2.545652950875683E+05,      /* I =186 */
(PID.TID 0000.0001)                 2.428369969078989E+05,      /* I =187 */
(PID.TID 0000.0001)                 2.292584591272880E+05,      /* I =188 */
(PID.TID 0000.0001)                 2.133486626971531E+05,      /* I =189 */
(PID.TID 0000.0001)                 1.942331448101592E+05,      /* I =190 */
(PID.TID 0000.0001)                 1.701080315742101E+05,      /* I =191 */
(PID.TID 0000.0001)                 1.362652340208229E+05       /* I =192 */
(PID.TID 0000.0001)     ;
(PID.TID 0000.0001) dyU =  /* dyU(1,:,1,:) ( units: m ) */
(PID.TID 0000.0001)                 8.015229982413632E+04,      /* J =  1 */
(PID.TID 0000.0001)                 1.333130744933864E+05,      /* J =  2 */
(PID.TID 0000.0001)                 1.691744868129062E+05,      /* J =  3 */
(PID.TID 0000.0001)                 1.937548202849060E+05,      /* J =  4 */
(PID.TID 0000.0001)                 2.130490056267208E+05,      /* J =  5 */
(PID.TID 0000.0001)                 2.290479919481738E+05,      /* J =  6 */
(PID.TID 0000.0001)                 2.426774358027003E+05,      /* J =  7 */
(PID.TID 0000.0001)                 2.544372984215561E+05,      /* J =  8 */
(PID.TID 0000.0001)                 2.646201463834826E+05,      /* J =  9 */
(PID.TID 0000.0001)                 2.734046499619031E+05,      /* J = 10 */
(PID.TID 0000.0001)                 2.809019351693761E+05,      /* J = 11 */
(PID.TID 0000.0001)                 2.871811105274442E+05,      /* J = 12 */
(PID.TID 0000.0001)                 2.922844849381675E+05,      /* J = 13 */
(PID.TID 0000.0001)                 2.962371870847826E+05,      /* J = 14 */
(PID.TID 0000.0001)                 2.990534755671296E+05,      /* J = 15 */
(PID.TID 0000.0001)                 3.007409169495504E+05,      /* J = 16 */
(PID.TID 0000.0001)                 3.013031486919771E+05,      /* J = 17 */
(PID.TID 0000.0001)                 3.007409169495504E+05,      /* J = 18 */
(PID.TID 0000.0001)                 2.990534755671296E+05,      /* J = 19 */
(PID.TID 0000.0001)                 2.962371870847826E+05,      /* J = 20 */
(PID.TID 0000.0001)                 2.922844849381675E+05,      /* J = 21 */
(PID.TID 0000.0001)                 2.871811105274442E+05,      /* J = 22 */
(PID.TID 0000.0001)                 2.809019351693761E+05,      /* J = 23 */
(PID.TID 0000.0001)                 2.734046499619031E+05,      /* J = 24 */
(PID.TID 0000.0001)                 2.646201463834826E+05,      /* J = 25 */
(PID.TID 0000.0001)                 2.544372984215561E+05,      /* J = 26 */
(PID.TID 0000.0001)                 2.426774358027003E+05,      /* J = 27 */
(PID.TID 0000.0001)                 2.290479919481738E+05,      /* J = 28 */
(PID.TID 0000.0001)                 2.130490056267208E+05,      /* J = 29 */
(PID.TID 0000.0001)                 1.937548202849060E+05,      /* J = 30 */
(PID.TID 0000.0001)                 1.691744868129062E+05,      /* J = 31 */
(PID.TID 0000.0001)                 1.333130744933864E+05       /* J = 32 */
(PID.TID 0000.0001)     ;
(PID.TID 0000.0001) rA  =  /* rA (:,1,:,1) ( units: m^2 ) */
(PID.TID 0000.0001)                 1.401900702255611E+10,      /* I =  1 */
(PID.TID 0000.0001)                 2.459906945574446E+10,      /* I =  2 */
(PID.TID 0000.0001)                 3.378518544307869E+10,      /* I =  3 */
(PID.TID 0000.0001)                 4.192037169898667E+10,      /* I =  4 */
(PID.TID 0000.0001)                 4.925938996118163E+10,      /* I =  5 */
(PID.TID 0000.0001)                 5.594154126607553E+10,      /* I =  6 */
(PID.TID 0000.0001)                 6.203683527772523E+10,      /* I =  7 */
(PID.TID 0000.0001)                 6.757541173817516E+10,      /* I =  8 */
(PID.TID 0000.0001)                 7.256353271748119E+10,      /* I =  9 */
(PID.TID 0000.0001)                 7.699293007098555E+10,      /* I = 10 */
(PID.TID 0000.0001)                 8.084683449728902E+10,      /* I = 11 */
(PID.TID 0000.0001)                 8.410423102796223E+10,      /* I = 12 */
(PID.TID 0000.0001)                 8.674306976737517E+10,      /* I = 13 */
(PID.TID 0000.0001)                 8.874277443041928E+10,      /* I = 14 */
(PID.TID 0000.0001)                 9.008620045350865E+10,      /* I = 15 */
(PID.TID 0000.0001)                 9.076111290418457E+10,      /* I = 16 */
(PID.TID 0000.0001)                 9.076111290422060E+10,      /* I = 17 */
(PID.TID 0000.0001)                 9.008620045354469E+10,      /* I = 18 */
(PID.TID 0000.0001)                 8.874277443041928E+10,      /* I = 19 */
(PID.TID 0000.0001)                 8.674306976741121E+10,      /* I = 20 */
(PID.TID 0000.0001)                 8.410423102799828E+10,      /* I = 21 */
(PID.TID 0000.0001)                 8.084683449728902E+10,      /* I = 22 */
(PID.TID 0000.0001)                 7.699293007098555E+10,      /* I = 23 */
(PID.TID 0000.0001)                 7.256353271748119E+10,      /* I = 24 */
(PID.TID 0000.0001)                 6.757541173817516E+10,      /* I = 25 */
(PID.TID 0000.0001)                 6.203683527772523E+10,      /* I = 26 */
(PID.TID 0000.0001)                 5.594154126611156E+10,      /* I = 27 */
(PID.TID 0000.0001)                 4.925938996118163E+10,      /* I = 28 */
(PID.TID 0000.0001)                 4.192037169898667E+10,      /* I = 29 */
(PID.TID 0000.0001)                 3.378518544304265E+10,      /* I = 30 */
(PID.TID 0000.0001)                 2.459906945574446E+10,      /* I = 31 */
(PID.TID 0000.0001)                 1.401900702259215E+10,      /* I = 32 */
(PID.TID 0000.0001)                 1.401900702255611E+10,      /* I = 33 */
(PID.TID 0000.0001)                 2.459906945574446E+10,      /* I = 34 */
(PID.TID 0000.0001)                 3.378518544307869E+10,      /* I = 35 */
(PID.TID 0000.0001)                 4.192037169898667E+10,      /* I = 36 */
(PID.TID 0000.0001)                 4.925938996118163E+10,      /* I = 37 */
(PID.TID 0000.0001)                 5.594154126607553E+10,      /* I = 38 */
(PID.TID 0000.0001)                 6.203683527772523E+10,      /* I = 39 */
(PID.TID 0000.0001)                 6.757541173817516E+10,      /* I = 40 */
(PID.TID 0000.0001)                 7.256353271748119E+10,      /* I = 41 */
(PID.TID 0000.0001)                 7.699293007098555E+10,      /* I = 42 */
(PID.TID 0000.0001)                 8.084683449728902E+10,      /* I = 43 */
(PID.TID 0000.0001)                 8.410423102796223E+10,      /* I = 44 */
(PID.TID 0000.0001)                 8.674306976737517E+10,      /* I = 45 */
(PID.TID 0000.0001)                 8.874277443041928E+10,      /* I = 46 */
(PID.TID 0000.0001)                 9.008620045350865E+10,      /* I = 47 */
(PID.TID 0000.0001)                 9.076111290418457E+10,      /* I = 48 */
(PID.TID 0000.0001)                 9.076111290422060E+10,      /* I = 49 */
(PID.TID 0000.0001)                 9.008620045354469E+10,      /* I = 50 */
(PID.TID 0000.0001)                 8.874277443041928E+10,      /* I = 51 */
(PID.TID 0000.0001)                 8.674306976741121E+10,      /* I = 52 */
(PID.TID 0000.0001)                 8.410423102799828E+10,      /* I = 53 */
(PID.TID 0000.0001)                 8.084683449728902E+10,      /* I = 54 */
(PID.TID 0000.0001)                 7.699293007098555E+10,      /* I = 55 */
(PID.TID 0000.0001)                 7.256353271748119E+10,      /* I = 56 */
(PID.TID 0000.0001)                 6.757541173817516E+10,      /* I = 57 */
(PID.TID 0000.0001)                 6.203683527772523E+10,      /* I = 58 */
(PID.TID 0000.0001)                 5.594154126611156E+10,      /* I = 59 */
(PID.TID 0000.0001)                 4.925938996118163E+10,      /* I = 60 */
(PID.TID 0000.0001)                 4.192037169898667E+10,      /* I = 61 */
(PID.TID 0000.0001)                 3.378518544304265E+10,      /* I = 62 */
(PID.TID 0000.0001)                 2.459906945574446E+10,      /* I = 63 */
(PID.TID 0000.0001)                 1.401900702259215E+10,      /* I = 64 */
(PID.TID 0000.0001)                 1.401900702255611E+10,      /* I = 65 */
(PID.TID 0000.0001)                 2.459906945574446E+10,      /* I = 66 */
(PID.TID 0000.0001)                 3.378518544307869E+10,      /* I = 67 */
(PID.TID 0000.0001)                 4.192037169898667E+10,      /* I = 68 */
(PID.TID 0000.0001)                 4.925938996118163E+10,      /* I = 69 */
(PID.TID 0000.0001)                 5.594154126607553E+10,      /* I = 70 */
(PID.TID 0000.0001)                 6.203683527772523E+10,      /* I = 71 */
(PID.TID 0000.0001)                 6.757541173817516E+10,      /* I = 72 */
(PID.TID 0000.0001)                 7.256353271748119E+10,      /* I = 73 */
(PID.TID 0000.0001)                 7.699293007098555E+10,      /* I = 74 */
(PID.TID 0000.0001)                 8.084683449728902E+10,      /* I = 75 */
(PID.TID 0000.0001)                 8.410423102796223E+10,      /* I = 76 */
(PID.TID 0000.0001)                 8.674306976737517E+10,      /* I = 77 */
(PID.TID 0000.0001)                 8.874277443041928E+10,      /* I = 78 */
(PID.TID 0000.0001)                 9.008620045350865E+10,      /* I = 79 */
(PID.TID 0000.0001)                 9.076111290418457E+10,      /* I = 80 */
(PID.TID 0000.0001)                 9.076111290422060E+10,      /* I = 81 */
(PID.TID 0000.0001)                 9.008620045354469E+10,      /* I = 82 */
(PID.TID 0000.0001)                 8.874277443041928E+10,      /* I = 83 */
(PID.TID 0000.0001)                 8.674306976741121E+10,      /* I = 84 */
(PID.TID 0000.0001)                 8.410423102799828E+10,      /* I = 85 */
(PID.TID 0000.0001)                 8.084683449728902E+10,      /* I = 86 */
(PID.TID 0000.0001)                 7.699293007098555E+10,      /* I = 87 */
(PID.TID 0000.0001)                 7.256353271748119E+10,      /* I = 88 */
(PID.TID 0000.0001)                 6.757541173817516E+10,      /* I = 89 */
(PID.TID 0000.0001)                 6.203683527772523E+10,      /* I = 90 */
(PID.TID 0000.0001)                 5.594154126611156E+10,      /* I = 91 */
(PID.TID 0000.0001)                 4.925938996118163E+10,      /* I = 92 */
(PID.TID 0000.0001)                 4.192037169898667E+10,      /* I = 93 */
(PID.TID 0000.0001)                 3.378518544304265E+10,      /* I = 94 */
(PID.TID 0000.0001)                 2.459906945574446E+10,      /* I = 95 */
(PID.TID 0000.0001)                 1.401900702259215E+10,      /* I = 96 */
(PID.TID 0000.0001)                 1.401900702255611E+10,      /* I = 97 */
(PID.TID 0000.0001)                 2.459906945574446E+10,      /* I = 98 */
(PID.TID 0000.0001)                 3.378518544307869E+10,      /* I = 99 */
(PID.TID 0000.0001)                 4.192037169898667E+10,      /* I =100 */
(PID.TID 0000.0001)                 4.925938996118163E+10,      /* I =101 */
(PID.TID 0000.0001)                 5.594154126607553E+10,      /* I =102 */
(PID.TID 0000.0001)                 6.203683527772523E+10,      /* I =103 */
(PID.TID 0000.0001)                 6.757541173817516E+10,      /* I =104 */
(PID.TID 0000.0001)                 7.256353271748119E+10,      /* I =105 */
(PID.TID 0000.0001)                 7.699293007098555E+10,      /* I =106 */
(PID.TID 0000.0001)                 8.084683449728902E+10,      /* I =107 */
(PID.TID 0000.0001)                 8.410423102796223E+10,      /* I =108 */
(PID.TID 0000.0001)                 8.674306976737517E+10,      /* I =109 */
(PID.TID 0000.0001)                 8.874277443041928E+10,      /* I =110 */
(PID.TID 0000.0001)                 9.008620045350865E+10,      /* I =111 */
(PID.TID 0000.0001)                 9.076111290418457E+10,      /* I =112 */
(PID.TID 0000.0001)                 9.076111290422060E+10,      /* I =113 */
(PID.TID 0000.0001)                 9.008620045354469E+10,      /* I =114 */
(PID.TID 0000.0001)                 8.874277443041928E+10,      /* I =115 */
(PID.TID 0000.0001)                 8.674306976741121E+10,      /* I =116 */
(PID.TID 0000.0001)                 8.410423102799828E+10,      /* I =117 */
(PID.TID 0000.0001)                 8.084683449728902E+10,      /* I =118 */
(PID.TID 0000.0001)                 7.699293007098555E+10,      /* I =119 */
(PID.TID 0000.0001)                 7.256353271748119E+10,      /* I =120 */
(PID.TID 0000.0001)                 6.757541173817516E+10,      /* I =121 */
(PID.TID 0000.0001)                 6.203683527772523E+10,      /* I =122 */
(PID.TID 0000.0001)                 5.594154126611156E+10,      /* I =123 */
(PID.TID 0000.0001)                 4.925938996118163E+10,      /* I =124 */
(PID.TID 0000.0001)                 4.192037169898667E+10,      /* I =125 */
(PID.TID 0000.0001)                 3.378518544304265E+10,      /* I =126 */
(PID.TID 0000.0001)                 2.459906945574446E+10,      /* I =127 */
(PID.TID 0000.0001)                 1.401900702259215E+10,      /* I =128 */
(PID.TID 0000.0001)                 1.401900702255611E+10,      /* I =129 */
(PID.TID 0000.0001)                 2.459906945574446E+10,      /* I =130 */
(PID.TID 0000.0001)                 3.378518544307869E+10,      /* I =131 */
(PID.TID 0000.0001)                 4.192037169898667E+10,      /* I =132 */
(PID.TID 0000.0001)                 4.925938996118163E+10,      /* I =133 */
(PID.TID 0000.0001)                 5.594154126607553E+10,      /* I =134 */
(PID.TID 0000.0001)                 6.203683527772523E+10,      /* I =135 */
(PID.TID 0000.0001)                 6.757541173817516E+10,      /* I =136 */
(PID.TID 0000.0001)                 7.256353271748119E+10,      /* I =137 */
(PID.TID 0000.0001)                 7.699293007098555E+10,      /* I =138 */
(PID.TID 0000.0001)                 8.084683449728902E+10,      /* I =139 */
(PID.TID 0000.0001)                 8.410423102796223E+10,      /* I =140 */
(PID.TID 0000.0001)                 8.674306976737517E+10,      /* I =141 */
(PID.TID 0000.0001)                 8.874277443041928E+10,      /* I =142 */
(PID.TID 0000.0001)                 9.008620045350865E+10,      /* I =143 */
(PID.TID 0000.0001)                 9.076111290418457E+10,      /* I =144 */
(PID.TID 0000.0001)                 9.076111290422060E+10,      /* I =145 */
(PID.TID 0000.0001)                 9.008620045354469E+10,      /* I =146 */
(PID.TID 0000.0001)                 8.874277443041928E+10,      /* I =147 */
(PID.TID 0000.0001)                 8.674306976741121E+10,      /* I =148 */
(PID.TID 0000.0001)                 8.410423102799828E+10,      /* I =149 */
(PID.TID 0000.0001)                 8.084683449728902E+10,      /* I =150 */
(PID.TID 0000.0001)                 7.699293007098555E+10,      /* I =151 */
(PID.TID 0000.0001)                 7.256353271748119E+10,      /* I =152 */
(PID.TID 0000.0001)                 6.757541173817516E+10,      /* I =153 */
(PID.TID 0000.0001)                 6.203683527772523E+10,      /* I =154 */
(PID.TID 0000.0001)                 5.594154126611156E+10,      /* I =155 */
(PID.TID 0000.0001)                 4.925938996118163E+10,      /* I =156 */
(PID.TID 0000.0001)                 4.192037169898667E+10,      /* I =157 */
(PID.TID 0000.0001)                 3.378518544304265E+10,      /* I =158 */
(PID.TID 0000.0001)                 2.459906945574446E+10,      /* I =159 */
(PID.TID 0000.0001)                 1.401900702259215E+10,      /* I =160 */
(PID.TID 0000.0001)                 1.401900702255611E+10,      /* I =161 */
(PID.TID 0000.0001)                 2.459906945574446E+10,      /* I =162 */
(PID.TID 0000.0001)                 3.378518544307869E+10,      /* I =163 */
(PID.TID 0000.0001)                 4.192037169898667E+10,      /* I =164 */
(PID.TID 0000.0001)                 4.925938996118163E+10,      /* I =165 */
(PID.TID 0000.0001)                 5.594154126607553E+10,      /* I =166 */
(PID.TID 0000.0001)                 6.203683527772523E+10,      /* I =167 */
(PID.TID 0000.0001)                 6.757541173817516E+10,      /* I =168 */
(PID.TID 0000.0001)                 7.256353271748119E+10,      /* I =169 */
(PID.TID 0000.0001)                 7.699293007098555E+10,      /* I =170 */
(PID.TID 0000.0001)                 8.084683449728902E+10,      /* I =171 */
(PID.TID 0000.0001)                 8.410423102796223E+10,      /* I =172 */
(PID.TID 0000.0001)                 8.674306976737517E+10,      /* I =173 */
(PID.TID 0000.0001)                 8.874277443041928E+10,      /* I =174 */
(PID.TID 0000.0001)                 9.008620045350865E+10,      /* I =175 */
(PID.TID 0000.0001)                 9.076111290418457E+10,      /* I =176 */
(PID.TID 0000.0001)                 9.076111290422060E+10,      /* I =177 */
(PID.TID 0000.0001)                 9.008620045354469E+10,      /* I =178 */
(PID.TID 0000.0001)                 8.874277443041928E+10,      /* I =179 */
(PID.TID 0000.0001)                 8.674306976741121E+10,      /* I =180 */
(PID.TID 0000.0001)                 8.410423102799828E+10,      /* I =181 */
(PID.TID 0000.0001)                 8.084683449728902E+10,      /* I =182 */
(PID.TID 0000.0001)                 7.699293007098555E+10,      /* I =183 */
(PID.TID 0000.0001)                 7.256353271748119E+10,      /* I =184 */
(PID.TID 0000.0001)                 6.757541173817516E+10,      /* I =185 */
(PID.TID 0000.0001)                 6.203683527772523E+10,      /* I =186 */
(PID.TID 0000.0001)                 5.594154126611156E+10,      /* I =187 */
(PID.TID 0000.0001)                 4.925938996118163E+10,      /* I =188 */
(PID.TID 0000.0001)                 4.192037169898667E+10,      /* I =189 */
(PID.TID 0000.0001)                 3.378518544304265E+10,      /* I =190 */
(PID.TID 0000.0001)                 2.459906945574446E+10,      /* I =191 */
(PID.TID 0000.0001)                 1.401900702259215E+10       /* I =192 */
(PID.TID 0000.0001)     ;
(PID.TID 0000.0001) rA  =  /* rA (1,:,1,:) ( units: m^2 ) */
(PID.TID 0000.0001)                 1.401900702255611E+10,      /* J =  1 */
(PID.TID 0000.0001)                 2.459906945574446E+10,      /* J =  2 */
(PID.TID 0000.0001)                 3.378518544307869E+10,      /* J =  3 */
(PID.TID 0000.0001)                 4.192037169898667E+10,      /* J =  4 */
(PID.TID 0000.0001)                 4.925938996118163E+10,      /* J =  5 */
(PID.TID 0000.0001)                 5.594154126607553E+10,      /* J =  6 */
(PID.TID 0000.0001)                 6.203683527776127E+10,      /* J =  7 */
(PID.TID 0000.0001)                 6.757541173817516E+10,      /* J =  8 */
(PID.TID 0000.0001)                 7.256353271748119E+10,      /* J =  9 */
(PID.TID 0000.0001)                 7.699293007098555E+10,      /* J = 10 */
(PID.TID 0000.0001)                 8.084683449728902E+10,      /* J = 11 */
(PID.TID 0000.0001)                 8.410423102799828E+10,      /* J = 12 */
(PID.TID 0000.0001)                 8.674306976737517E+10,      /* J = 13 */
(PID.TID 0000.0001)                 8.874277443041928E+10,      /* J = 14 */
(PID.TID 0000.0001)                 9.008620045350865E+10,      /* J = 15 */
(PID.TID 0000.0001)                 9.076111290418457E+10,      /* J = 16 */
(PID.TID 0000.0001)                 9.076111290422060E+10,      /* J = 17 */
(PID.TID 0000.0001)                 9.008620045354469E+10,      /* J = 18 */
(PID.TID 0000.0001)                 8.874277443041928E+10,      /* J = 19 */
(PID.TID 0000.0001)                 8.674306976737517E+10,      /* J = 20 */
(PID.TID 0000.0001)                 8.410423102799828E+10,      /* J = 21 */
(PID.TID 0000.0001)                 8.084683449728902E+10,      /* J = 22 */
(PID.TID 0000.0001)                 7.699293007098555E+10,      /* J = 23 */
(PID.TID 0000.0001)                 7.256353271748119E+10,      /* J = 24 */
(PID.TID 0000.0001)                 6.757541173817516E+10,      /* J = 25 */
(PID.TID 0000.0001)                 6.203683527772523E+10,      /* J = 26 */
(PID.TID 0000.0001)                 5.594154126607553E+10,      /* J = 27 */
(PID.TID 0000.0001)                 4.925938996118163E+10,      /* J = 28 */
(PID.TID 0000.0001)                 4.192037169898667E+10,      /* J = 29 */
(PID.TID 0000.0001)                 3.378518544307869E+10,      /* J = 30 */
(PID.TID 0000.0001)                 2.459906945574446E+10,      /* J = 31 */
(PID.TID 0000.0001)                 1.401900702259215E+10       /* J = 32 */
(PID.TID 0000.0001)     ;
(PID.TID 0000.0001) rAw =  /* rAw(:,1,:,1) ( units: m^2 ) */
(PID.TID 0000.0001)                 1.216690346714270E+10,      /* I =  1 */
(PID.TID 0000.0001)                 1.974052138506315E+10,      /* I =  2 */
(PID.TID 0000.0001)                 2.943712825252015E+10,      /* I =  3 */
(PID.TID 0000.0001)                 3.801790263324359E+10,      /* I =  4 */
(PID.TID 0000.0001)                 4.571243814189866E+10,      /* I =  5 */
(PID.TID 0000.0001)                 5.269930713599979E+10,      /* I =  6 */
(PID.TID 0000.0001)                 5.907428494299063E+10,      /* I =  7 */
(PID.TID 0000.0001)                 6.488320895111514E+10,      /* I =  8 */
(PID.TID 0000.0001)                 7.014205907741882E+10,      /* I =  9 */
(PID.TID 0000.0001)                 7.484854821847499E+10,      /* I = 10 */
(PID.TID 0000.0001)                 7.898934631431560E+10,      /* I = 11 */
(PID.TID 0000.0001)                 8.254500894894537E+10,      /* I = 12 */
(PID.TID 0000.0001)                 8.549360686473492E+10,      /* I = 13 */
(PID.TID 0000.0001)                 8.781353403175085E+10,      /* I = 14 */
(PID.TID 0000.0001)                 8.948571540392021E+10,      /* I = 15 */
(PID.TID 0000.0001)                 9.049530583086168E+10,      /* I = 16 */
(PID.TID 0000.0001)                 9.083293515008307E+10,      /* I = 17 */
(PID.TID 0000.0001)                 9.049530583087070E+10,      /* I = 18 */
(PID.TID 0000.0001)                 8.948571540391121E+10,      /* I = 19 */
(PID.TID 0000.0001)                 8.781353403174185E+10,      /* I = 20 */
(PID.TID 0000.0001)                 8.549360686467184E+10,      /* I = 21 */
(PID.TID 0000.0001)                 8.254500894890933E+10,      /* I = 22 */
(PID.TID 0000.0001)                 7.898934631434262E+10,      /* I = 23 */
(PID.TID 0000.0001)                 7.484854821844795E+10,      /* I = 24 */
(PID.TID 0000.0001)                 7.014205907742783E+10,      /* I = 25 */
(PID.TID 0000.0001)                 6.488320895111514E+10,      /* I = 26 */
(PID.TID 0000.0001)                 5.907428494299063E+10,      /* I = 27 */
(PID.TID 0000.0001)                 5.269930713599078E+10,      /* I = 28 */
(PID.TID 0000.0001)                 4.571243814190767E+10,      /* I = 29 */
(PID.TID 0000.0001)                 3.801790263325260E+10,      /* I = 30 */
(PID.TID 0000.0001)                 2.943712825251114E+10,      /* I = 31 */
(PID.TID 0000.0001)                 1.974052138509018E+10,      /* I = 32 */
(PID.TID 0000.0001)                 1.216690346714270E+10,      /* I = 33 */
(PID.TID 0000.0001)                 1.974052138506315E+10,      /* I = 34 */
(PID.TID 0000.0001)                 2.943712825252015E+10,      /* I = 35 */
(PID.TID 0000.0001)                 3.801790263324359E+10,      /* I = 36 */
(PID.TID 0000.0001)                 4.571243814189866E+10,      /* I = 37 */
(PID.TID 0000.0001)                 5.269930713599979E+10,      /* I = 38 */
(PID.TID 0000.0001)                 5.907428494299063E+10,      /* I = 39 */
(PID.TID 0000.0001)                 6.488320895111514E+10,      /* I = 40 */
(PID.TID 0000.0001)                 7.014205907741882E+10,      /* I = 41 */
(PID.TID 0000.0001)                 7.484854821847499E+10,      /* I = 42 */
(PID.TID 0000.0001)                 7.898934631431560E+10,      /* I = 43 */
(PID.TID 0000.0001)                 8.254500894894537E+10,      /* I = 44 */
(PID.TID 0000.0001)                 8.549360686473492E+10,      /* I = 45 */
(PID.TID 0000.0001)                 8.781353403175085E+10,      /* I = 46 */
(PID.TID 0000.0001)                 8.948571540392021E+10,      /* I = 47 */
(PID.TID 0000.0001)                 9.049530583086168E+10,      /* I = 48 */
(PID.TID 0000.0001)                 9.083293515008307E+10,      /* I = 49 */
(PID.TID 0000.0001)                 9.049530583087070E+10,      /* I = 50 */
(PID.TID 0000.0001)                 8.948571540391121E+10,      /* I = 51 */
(PID.TID 0000.0001)                 8.781353403174185E+10,      /* I = 52 */
(PID.TID 0000.0001)                 8.549360686467184E+10,      /* I = 53 */
(PID.TID 0000.0001)                 8.254500894890933E+10,      /* I = 54 */
(PID.TID 0000.0001)                 7.898934631434262E+10,      /* I = 55 */
(PID.TID 0000.0001)                 7.484854821844795E+10,      /* I = 56 */
(PID.TID 0000.0001)                 7.014205907742783E+10,      /* I = 57 */
(PID.TID 0000.0001)                 6.488320895111514E+10,      /* I = 58 */
(PID.TID 0000.0001)                 5.907428494299063E+10,      /* I = 59 */
(PID.TID 0000.0001)                 5.269930713599078E+10,      /* I = 60 */
(PID.TID 0000.0001)                 4.571243814190767E+10,      /* I = 61 */
(PID.TID 0000.0001)                 3.801790263325260E+10,      /* I = 62 */
(PID.TID 0000.0001)                 2.943712825251114E+10,      /* I = 63 */
(PID.TID 0000.0001)                 1.974052138509018E+10,      /* I = 64 */
(PID.TID 0000.0001)                 1.216690346714270E+10,      /* I = 65 */
(PID.TID 0000.0001)                 1.974052138506315E+10,      /* I = 66 */
(PID.TID 0000.0001)                 2.943712825252015E+10,      /* I = 67 */
(PID.TID 0000.0001)                 3.801790263324359E+10,      /* I = 68 */
(PID.TID 0000.0001)                 4.571243814189866E+10,      /* I = 69 */
(PID.TID 0000.0001)                 5.269930713599979E+10,      /* I = 70 */
(PID.TID 0000.0001)                 5.907428494299063E+10,      /* I = 71 */
(PID.TID 0000.0001)                 6.488320895111514E+10,      /* I = 72 */
(PID.TID 0000.0001)                 7.014205907741882E+10,      /* I = 73 */
(PID.TID 0000.0001)                 7.484854821847499E+10,      /* I = 74 */
(PID.TID 0000.0001)                 7.898934631431560E+10,      /* I = 75 */
(PID.TID 0000.0001)                 8.254500894894537E+10,      /* I = 76 */
(PID.TID 0000.0001)                 8.549360686473492E+10,      /* I = 77 */
(PID.TID 0000.0001)                 8.781353403175085E+10,      /* I = 78 */
(PID.TID 0000.0001)                 8.948571540392021E+10,      /* I = 79 */
(PID.TID 0000.0001)                 9.049530583086168E+10,      /* I = 80 */
(PID.TID 0000.0001)                 9.083293515008307E+10,      /* I = 81 */
(PID.TID 0000.0001)                 9.049530583087070E+10,      /* I = 82 */
(PID.TID 0000.0001)                 8.948571540391121E+10,      /* I = 83 */
(PID.TID 0000.0001)                 8.781353403174185E+10,      /* I = 84 */
(PID.TID 0000.0001)                 8.549360686467184E+10,      /* I = 85 */
(PID.TID 0000.0001)                 8.254500894890933E+10,      /* I = 86 */
(PID.TID 0000.0001)                 7.898934631434262E+10,      /* I = 87 */
(PID.TID 0000.0001)                 7.484854821844795E+10,      /* I = 88 */
(PID.TID 0000.0001)                 7.014205907742783E+10,      /* I = 89 */
(PID.TID 0000.0001)                 6.488320895111514E+10,      /* I = 90 */
(PID.TID 0000.0001)                 5.907428494299063E+10,      /* I = 91 */
(PID.TID 0000.0001)                 5.269930713599078E+10,      /* I = 92 */
(PID.TID 0000.0001)                 4.571243814190767E+10,      /* I = 93 */
(PID.TID 0000.0001)                 3.801790263325260E+10,      /* I = 94 */
(PID.TID 0000.0001)                 2.943712825251114E+10,      /* I = 95 */
(PID.TID 0000.0001)                 1.974052138509018E+10,      /* I = 96 */
(PID.TID 0000.0001)                 1.216690346714270E+10,      /* I = 97 */
(PID.TID 0000.0001)                 1.974052138506315E+10,      /* I = 98 */
(PID.TID 0000.0001)                 2.943712825252015E+10,      /* I = 99 */
(PID.TID 0000.0001)                 3.801790263324359E+10,      /* I =100 */
(PID.TID 0000.0001)                 4.571243814189866E+10,      /* I =101 */
(PID.TID 0000.0001)                 5.269930713599979E+10,      /* I =102 */
(PID.TID 0000.0001)                 5.907428494299063E+10,      /* I =103 */
(PID.TID 0000.0001)                 6.488320895111514E+10,      /* I =104 */
(PID.TID 0000.0001)                 7.014205907741882E+10,      /* I =105 */
(PID.TID 0000.0001)                 7.484854821847499E+10,      /* I =106 */
(PID.TID 0000.0001)                 7.898934631431560E+10,      /* I =107 */
(PID.TID 0000.0001)                 8.254500894894537E+10,      /* I =108 */
(PID.TID 0000.0001)                 8.549360686473492E+10,      /* I =109 */
(PID.TID 0000.0001)                 8.781353403175085E+10,      /* I =110 */
(PID.TID 0000.0001)                 8.948571540392021E+10,      /* I =111 */
(PID.TID 0000.0001)                 9.049530583086168E+10,      /* I =112 */
(PID.TID 0000.0001)                 9.083293515008307E+10,      /* I =113 */
(PID.TID 0000.0001)                 9.049530583087070E+10,      /* I =114 */
(PID.TID 0000.0001)                 8.948571540391121E+10,      /* I =115 */
(PID.TID 0000.0001)                 8.781353403174185E+10,      /* I =116 */
(PID.TID 0000.0001)                 8.549360686467184E+10,      /* I =117 */
(PID.TID 0000.0001)                 8.254500894890933E+10,      /* I =118 */
(PID.TID 0000.0001)                 7.898934631434262E+10,      /* I =119 */
(PID.TID 0000.0001)                 7.484854821844795E+10,      /* I =120 */
(PID.TID 0000.0001)                 7.014205907742783E+10,      /* I =121 */
(PID.TID 0000.0001)                 6.488320895111514E+10,      /* I =122 */
(PID.TID 0000.0001)                 5.907428494299063E+10,      /* I =123 */
(PID.TID 0000.0001)                 5.269930713599078E+10,      /* I =124 */
(PID.TID 0000.0001)                 4.571243814190767E+10,      /* I =125 */
(PID.TID 0000.0001)                 3.801790263325260E+10,      /* I =126 */
(PID.TID 0000.0001)                 2.943712825251114E+10,      /* I =127 */
(PID.TID 0000.0001)                 1.974052138509018E+10,      /* I =128 */
(PID.TID 0000.0001)                 1.216690346714270E+10,      /* I =129 */
(PID.TID 0000.0001)                 1.974052138506315E+10,      /* I =130 */
(PID.TID 0000.0001)                 2.943712825252015E+10,      /* I =131 */
(PID.TID 0000.0001)                 3.801790263324359E+10,      /* I =132 */
(PID.TID 0000.0001)                 4.571243814189866E+10,      /* I =133 */
(PID.TID 0000.0001)                 5.269930713599979E+10,      /* I =134 */
(PID.TID 0000.0001)                 5.907428494299063E+10,      /* I =135 */
(PID.TID 0000.0001)                 6.488320895111514E+10,      /* I =136 */
(PID.TID 0000.0001)                 7.014205907741882E+10,      /* I =137 */
(PID.TID 0000.0001)                 7.484854821847499E+10,      /* I =138 */
(PID.TID 0000.0001)                 7.898934631431560E+10,      /* I =139 */
(PID.TID 0000.0001)                 8.254500894894537E+10,      /* I =140 */
(PID.TID 0000.0001)                 8.549360686473492E+10,      /* I =141 */
(PID.TID 0000.0001)                 8.781353403175085E+10,      /* I =142 */
(PID.TID 0000.0001)                 8.948571540392021E+10,      /* I =143 */
(PID.TID 0000.0001)                 9.049530583086168E+10,      /* I =144 */
(PID.TID 0000.0001)                 9.083293515008307E+10,      /* I =145 */
(PID.TID 0000.0001)                 9.049530583087070E+10,      /* I =146 */
(PID.TID 0000.0001)                 8.948571540391121E+10,      /* I =147 */
(PID.TID 0000.0001)                 8.781353403174185E+10,      /* I =148 */
(PID.TID 0000.0001)                 8.549360686467184E+10,      /* I =149 */
(PID.TID 0000.0001)                 8.254500894890933E+10,      /* I =150 */
(PID.TID 0000.0001)                 7.898934631434262E+10,      /* I =151 */
(PID.TID 0000.0001)                 7.484854821844795E+10,      /* I =152 */
(PID.TID 0000.0001)                 7.014205907742783E+10,      /* I =153 */
(PID.TID 0000.0001)                 6.488320895111514E+10,      /* I =154 */
(PID.TID 0000.0001)                 5.907428494299063E+10,      /* I =155 */
(PID.TID 0000.0001)                 5.269930713599078E+10,      /* I =156 */
(PID.TID 0000.0001)                 4.571243814190767E+10,      /* I =157 */
(PID.TID 0000.0001)                 3.801790263325260E+10,      /* I =158 */
(PID.TID 0000.0001)                 2.943712825251114E+10,      /* I =159 */
(PID.TID 0000.0001)                 1.974052138509018E+10,      /* I =160 */
(PID.TID 0000.0001)                 1.216690346714270E+10,      /* I =161 */
(PID.TID 0000.0001)                 1.974052138506315E+10,      /* I =162 */
(PID.TID 0000.0001)                 2.943712825252015E+10,      /* I =163 */
(PID.TID 0000.0001)                 3.801790263324359E+10,      /* I =164 */
(PID.TID 0000.0001)                 4.571243814189866E+10,      /* I =165 */
(PID.TID 0000.0001)                 5.269930713599979E+10,      /* I =166 */
(PID.TID 0000.0001)                 5.907428494299063E+10,      /* I =167 */
(PID.TID 0000.0001)                 6.488320895111514E+10,      /* I =168 */
(PID.TID 0000.0001)                 7.014205907741882E+10,      /* I =169 */
(PID.TID 0000.0001)                 7.484854821847499E+10,      /* I =170 */
(PID.TID 0000.0001)                 7.898934631431560E+10,      /* I =171 */
(PID.TID 0000.0001)                 8.254500894894537E+10,      /* I =172 */
(PID.TID 0000.0001)                 8.549360686473492E+10,      /* I =173 */
(PID.TID 0000.0001)                 8.781353403175085E+10,      /* I =174 */
(PID.TID 0000.0001)                 8.948571540392021E+10,      /* I =175 */
(PID.TID 0000.0001)                 9.049530583086168E+10,      /* I =176 */
(PID.TID 0000.0001)                 9.083293515008307E+10,      /* I =177 */
(PID.TID 0000.0001)                 9.049530583087070E+10,      /* I =178 */
(PID.TID 0000.0001)                 8.948571540391121E+10,      /* I =179 */
(PID.TID 0000.0001)                 8.781353403174185E+10,      /* I =180 */
(PID.TID 0000.0001)                 8.549360686467184E+10,      /* I =181 */
(PID.TID 0000.0001)                 8.254500894890933E+10,      /* I =182 */
(PID.TID 0000.0001)                 7.898934631434262E+10,      /* I =183 */
(PID.TID 0000.0001)                 7.484854821844795E+10,      /* I =184 */
(PID.TID 0000.0001)                 7.014205907742783E+10,      /* I =185 */
(PID.TID 0000.0001)                 6.488320895111514E+10,      /* I =186 */
(PID.TID 0000.0001)                 5.907428494299063E+10,      /* I =187 */
(PID.TID 0000.0001)                 5.269930713599078E+10,      /* I =188 */
(PID.TID 0000.0001)                 4.571243814190767E+10,      /* I =189 */
(PID.TID 0000.0001)                 3.801790263325260E+10,      /* I =190 */
(PID.TID 0000.0001)                 2.943712825251114E+10,      /* I =191 */
(PID.TID 0000.0001)                 1.974052138509018E+10       /* I =192 */
(PID.TID 0000.0001)     ;
(PID.TID 0000.0001) rAw =  /* rAw(1,:,1,:) ( units: m^2 ) */
(PID.TID 0000.0001)                 1.216690346714270E+10,      /* J =  1 */
(PID.TID 0000.0001)                 2.390126200743558E+10,      /* J =  2 */
(PID.TID 0000.0001)                 3.341968103208270E+10,      /* J =  3 */
(PID.TID 0000.0001)                 4.168532893152940E+10,      /* J =  4 */
(PID.TID 0000.0001)                 4.909074590409593E+10,      /* J =  5 */
(PID.TID 0000.0001)                 5.581203765722643E+10,      /* J =  6 */
(PID.TID 0000.0001)                 6.193257577506788E+10,      /* J =  7 */
(PID.TID 0000.0001)                 6.748840226738273E+10,      /* J =  8 */
(PID.TID 0000.0001)                 7.248875782324815E+10,      /* J =  9 */
(PID.TID 0000.0001)                 7.692702995909871E+10,      /* J = 10 */
(PID.TID 0000.0001)                 8.078743937057304E+10,      /* J = 11 */
(PID.TID 0000.0001)                 8.404959656062837E+10,      /* J = 12 */
(PID.TID 0000.0001)                 8.669186205742538E+10,      /* J = 13 */
(PID.TID 0000.0001)                 8.869393350723613E+10,      /* J = 14 */
(PID.TID 0000.0001)                 9.003884657168852E+10,      /* J = 15 */
(PID.TID 0000.0001)     2 @  9.071447638299399E+10,             /* J = 16: 17 */
(PID.TID 0000.0001)                 9.003884657168852E+10,      /* J = 18 */
(PID.TID 0000.0001)                 8.869393350723613E+10,      /* J = 19 */
(PID.TID 0000.0001)                 8.669186205742538E+10,      /* J = 20 */
(PID.TID 0000.0001)                 8.404959656062837E+10,      /* J = 21 */
(PID.TID 0000.0001)                 8.078743937057304E+10,      /* J = 22 */
(PID.TID 0000.0001)                 7.692702995909871E+10,      /* J = 23 */
(PID.TID 0000.0001)                 7.248875782324815E+10,      /* J = 24 */
(PID.TID 0000.0001)                 6.748840226738273E+10,      /* J = 25 */
(PID.TID 0000.0001)                 6.193257577506788E+10,      /* J = 26 */
(PID.TID 0000.0001)                 5.581203765722643E+10,      /* J = 27 */
(PID.TID 0000.0001)                 4.909074590409593E+10,      /* J = 28 */
(PID.TID 0000.0001)                 4.168532893152940E+10,      /* J = 29 */
(PID.TID 0000.0001)                 3.341968103208270E+10,      /* J = 30 */
(PID.TID 0000.0001)                 2.390126200743558E+10,      /* J = 31 */
(PID.TID 0000.0001)                 1.216690346714270E+10       /* J = 32 */
(PID.TID 0000.0001)     ;
(PID.TID 0000.0001) rAs =  /* rAs(:,1,:,1) ( units: m^2 ) */
(PID.TID 0000.0001)                 1.216690346714270E+10,      /* I =  1 */
(PID.TID 0000.0001)                 2.390126200743558E+10,      /* I =  2 */
(PID.TID 0000.0001)                 3.341968103208270E+10,      /* I =  3 */
(PID.TID 0000.0001)                 4.168532893152940E+10,      /* I =  4 */
(PID.TID 0000.0001)                 4.909074590409593E+10,      /* I =  5 */
(PID.TID 0000.0001)                 5.581203765722643E+10,      /* I =  6 */
(PID.TID 0000.0001)                 6.193257577506788E+10,      /* I =  7 */
(PID.TID 0000.0001)                 6.748840226738273E+10,      /* I =  8 */
(PID.TID 0000.0001)                 7.248875782324815E+10,      /* I =  9 */
(PID.TID 0000.0001)                 7.692702995909871E+10,      /* I = 10 */
(PID.TID 0000.0001)                 8.078743937057304E+10,      /* I = 11 */
(PID.TID 0000.0001)                 8.404959656062837E+10,      /* I = 12 */
(PID.TID 0000.0001)                 8.669186205742538E+10,      /* I = 13 */
(PID.TID 0000.0001)                 8.869393350723613E+10,      /* I = 14 */
(PID.TID 0000.0001)                 9.003884657168852E+10,      /* I = 15 */
(PID.TID 0000.0001)     2 @  9.071447638299399E+10,             /* I = 16: 17 */
(PID.TID 0000.0001)                 9.003884657168852E+10,      /* I = 18 */
(PID.TID 0000.0001)                 8.869393350723613E+10,      /* I = 19 */
(PID.TID 0000.0001)                 8.669186205742538E+10,      /* I = 20 */
(PID.TID 0000.0001)                 8.404959656062837E+10,      /* I = 21 */
(PID.TID 0000.0001)                 8.078743937057304E+10,      /* I = 22 */
(PID.TID 0000.0001)                 7.692702995909871E+10,      /* I = 23 */
(PID.TID 0000.0001)                 7.248875782324815E+10,      /* I = 24 */
(PID.TID 0000.0001)                 6.748840226738273E+10,      /* I = 25 */
(PID.TID 0000.0001)                 6.193257577506788E+10,      /* I = 26 */
(PID.TID 0000.0001)                 5.581203765722643E+10,      /* I = 27 */
(PID.TID 0000.0001)                 4.909074590409593E+10,      /* I = 28 */
(PID.TID 0000.0001)                 4.168532893152940E+10,      /* I = 29 */
(PID.TID 0000.0001)                 3.341968103208270E+10,      /* I = 30 */
(PID.TID 0000.0001)                 2.390126200743558E+10,      /* I = 31 */
(PID.TID 0000.0001)     2 @  1.216690346714270E+10,             /* I = 32: 33 */
(PID.TID 0000.0001)                 2.390126200743558E+10,      /* I = 34 */
(PID.TID 0000.0001)                 3.341968103208270E+10,      /* I = 35 */
(PID.TID 0000.0001)                 4.168532893152940E+10,      /* I = 36 */
(PID.TID 0000.0001)                 4.909074590409593E+10,      /* I = 37 */
(PID.TID 0000.0001)                 5.581203765722643E+10,      /* I = 38 */
(PID.TID 0000.0001)                 6.193257577506788E+10,      /* I = 39 */
(PID.TID 0000.0001)                 6.748840226738273E+10,      /* I = 40 */
(PID.TID 0000.0001)                 7.248875782324815E+10,      /* I = 41 */
(PID.TID 0000.0001)                 7.692702995909871E+10,      /* I = 42 */
(PID.TID 0000.0001)                 8.078743937057304E+10,      /* I = 43 */
(PID.TID 0000.0001)                 8.404959656062837E+10,      /* I = 44 */
(PID.TID 0000.0001)                 8.669186205742538E+10,      /* I = 45 */
(PID.TID 0000.0001)                 8.869393350723613E+10,      /* I = 46 */
(PID.TID 0000.0001)                 9.003884657168852E+10,      /* I = 47 */
(PID.TID 0000.0001)     2 @  9.071447638299399E+10,             /* I = 48: 49 */
(PID.TID 0000.0001)                 9.003884657168852E+10,      /* I = 50 */
(PID.TID 0000.0001)                 8.869393350723613E+10,      /* I = 51 */
(PID.TID 0000.0001)                 8.669186205742538E+10,      /* I = 52 */
(PID.TID 0000.0001)                 8.404959656062837E+10,      /* I = 53 */
(PID.TID 0000.0001)                 8.078743937057304E+10,      /* I = 54 */
(PID.TID 0000.0001)                 7.692702995909871E+10,      /* I = 55 */
(PID.TID 0000.0001)                 7.248875782324815E+10,      /* I = 56 */
(PID.TID 0000.0001)                 6.748840226738273E+10,      /* I = 57 */
(PID.TID 0000.0001)                 6.193257577506788E+10,      /* I = 58 */
(PID.TID 0000.0001)                 5.581203765722643E+10,      /* I = 59 */
(PID.TID 0000.0001)                 4.909074590409593E+10,      /* I = 60 */
(PID.TID 0000.0001)                 4.168532893152940E+10,      /* I = 61 */
(PID.TID 0000.0001)                 3.341968103208270E+10,      /* I = 62 */
(PID.TID 0000.0001)                 2.390126200743558E+10,      /* I = 63 */
(PID.TID 0000.0001)     2 @  1.216690346714270E+10,             /* I = 64: 65 */
(PID.TID 0000.0001)                 2.390126200743558E+10,      /* I = 66 */
(PID.TID 0000.0001)                 3.341968103208270E+10,      /* I = 67 */
(PID.TID 0000.0001)                 4.168532893152940E+10,      /* I = 68 */
(PID.TID 0000.0001)                 4.909074590409593E+10,      /* I = 69 */
(PID.TID 0000.0001)                 5.581203765722643E+10,      /* I = 70 */
(PID.TID 0000.0001)                 6.193257577506788E+10,      /* I = 71 */
(PID.TID 0000.0001)                 6.748840226738273E+10,      /* I = 72 */
(PID.TID 0000.0001)                 7.248875782324815E+10,      /* I = 73 */
(PID.TID 0000.0001)                 7.692702995909871E+10,      /* I = 74 */
(PID.TID 0000.0001)                 8.078743937057304E+10,      /* I = 75 */
(PID.TID 0000.0001)                 8.404959656062837E+10,      /* I = 76 */
(PID.TID 0000.0001)                 8.669186205742538E+10,      /* I = 77 */
(PID.TID 0000.0001)                 8.869393350723613E+10,      /* I = 78 */
(PID.TID 0000.0001)                 9.003884657168852E+10,      /* I = 79 */
(PID.TID 0000.0001)     2 @  9.071447638299399E+10,             /* I = 80: 81 */
(PID.TID 0000.0001)                 9.003884657168852E+10,      /* I = 82 */
(PID.TID 0000.0001)                 8.869393350723613E+10,      /* I = 83 */
(PID.TID 0000.0001)                 8.669186205742538E+10,      /* I = 84 */
(PID.TID 0000.0001)                 8.404959656062837E+10,      /* I = 85 */
(PID.TID 0000.0001)                 8.078743937057304E+10,      /* I = 86 */
(PID.TID 0000.0001)                 7.692702995909871E+10,      /* I = 87 */
(PID.TID 0000.0001)                 7.248875782324815E+10,      /* I = 88 */
(PID.TID 0000.0001)                 6.748840226738273E+10,      /* I = 89 */
(PID.TID 0000.0001)                 6.193257577506788E+10,      /* I = 90 */
(PID.TID 0000.0001)                 5.581203765722643E+10,      /* I = 91 */
(PID.TID 0000.0001)                 4.909074590409593E+10,      /* I = 92 */
(PID.TID 0000.0001)                 4.168532893152940E+10,      /* I = 93 */
(PID.TID 0000.0001)                 3.341968103208270E+10,      /* I = 94 */
(PID.TID 0000.0001)                 2.390126200743558E+10,      /* I = 95 */
(PID.TID 0000.0001)     2 @  1.216690346714270E+10,             /* I = 96: 97 */
(PID.TID 0000.0001)                 2.390126200743558E+10,      /* I = 98 */
(PID.TID 0000.0001)                 3.341968103208270E+10,      /* I = 99 */
(PID.TID 0000.0001)                 4.168532893152940E+10,      /* I =100 */
(PID.TID 0000.0001)                 4.909074590409593E+10,      /* I =101 */
(PID.TID 0000.0001)                 5.581203765722643E+10,      /* I =102 */
(PID.TID 0000.0001)                 6.193257577506788E+10,      /* I =103 */
(PID.TID 0000.0001)                 6.748840226738273E+10,      /* I =104 */
(PID.TID 0000.0001)                 7.248875782324815E+10,      /* I =105 */
(PID.TID 0000.0001)                 7.692702995909871E+10,      /* I =106 */
(PID.TID 0000.0001)                 8.078743937057304E+10,      /* I =107 */
(PID.TID 0000.0001)                 8.404959656062837E+10,      /* I =108 */
(PID.TID 0000.0001)                 8.669186205742538E+10,      /* I =109 */
(PID.TID 0000.0001)                 8.869393350723613E+10,      /* I =110 */
(PID.TID 0000.0001)                 9.003884657168852E+10,      /* I =111 */
(PID.TID 0000.0001)     2 @  9.071447638299399E+10,             /* I =112:113 */
(PID.TID 0000.0001)                 9.003884657168852E+10,      /* I =114 */
(PID.TID 0000.0001)                 8.869393350723613E+10,      /* I =115 */
(PID.TID 0000.0001)                 8.669186205742538E+10,      /* I =116 */
(PID.TID 0000.0001)                 8.404959656062837E+10,      /* I =117 */
(PID.TID 0000.0001)                 8.078743937057304E+10,      /* I =118 */
(PID.TID 0000.0001)                 7.692702995909871E+10,      /* I =119 */
(PID.TID 0000.0001)                 7.248875782324815E+10,      /* I =120 */
(PID.TID 0000.0001)                 6.748840226738273E+10,      /* I =121 */
(PID.TID 0000.0001)                 6.193257577506788E+10,      /* I =122 */
(PID.TID 0000.0001)                 5.581203765722643E+10,      /* I =123 */
(PID.TID 0000.0001)                 4.909074590409593E+10,      /* I =124 */
(PID.TID 0000.0001)                 4.168532893152940E+10,      /* I =125 */
(PID.TID 0000.0001)                 3.341968103208270E+10,      /* I =126 */
(PID.TID 0000.0001)                 2.390126200743558E+10,      /* I =127 */
(PID.TID 0000.0001)     2 @  1.216690346714270E+10,             /* I =128:129 */
(PID.TID 0000.0001)                 2.390126200743558E+10,      /* I =130 */
(PID.TID 0000.0001)                 3.341968103208270E+10,      /* I =131 */
(PID.TID 0000.0001)                 4.168532893152940E+10,      /* I =132 */
(PID.TID 0000.0001)                 4.909074590409593E+10,      /* I =133 */
(PID.TID 0000.0001)                 5.581203765722643E+10,      /* I =134 */
(PID.TID 0000.0001)                 6.193257577506788E+10,      /* I =135 */
(PID.TID 0000.0001)                 6.748840226738273E+10,      /* I =136 */
(PID.TID 0000.0001)                 7.248875782324815E+10,      /* I =137 */
(PID.TID 0000.0001)                 7.692702995909871E+10,      /* I =138 */
(PID.TID 0000.0001)                 8.078743937057304E+10,      /* I =139 */
(PID.TID 0000.0001)                 8.404959656062837E+10,      /* I =140 */
(PID.TID 0000.0001)                 8.669186205742538E+10,      /* I =141 */
(PID.TID 0000.0001)                 8.869393350723613E+10,      /* I =142 */
(PID.TID 0000.0001)                 9.003884657168852E+10,      /* I =143 */
(PID.TID 0000.0001)     2 @  9.071447638299399E+10,             /* I =144:145 */
(PID.TID 0000.0001)                 9.003884657168852E+10,      /* I =146 */
(PID.TID 0000.0001)                 8.869393350723613E+10,      /* I =147 */
(PID.TID 0000.0001)                 8.669186205742538E+10,      /* I =148 */
(PID.TID 0000.0001)                 8.404959656062837E+10,      /* I =149 */
(PID.TID 0000.0001)                 8.078743937057304E+10,      /* I =150 */
(PID.TID 0000.0001)                 7.692702995909871E+10,      /* I =151 */
(PID.TID 0000.0001)                 7.248875782324815E+10,      /* I =152 */
(PID.TID 0000.0001)                 6.748840226738273E+10,      /* I =153 */
(PID.TID 0000.0001)                 6.193257577506788E+10,      /* I =154 */
(PID.TID 0000.0001)                 5.581203765722643E+10,      /* I =155 */
(PID.TID 0000.0001)                 4.909074590409593E+10,      /* I =156 */
(PID.TID 0000.0001)                 4.168532893152940E+10,      /* I =157 */
(PID.TID 0000.0001)                 3.341968103208270E+10,      /* I =158 */
(PID.TID 0000.0001)                 2.390126200743558E+10,      /* I =159 */
(PID.TID 0000.0001)     2 @  1.216690346714270E+10,             /* I =160:161 */
(PID.TID 0000.0001)                 2.390126200743558E+10,      /* I =162 */
(PID.TID 0000.0001)                 3.341968103208270E+10,      /* I =163 */
(PID.TID 0000.0001)                 4.168532893152940E+10,      /* I =164 */
(PID.TID 0000.0001)                 4.909074590409593E+10,      /* I =165 */
(PID.TID 0000.0001)                 5.581203765722643E+10,      /* I =166 */
(PID.TID 0000.0001)                 6.193257577506788E+10,      /* I =167 */
(PID.TID 0000.0001)                 6.748840226738273E+10,      /* I =168 */
(PID.TID 0000.0001)                 7.248875782324815E+10,      /* I =169 */
(PID.TID 0000.0001)                 7.692702995909871E+10,      /* I =170 */
(PID.TID 0000.0001)                 8.078743937057304E+10,      /* I =171 */
(PID.TID 0000.0001)                 8.404959656062837E+10,      /* I =172 */
(PID.TID 0000.0001)                 8.669186205742538E+10,      /* I =173 */
(PID.TID 0000.0001)                 8.869393350723613E+10,      /* I =174 */
(PID.TID 0000.0001)                 9.003884657168852E+10,      /* I =175 */
(PID.TID 0000.0001)     2 @  9.071447638299399E+10,             /* I =176:177 */
(PID.TID 0000.0001)                 9.003884657168852E+10,      /* I =178 */
(PID.TID 0000.0001)                 8.869393350723613E+10,      /* I =179 */
(PID.TID 0000.0001)                 8.669186205742538E+10,      /* I =180 */
(PID.TID 0000.0001)                 8.404959656062837E+10,      /* I =181 */
(PID.TID 0000.0001)                 8.078743937057304E+10,      /* I =182 */
(PID.TID 0000.0001)                 7.692702995909871E+10,      /* I =183 */
(PID.TID 0000.0001)                 7.248875782324815E+10,      /* I =184 */
(PID.TID 0000.0001)                 6.748840226738273E+10,      /* I =185 */
(PID.TID 0000.0001)                 6.193257577506788E+10,      /* I =186 */
(PID.TID 0000.0001)                 5.581203765722643E+10,      /* I =187 */
(PID.TID 0000.0001)                 4.909074590409593E+10,      /* I =188 */
(PID.TID 0000.0001)                 4.168532893152940E+10,      /* I =189 */
(PID.TID 0000.0001)                 3.341968103208270E+10,      /* I =190 */
(PID.TID 0000.0001)                 2.390126200743558E+10,      /* I =191 */
(PID.TID 0000.0001)                 1.216690346714270E+10       /* I =192 */
(PID.TID 0000.0001)     ;
(PID.TID 0000.0001) rAs =  /* rAs(1,:,1,:) ( units: m^2 ) */
(PID.TID 0000.0001)                 1.216690346714270E+10,      /* J =  1 */
(PID.TID 0000.0001)                 1.974052138506315E+10,      /* J =  2 */
(PID.TID 0000.0001)                 2.943712825252015E+10,      /* J =  3 */
(PID.TID 0000.0001)                 3.801790263324359E+10,      /* J =  4 */
(PID.TID 0000.0001)                 4.571243814189866E+10,      /* J =  5 */
(PID.TID 0000.0001)                 5.269930713599979E+10,      /* J =  6 */
(PID.TID 0000.0001)                 5.907428494299063E+10,      /* J =  7 */
(PID.TID 0000.0001)                 6.488320895111514E+10,      /* J =  8 */
(PID.TID 0000.0001)                 7.014205907741882E+10,      /* J =  9 */
(PID.TID 0000.0001)                 7.484854821847499E+10,      /* J = 10 */
(PID.TID 0000.0001)                 7.898934631431560E+10,      /* J = 11 */
(PID.TID 0000.0001)                 8.254500894894537E+10,      /* J = 12 */
(PID.TID 0000.0001)                 8.549360686473492E+10,      /* J = 13 */
(PID.TID 0000.0001)                 8.781353403175085E+10,      /* J = 14 */
(PID.TID 0000.0001)                 8.948571540392021E+10,      /* J = 15 */
(PID.TID 0000.0001)                 9.049530583086168E+10,      /* J = 16 */
(PID.TID 0000.0001)                 9.083293515008307E+10,      /* J = 17 */
(PID.TID 0000.0001)                 9.049530583087070E+10,      /* J = 18 */
(PID.TID 0000.0001)                 8.948571540391121E+10,      /* J = 19 */
(PID.TID 0000.0001)                 8.781353403174185E+10,      /* J = 20 */
(PID.TID 0000.0001)                 8.549360686467184E+10,      /* J = 21 */
(PID.TID 0000.0001)                 8.254500894890933E+10,      /* J = 22 */
(PID.TID 0000.0001)                 7.898934631434262E+10,      /* J = 23 */
(PID.TID 0000.0001)                 7.484854821844795E+10,      /* J = 24 */
(PID.TID 0000.0001)                 7.014205907742783E+10,      /* J = 25 */
(PID.TID 0000.0001)                 6.488320895111514E+10,      /* J = 26 */
(PID.TID 0000.0001)                 5.907428494299063E+10,      /* J = 27 */
(PID.TID 0000.0001)                 5.269930713599078E+10,      /* J = 28 */
(PID.TID 0000.0001)                 4.571243814190767E+10,      /* J = 29 */
(PID.TID 0000.0001)                 3.801790263325260E+10,      /* J = 30 */
(PID.TID 0000.0001)                 2.943712825251114E+10,      /* J = 31 */
(PID.TID 0000.0001)                 1.974052138509018E+10       /* J = 32 */
(PID.TID 0000.0001)     ;
(PID.TID 0000.0001) globalArea = /* Integrated horizontal Area (m^2) */
(PID.TID 0000.0001)                 3.638867375081598E+14
(PID.TID 0000.0001)     ;
(PID.TID 0000.0001) // =======================================================
(PID.TID 0000.0001) // End of Model config. summary
(PID.TID 0000.0001) // =======================================================
(PID.TID 0000.0001) 
(PID.TID 0000.0001)  MDS_READ_FIELD: opening global file: pickup.0000036000
(PID.TID 0000.0001)  MDS_READ_FIELD: opening global file: pickup.0000036000
(PID.TID 0000.0001)  MDS_READ_FIELD: opening global file: pickup.0000036000
(PID.TID 0000.0001)  MDS_READ_FIELD: opening global file: pickup.0000036000
(PID.TID 0000.0001)  MDS_READ_FIELD: opening global file: pickup.0000036000
(PID.TID 0000.0001)  MDS_READ_FIELD: opening global file: pickup.0000036000
(PID.TID 0000.0001)  MDS_READ_FIELD: opening global file: pickup.0000036000
(PID.TID 0000.0001)  MDS_READ_FIELD: opening global file: pickup.0000036000
(PID.TID 0000.0001)  MDS_READ_FIELD: opening global file: pickup.0000036000
(PID.TID 0000.0001)  MDS_READ_FIELD: opening global file: pickup.0000036000
(PID.TID 0000.0001)  MDS_READ_FIELD: opening global file: pickup.0000036000
(PID.TID 0000.0001)  MDS_READ_FIELD: opening global file: trenberth_taux.bin
(PID.TID 0000.0001)  MDS_READ_FIELD: opening global file: trenberth_tauy.bin
(PID.TID 0000.0001)  MDS_READ_FIELD: opening global file: lev_surfT_cs_12m.bin
(PID.TID 0000.0001)  MDS_READ_FIELD: opening global file: lev_surfS_cs_12m.bin
(PID.TID 0000.0001)  write diagnostics summary to file ioUnit:      6
Iter.Nb:     36000 ; Time(s):  3.1104000000000E+09
------------------------------------------------------------------------
2D/3D diagnostics: Number of lists:     6
------------------------------------------------------------------------
listId=   1 ; file name: surfDiag
 nFlds, nActive,       freq     &   phase        , nLev                 
  12  |  12  |1555200000.000000         0.000000 |   1
 levels:   1
 diag#| name   | ipt  | iMate| kLev| count | mate.C|                    
   23 |ETAN    |    1 |    0 |   1 |     0 |
   24 |ETANSQ  |    2 |    0 |   1 |     0 |
   25 |DETADT2 |    3 |    0 |   1 |     0 |
   67 |PHIBOT  |    4 |    0 |   1 |     0 |
   68 |PHIBOTSQ|    5 |    0 |   1 |     0 |
   72 |oceTAUX |    6 |    0 |   1 |     0 |
   73 |oceTAUY |    7 |    0 |   1 |     0 |
   85 |TFLUX   |    8 |    0 |   1 |     0 |
   86 |SFLUX   |    9 |    0 |   1 |     0 |
   80 |oceFreez|   10 |    0 |   1 |     0 |
   81 |TRELAX  |   11 |    0 |   1 |     0 |
   82 |SRELAX  |   12 |    0 |   1 |     0 |
------------------------------------------------------------------------
listId=   2 ; file name: dynDiag
 nFlds, nActive,       freq     &   phase        , nLev                 
  15  |  15  |1555200000.000000         0.000000 |  15
 levels:   1   2   3   4   5   6   7   8   9  10  11  12  13  14  15
 diag#| name   | ipt  | iMate| kLev| count | mate.C|                    
   30 |UVEL    |   13 |   28 |  15 |     0 |     0 |
   31 |VVEL    |   28 |   13 |  15 |     0 |     0 |
   32 |WVEL    |   43 |    0 |  15 |     0 |
   65 |PHIHYD  |   58 |    0 |  15 |     0 |
   44 |VVELMASS|   73 |   88 |  15 |     0 |     0 |
   43 |UVELMASS|   88 |   73 |  15 |     0 |     0 |
   38 |WVELSQ  |  103 |    0 |  15 |     0 |
   26 |THETA   |  118 |    0 |  15 |     0 |
   46 |UTHMASS |  133 |  148 |  15 |     0 |     0 |
   47 |VTHMASS |  148 |  133 |  15 |     0 |     0 |
   48 |WTHMASS |  163 |    0 |  15 |     0 |
   27 |SALT    |  178 |    0 |  15 |     0 |
   49 |USLTMASS|  193 |  208 |  15 |     0 |     0 |
   50 |VSLTMASS|  208 |  193 |  15 |     0 |     0 |
   51 |WSLTMASS|  223 |    0 |  15 |     0 |
------------------------------------------------------------------------
listId=   3 ; file name: thSIceDiag
 nFlds, nActive,       freq     &   phase        , nLev                 
  16  |  17  |1555200000.000000         0.000000 |   1
 levels:   1
 diag#| name   | ipt  | iMate| kLev| count | mate.C|                    
  184 |SI_Fract|  238 |    0 |   1 |    0(x12) |
  185 |SI_Thick|  250 |  238 |   1 |    0(x12) |
  186 |SI_SnowH|  262 |  238 |   1 |    0(x12) |
  187 |SI_Tsrf |  274 |  238 |   1 |    0(x12) |
  188 |SI_Tice1|  286 |  238 |   1 |    0(x12) |
  189 |SI_Tice2|  298 |  238 |   1 |    0(x12) |
  190 |SI_Qice1|  310 |  250 |   1 |    0(x12) |
  191 |SI_Qice2|  322 |  250 |   1 |    0(x12) |
  192 |SIsnwAge|  334 |    0 |   1 |    0(x12) |
  195 |SIsnwPrc|  346 |  358 |   1 |    0(x12) |
  194 |SIalbedo|  370 |  358 |   1 |    0(x12) |
  198 |SIflx2oc|  382 |    0 |   1 |    0(x12) |
  199 |SIfrw2oc|  394 |    0 |   1 |    0(x12) |
  200 |SIsaltFx|  406 |    0 |   1 |    0(x12) |
  196 |SIflxAtm|  418 |    0 |   1 |    0(x12) |
  197 |SIfrwAtm|  430 |    0 |   1 |    0(x12) |
  193 |SI_FrcFx|  358 |    0 |   1 |    0(x12) |
------------------------------------------------------------------------
listId=   4 ; file name: surfInst
 nFlds, nActive,       freq     &   phase        , nLev                 
   2  |   2  |   -777600.000000         0.000000 |   1
 levels:   1
 diag#| name   | ipt  | iMate| kLev| count | mate.C|                    
   23 |ETAN    |  442 |    0 |   1 |     0 |
   76 |oceFWflx|  443 |    0 |   1 |     0 |
------------------------------------------------------------------------
listId=   5 ; file name: etaInst
 nFlds, nActive,       freq     &   phase        , nLev                 
   1  |   1  |   -777600.000000     86400.000000 |   1
 levels:   1
 diag#| name   | ipt  | iMate| kLev| count | mate.C|                    
   23 |ETAN    |  444 |    0 |   1 |     0 |
------------------------------------------------------------------------
listId=   6 ; file name: dynInst
 nFlds, nActive,       freq     &   phase        , nLev                 
   2  |   2  |   -777600.000000         0.000000 |  15
 levels:   1   2   3   4   5   6   7   8   9  10  11  12  13  14  15
 diag#| name   | ipt  | iMate| kLev| count | mate.C|                    
   26 |THETA   |  445 |    0 |  15 |     0 |
   27 |SALT    |  460 |    0 |  15 |     0 |
------------------------------------------------------------------------
Global & Regional Statistics diagnostics: Number of lists:     4
------------------------------------------------------------------------
listId=   1 ; file name: dynStDiag
 nFlds, nActive,       freq     &   phase        |                      
   6  |   6  |    864000.000000         0.000000 |
 Regions:   0
 diag#| name   | ipt  | iMate|    Volume   |   mate-Vol. |              
   23 |ETAN    |    1 |    0 | 0.00000E+00 |
   24 |ETANSQ  |    2 |    0 | 0.00000E+00 |
   25 |DETADT2 |    3 |    0 | 0.00000E+00 |
   26 |THETA   |    4 |    0 | 0.00000E+00 |
   27 |SALT    |   19 |    0 | 0.00000E+00 |
   71 |CONVADJ |   34 |    0 | 0.00000E+00 |
------------------------------------------------------------------------
listId=   2 ; file name: surfStDiag
 nFlds, nActive,       freq     &   phase        |                      
  11  |  11  |    777600.000000     86400.000000 |
 Regions:   0
 diag#| name   | ipt  | iMate|    Volume   |   mate-Vol. |              
   72 |oceTAUX |   49 |    0 | 0.00000E+00 |
   73 |oceTAUY |   50 |    0 | 0.00000E+00 |
   81 |TRELAX  |   51 |    0 | 0.00000E+00 |
   82 |SRELAX  |   52 |    0 | 0.00000E+00 |
   83 |surForcT|   53 |    0 | 0.00000E+00 |
   84 |surForcS|   54 |    0 | 0.00000E+00 |
   85 |TFLUX   |   55 |    0 | 0.00000E+00 |
   86 |SFLUX   |   56 |    0 | 0.00000E+00 |
   78 |oceQnet |   57 |    0 | 0.00000E+00 |
   77 |oceSflux|   58 |    0 | 0.00000E+00 |
   76 |oceFWflx|   59 |    0 | 0.00000E+00 |
------------------------------------------------------------------------
listId=   3 ; file name: instStDiag
 nFlds, nActive,       freq     &   phase        |                      
   3  |   3  |   -777600.000000     86400.000000 |
 Regions:   0
 diag#| name   | ipt  | iMate|    Volume   |   mate-Vol. |              
   23 |ETAN    |   60 |    0 | 0.00000E+00 |
   26 |THETA   |   61 |    0 | 0.00000E+00 |
   27 |SALT    |   76 |    0 | 0.00000E+00 |
------------------------------------------------------------------------
listId=   4 ; file name: thSIceStDiag
 nFlds, nActive,       freq     &   phase        |                      
  16  |  17  |    864000.000000         0.000000 |
 Regions:   0  1  3
 diag#| name   | ipt  | iMate|    Volume   |   mate-Vol. |              
  184 |SI_Fract|   91 |    0 | 0.00000E+00 |
  185 |SI_Thick|   92 |   91 | 0.00000E+00 | 0.00000E+00 |
  186 |SI_SnowH|   93 |   91 | 0.00000E+00 | 0.00000E+00 |
  187 |SI_Tsrf |   94 |   91 | 0.00000E+00 | 0.00000E+00 |
  188 |SI_Tice1|   95 |   91 | 0.00000E+00 | 0.00000E+00 |
  189 |SI_Tice2|   96 |   91 | 0.00000E+00 | 0.00000E+00 |
  190 |SI_Qice1|   97 |   92 | 0.00000E+00 | 0.00000E+00 |
  191 |SI_Qice2|   98 |   92 | 0.00000E+00 | 0.00000E+00 |
  195 |SIsnwPrc|   99 |  100 | 0.00000E+00 | 0.00000E+00 |
  194 |SIalbedo|  101 |  100 | 0.00000E+00 | 0.00000E+00 |
  192 |SIsnwAge|  102 |    0 | 0.00000E+00 |
  198 |SIflx2oc|  103 |    0 | 0.00000E+00 |
  199 |SIfrw2oc|  104 |    0 | 0.00000E+00 |
  200 |SIsaltFx|  105 |    0 | 0.00000E+00 |
  196 |SIflxAtm|  106 |    0 | 0.00000E+00 |
  197 |SIfrwAtm|  107 |    0 | 0.00000E+00 |
  193 |SI_FrcFx|  100 |    0 | 0.00000E+00 |
------------------------------------------------------------------------
(PID.TID 0000.0001)  MDS_READ_FIELD: opening global file: pickup_ic.0000036000
(PID.TID 0000.0001)  MDS_READ_FIELD: opening global file: pickup_ic.0000036000
(PID.TID 0000.0001)  MDS_READ_FIELD: opening global file: pickup_ic.0000036000
(PID.TID 0000.0001)  MDS_READ_FIELD: opening global file: pickup_ic.0000036000
(PID.TID 0000.0001)  MDS_READ_FIELD: opening global file: pickup_ic.0000036000
(PID.TID 0000.0001)  MDS_READ_FIELD: opening global file: pickup_ic.0000036000
(PID.TID 0000.0001)  MDS_READ_FIELD: opening global file: pickup_ic.0000036000
(PID.TID 0000.0001)  MDS_READ_FIELD: opening global file: pickup_ic.0000036000
(PID.TID 0000.0001)  MDS_READ_FIELD: opening global file: pickup_ic.0000036000
(PID.TID 0000.0001) // =======================================================
(PID.TID 0000.0001) // Model current state
(PID.TID 0000.0001) // =======================================================
(PID.TID 0000.0001) 
(PID.TID 0000.0001) // =======================================================
(PID.TID 0000.0001) // Begin MONITOR dynamic field statistics
(PID.TID 0000.0001) // =======================================================
(PID.TID 0000.0001) %MON time_tsnumber                =                 36000
(PID.TID 0000.0001) %MON time_secondsf                =   3.1104000000000E+09
(PID.TID 0000.0001) %MON dynstat_eta_max              =   7.3500434503471E-01
(PID.TID 0000.0001) %MON dynstat_eta_min              =  -1.1986891348601E+01
(PID.TID 0000.0001) %MON dynstat_eta_mean             =  -5.8045564487853E-01
(PID.TID 0000.0001) %MON dynstat_eta_sd               =   1.6994311255501E+00
(PID.TID 0000.0001) %MON dynstat_eta_del2             =   9.6453306471101E-02
(PID.TID 0000.0001) %MON dynstat_uvel_max             =   1.7235154042170E-01
(PID.TID 0000.0001) %MON dynstat_uvel_min             =  -2.7145887709522E-01
(PID.TID 0000.0001) %MON dynstat_uvel_mean            =  -5.2887824837157E-04
(PID.TID 0000.0001) %MON dynstat_uvel_sd              =   1.2989468965472E-02
(PID.TID 0000.0001) %MON dynstat_uvel_del2            =   1.7920186340225E-03
(PID.TID 0000.0001) %MON dynstat_vvel_max             =   1.9306786753954E-01
(PID.TID 0000.0001) %MON dynstat_vvel_min             =  -2.1050631286072E-01
(PID.TID 0000.0001) %MON dynstat_vvel_mean            =  -4.2470116939793E-04
(PID.TID 0000.0001) %MON dynstat_vvel_sd              =   1.3472945317820E-02
(PID.TID 0000.0001) %MON dynstat_vvel_del2            =   1.8319026986974E-03
(PID.TID 0000.0001) %MON dynstat_wvel_max             =   8.3888727589247E-05
(PID.TID 0000.0001) %MON dynstat_wvel_min             =  -1.7681850941337E-04
(PID.TID 0000.0001) %MON dynstat_wvel_mean            =  -1.2631701181818E-09
(PID.TID 0000.0001) %MON dynstat_wvel_sd              =   4.6274614748344E-06
(PID.TID 0000.0001) %MON dynstat_wvel_del2            =   1.1378775396729E-06
(PID.TID 0000.0001) %MON dynstat_theta_max            =   3.0162021109834E+01
(PID.TID 0000.0001) %MON dynstat_theta_min            =  -5.5087736803077E+00
(PID.TID 0000.0001) %MON dynstat_theta_mean           =   3.5027154873320E+00
(PID.TID 0000.0001) %MON dynstat_theta_sd             =   4.7490175075967E+00
(PID.TID 0000.0001) %MON dynstat_theta_del2           =   9.5106365389722E-02
(PID.TID 0000.0001) %MON dynstat_salt_max             =   4.0815425249776E+01
(PID.TID 0000.0001) %MON dynstat_salt_min             =   1.8030178312691E+01
(PID.TID 0000.0001) %MON dynstat_salt_mean            =   3.4756092396968E+01
(PID.TID 0000.0001) %MON dynstat_salt_sd              =   5.1193688315107E-01
(PID.TID 0000.0001) %MON dynstat_salt_del2            =   2.0020089713970E-02
(PID.TID 0000.0001) %MON extforcing_qnet_max          =   0.0000000000000E+00
(PID.TID 0000.0001) %MON extforcing_qnet_min          =   0.0000000000000E+00
(PID.TID 0000.0001) %MON extforcing_qnet_mean         =   0.0000000000000E+00
(PID.TID 0000.0001) %MON extforcing_qnet_sd           =   0.0000000000000E+00
(PID.TID 0000.0001) %MON extforcing_qnet_del2         =   0.0000000000000E+00
(PID.TID 0000.0001) %MON extforcing_qsw_max           =   0.0000000000000E+00
(PID.TID 0000.0001) %MON extforcing_qsw_min           =   0.0000000000000E+00
(PID.TID 0000.0001) %MON extforcing_qsw_mean          =   0.0000000000000E+00
(PID.TID 0000.0001) %MON extforcing_qsw_sd            =   0.0000000000000E+00
(PID.TID 0000.0001) %MON extforcing_qsw_del2          =   0.0000000000000E+00
(PID.TID 0000.0001) %MON extforcing_empmr_max         =   0.0000000000000E+00
(PID.TID 0000.0001) %MON extforcing_empmr_min         =   0.0000000000000E+00
(PID.TID 0000.0001) %MON extforcing_empmr_mean        =   0.0000000000000E+00
(PID.TID 0000.0001) %MON extforcing_empmr_sd          =   0.0000000000000E+00
(PID.TID 0000.0001) %MON extforcing_empmr_del2        =   0.0000000000000E+00
(PID.TID 0000.0001) %MON extforcing_fu_max            =   2.4892781143428E-01
(PID.TID 0000.0001) %MON extforcing_fu_min            =  -2.1535754027523E-01
(PID.TID 0000.0001) %MON extforcing_fu_mean           =  -1.5044401616678E-03
(PID.TID 0000.0001) %MON extforcing_fu_sd             =   6.2251894339929E-02
(PID.TID 0000.0001) %MON extforcing_fu_del2           =   3.5863906188079E-03
(PID.TID 0000.0001) %MON extforcing_fv_max            =   2.9305960402537E-01
(PID.TID 0000.0001) %MON extforcing_fv_min            =  -3.3950131228473E-01
(PID.TID 0000.0001) %MON extforcing_fv_mean           =  -5.6789986032871E-03
(PID.TID 0000.0001) %MON extforcing_fv_sd             =   7.0480050409315E-02
(PID.TID 0000.0001) %MON extforcing_fv_del2           =   3.5172812437129E-03
(PID.TID 0000.0001) %MON advcfl_uvel_max              =   7.6990886762546E-02
(PID.TID 0000.0001) %MON advcfl_vvel_max              =   8.4155563479013E-02
(PID.TID 0000.0001) %MON advcfl_wvel_max              =   5.7649506465342E-02
(PID.TID 0000.0001) %MON advcfl_W_hf_max              =   1.3178433447991E-01
(PID.TID 0000.0001) %MON pe_b_mean                    =   4.2969665467446E-03
(PID.TID 0000.0001) %MON ke_max                       =   3.6920742855791E-02
(PID.TID 0000.0001) %MON ke_mean                      =   1.6194090277160E-04
(PID.TID 0000.0001) %MON ke_vol                       =   1.3395912415612E+18
(PID.TID 0000.0001) %MON vort_r_min                   =  -1.2103928619458E-06
(PID.TID 0000.0001) %MON vort_r_max                   =   1.3658356323918E-06
(PID.TID 0000.0001) %MON vort_a_mean                  =  -2.0493733748264E-05
(PID.TID 0000.0001) %MON vort_a_sd                    =   7.5054014221264E-05
(PID.TID 0000.0001) %MON vort_p_mean                  =  -2.4719485005016E-05
(PID.TID 0000.0001) %MON vort_p_sd                    =   1.2782267184684E-04
(PID.TID 0000.0001) %MON surfExpan_theta_mean         =   8.4664546923379E-08
(PID.TID 0000.0001) %MON surfExpan_salt_mean          =   2.0573162615946E-08
(PID.TID 0000.0001) // =======================================================
(PID.TID 0000.0001) // End MONITOR dynamic field statistics
(PID.TID 0000.0001) // =======================================================
(PID.TID 0000.0001) // =======================================================
(PID.TID 0000.0001) // Begin MONITOR Therm.SeaIce statistics
(PID.TID 0000.0001) // =======================================================
(PID.TID 0000.0001) %MON thSI_time_sec                =   3.1104000000000E+09
(PID.TID 0000.0001) %MON thSI_Ice_Area_G              =   2.4716044426698E+13
(PID.TID 0000.0001) %MON thSI_Ice_Area_S              =   1.2123515471256E+13
(PID.TID 0000.0001) %MON thSI_Ice_Area_N              =   1.2592528955442E+13
(PID.TID 0000.0001) %MON thSI_IceH_ave_G              =   4.5665991101486E+00
(PID.TID 0000.0001) %MON thSI_IceH_ave_S              =   5.6548113929333E+00
(PID.TID 0000.0001) %MON thSI_IceH_ave_N              =   3.5189177037341E+00
(PID.TID 0000.0001) %MON thSI_IceH_max_S              =   1.0000000000000E+01
(PID.TID 0000.0001) %MON thSI_IceH_max_N              =   1.0000000000000E+01
(PID.TID 0000.0001) %MON thSI_SnwH_ave_G              =   1.0642325960795E+00
(PID.TID 0000.0001) %MON thSI_SnwH_ave_S              =   1.8039252994821E+00
(PID.TID 0000.0001) %MON thSI_SnwH_ave_N              =   3.5209002603598E-01
(PID.TID 0000.0001) %MON thSI_SnwH_max_S              =   4.0920173287519E+00
(PID.TID 0000.0001) %MON thSI_SnwH_max_N              =   4.0933581672150E+00
(PID.TID 0000.0001) %MON thSI_TotEnerg_G              =  -3.7927617991529E+22
(PID.TID 0000.0001) %MON thSI_Tsrf_ave_G              =  -1.6644740861567E+01
(PID.TID 0000.0001) %MON thSI_Tsrf_ave_S              =  -1.2271804409750E-01
(PID.TID 0000.0001) %MON thSI_Tsrf_ave_N              =  -3.2551394715834E+01
(PID.TID 0000.0001) %MON thSI_Tsrf_min_S              =  -5.2879155123950E+00
(PID.TID 0000.0001) %MON thSI_Tsrf_min_N              =  -4.6099403861095E+01
(PID.TID 0000.0001) %MON thSI_Tsrf_max_S              =   0.0000000000000E+00
(PID.TID 0000.0001) %MON thSI_Tsrf_max_N              =  -1.7223298637424E+00
(PID.TID 0000.0001) %MON thSI_Tic1_ave_G              =  -8.3503593345479E+00
(PID.TID 0000.0001) %MON thSI_Tic1_ave_S              =  -5.1859254669298E+00
(PID.TID 0000.0001) %MON thSI_Tic1_ave_N              =  -1.3246125323351E+01
(PID.TID 0000.0001) %MON thSI_Tic1_min_S              =  -1.7372153208148E+01
(PID.TID 0000.0001) %MON thSI_Tic1_min_N              =  -2.0584120855350E+01
(PID.TID 0000.0001) %MON thSI_Tic1_max_S              =  -1.5363024655854E-01
(PID.TID 0000.0001) %MON thSI_Tic1_max_N              =  -5.8630083767312E-01
(PID.TID 0000.0001) %MON thSI_Tic2_ave_G              =  -3.7701031784537E+00
(PID.TID 0000.0001) %MON thSI_Tic2_ave_S              =  -3.1173552909385E+00
(PID.TID 0000.0001) %MON thSI_Tic2_ave_N              =  -4.7799839472262E+00
(PID.TID 0000.0001) %MON thSI_Tic2_min_S              =  -8.8326933331569E+00
(PID.TID 0000.0001) %MON thSI_Tic2_min_N              =  -7.3985906582730E+00
(PID.TID 0000.0001) %MON thSI_Tic2_max_S              =  -1.1778332319913E+00
(PID.TID 0000.0001) %MON thSI_Tic2_max_N              =  -1.1561961802541E+00
(PID.TID 0000.0001) // =======================================================
(PID.TID 0000.0001) // End MONITOR Therm.SeaIce statistics
(PID.TID 0000.0001) // =======================================================
S/R BULKF_FIELDS_LOAD: Reading new data:   12    1     36000  3.110400000000E+09
(PID.TID 0000.0001)  MDS_READ_FIELD: opening global file: ncep_tair_cs.bin
(PID.TID 0000.0001)  MDS_READ_FIELD: opening global file: ncep_tair_cs.bin
(PID.TID 0000.0001)  MDS_READ_FIELD: opening global file: ncep_qair_cs.bin
(PID.TID 0000.0001)  MDS_READ_FIELD: opening global file: ncep_qair_cs.bin
(PID.TID 0000.0001)  MDS_READ_FIELD: opening global file: ncep_downsolar_cs.bin
(PID.TID 0000.0001)  MDS_READ_FIELD: opening global file: ncep_downsolar_cs.bin
(PID.TID 0000.0001)  MDS_READ_FIELD: opening global file: ncep_downlw_cs.bin
(PID.TID 0000.0001)  MDS_READ_FIELD: opening global file: ncep_downlw_cs.bin
(PID.TID 0000.0001)  MDS_READ_FIELD: opening global file: ncep_windspeed_cs.bin
(PID.TID 0000.0001)  MDS_READ_FIELD: opening global file: ncep_windspeed_cs.bin
(PID.TID 0000.0001)  MDS_READ_FIELD: opening global file: ncep_pr_scal_cs.bin
(PID.TID 0000.0001)  MDS_READ_FIELD: opening global file: ncep_pr_scal_cs.bin
S/R EXTERNAL_FIELDS_LOAD: Reading new data:   12    1     36000  3.110400000000E+09
(PID.TID 0000.0001)  MDS_READ_FIELD: opening global file: trenberth_taux.bin
(PID.TID 0000.0001)  MDS_READ_FIELD: opening global file: trenberth_taux.bin
(PID.TID 0000.0001)  MDS_READ_FIELD: opening global file: trenberth_tauy.bin
(PID.TID 0000.0001)  MDS_READ_FIELD: opening global file: trenberth_tauy.bin
(PID.TID 0000.0001)  MDS_READ_FIELD: opening global file: lev_surfT_cs_12m.bin
(PID.TID 0000.0001)  MDS_READ_FIELD: opening global file: lev_surfT_cs_12m.bin
(PID.TID 0000.0001)  MDS_READ_FIELD: opening global file: lev_surfS_cs_12m.bin
(PID.TID 0000.0001)  MDS_READ_FIELD: opening global file: lev_surfS_cs_12m.bin
 cg2d: Sum(rhs),rhsMax =   3.91124147393779E+02  2.29216072944605E+02
(PID.TID 0000.0001)                    cg2d_init_res =    1.95245667540820E+01
(PID.TID 0000.0001)                       cg2d_iters =    73
(PID.TID 0000.0001)                         cg2d_res =    5.23005804874548E-07
(PID.TID 0000.0001) // =======================================================
(PID.TID 0000.0001) // Begin MONITOR dynamic field statistics
(PID.TID 0000.0001) // =======================================================
(PID.TID 0000.0001) %MON time_tsnumber                =                 36001
(PID.TID 0000.0001) %MON time_secondsf                =   3.1104864000000E+09
(PID.TID 0000.0001) %MON dynstat_eta_max              =   7.3364165341408E-01
(PID.TID 0000.0001) %MON dynstat_eta_min              =  -1.1985262894562E+01
(PID.TID 0000.0001) %MON dynstat_eta_mean             =  -5.8173577486366E-01
(PID.TID 0000.0001) %MON dynstat_eta_sd               =   1.7025641884617E+00
(PID.TID 0000.0001) %MON dynstat_eta_del2             =   9.7519223594878E-02
(PID.TID 0000.0001) %MON dynstat_uvel_max             =   1.7283785318517E-01
(PID.TID 0000.0001) %MON dynstat_uvel_min             =  -2.7114247820260E-01
(PID.TID 0000.0001) %MON dynstat_uvel_mean            =  -5.2855026361210E-04
(PID.TID 0000.0001) %MON dynstat_uvel_sd              =   1.2989432141383E-02
(PID.TID 0000.0001) %MON dynstat_uvel_del2            =   1.7920769732291E-03
(PID.TID 0000.0001) %MON dynstat_vvel_max             =   1.9354675235086E-01
(PID.TID 0000.0001) %MON dynstat_vvel_min             =  -2.1061392969854E-01
(PID.TID 0000.0001) %MON dynstat_vvel_mean            =  -4.2479012910736E-04
(PID.TID 0000.0001) %MON dynstat_vvel_sd              =   1.3474904197674E-02
(PID.TID 0000.0001) %MON dynstat_vvel_del2            =   1.8307943717561E-03
(PID.TID 0000.0001) %MON dynstat_wvel_max             =   8.3986354703264E-05
(PID.TID 0000.0001) %MON dynstat_wvel_min             =  -1.7706104098023E-04
(PID.TID 0000.0001) %MON dynstat_wvel_mean            =   1.7948601956310E-09
(PID.TID 0000.0001) %MON dynstat_wvel_sd              =   4.6313122455053E-06
(PID.TID 0000.0001) %MON dynstat_wvel_del2            =   1.1408303112376E-06
(PID.TID 0000.0001) %MON dynstat_theta_max            =   3.0146913789444E+01
(PID.TID 0000.0001) %MON dynstat_theta_min            =  -4.0277854238068E+00
(PID.TID 0000.0001) %MON dynstat_theta_mean           =   3.5028311133119E+00
(PID.TID 0000.0001) %MON dynstat_theta_sd             =   4.7489946774363E+00
(PID.TID 0000.0001) %MON dynstat_theta_del2           =   9.5139841410722E-02
(PID.TID 0000.0001) %MON dynstat_salt_max             =   4.0818099758806E+01
(PID.TID 0000.0001) %MON dynstat_salt_min             =   1.8030808752363E+01
(PID.TID 0000.0001) %MON dynstat_salt_mean            =   3.4756104197751E+01
(PID.TID 0000.0001) %MON dynstat_salt_sd              =   5.1189177089368E-01
(PID.TID 0000.0001) %MON dynstat_salt_del2            =   2.0064849347585E-02
(PID.TID 0000.0001) %MON extforcing_qnet_max          =   7.7549616936275E+02
(PID.TID 0000.0001) %MON extforcing_qnet_min          =  -8.9676147940171E+03
(PID.TID 0000.0001) %MON extforcing_qnet_mean         =  -1.4533423828233E+01
(PID.TID 0000.0001) %MON extforcing_qnet_sd           =   2.3414680962637E+02
(PID.TID 0000.0001) %MON extforcing_qnet_del2         =   2.1997419213374E+01
(PID.TID 0000.0001) %MON extforcing_qsw_max           =   0.0000000000000E+00
(PID.TID 0000.0001) %MON extforcing_qsw_min           =  -7.2029618852218E+00
(PID.TID 0000.0001) %MON extforcing_qsw_mean          =  -1.0238529824616E-02
(PID.TID 0000.0001) %MON extforcing_qsw_sd            =   2.2706970841509E-01
(PID.TID 0000.0001) %MON extforcing_qsw_del2          =   1.6165489161223E-02
(PID.TID 0000.0001) %MON extforcing_empmr_max         =   2.6554484665544E-05
(PID.TID 0000.0001) %MON extforcing_empmr_min         =  -4.0448513424106E-07
(PID.TID 0000.0001) %MON extforcing_empmr_mean        =   1.5334890446833E-08
(PID.TID 0000.0001) %MON extforcing_empmr_sd          =   5.1034112588092E-07
(PID.TID 0000.0001) %MON extforcing_empmr_del2        =   2.5824317591198E-08
(PID.TID 0000.0001) %MON extforcing_fu_max            =   2.4760613571392E-01
(PID.TID 0000.0001) %MON extforcing_fu_min            =  -1.9244755495625E-01
(PID.TID 0000.0001) %MON extforcing_fu_mean           =  -1.4713067633654E-03
(PID.TID 0000.0001) %MON extforcing_fu_sd             =   6.1390754177136E-02
(PID.TID 0000.0001) %MON extforcing_fu_del2           =   3.3540311124505E-03
(PID.TID 0000.0001) %MON extforcing_fv_max            =   2.5281098043587E-01
(PID.TID 0000.0001) %MON extforcing_fv_min            =  -3.2691992401999E-01
(PID.TID 0000.0001) %MON extforcing_fv_mean           =  -4.7616642545506E-03
(PID.TID 0000.0001) %MON extforcing_fv_sd             =   6.7215108136440E-02
(PID.TID 0000.0001) %MON extforcing_fv_del2           =   3.3046708266940E-03
(PID.TID 0000.0001) %MON advcfl_uvel_max              =   7.6901150034929E-02
(PID.TID 0000.0001) %MON advcfl_vvel_max              =   8.4364302621637E-02
(PID.TID 0000.0001) %MON advcfl_wvel_max              =   8.8668887926684E-02
(PID.TID 0000.0001) %MON advcfl_W_hf_max              =   1.3123583026053E-01
(PID.TID 0000.0001) %MON pe_b_mean                    =  -1.9289699760956E-03
(PID.TID 0000.0001) %MON ke_max                       =   3.6816950962943E-02
(PID.TID 0000.0001) %MON ke_mean                      =   1.6196482659889E-04
(PID.TID 0000.0001) %MON ke_vol                       =   1.3395912252519E+18
(PID.TID 0000.0001) %MON vort_r_min                   =  -1.2135055972859E-06
(PID.TID 0000.0001) %MON vort_r_max                   =   1.3680147959193E-06
(PID.TID 0000.0001) %MON vort_a_mean                  =  -2.0493733748264E-05
(PID.TID 0000.0001) %MON vort_a_sd                    =   7.5054014056509E-05
(PID.TID 0000.0001) %MON vort_p_mean                  =  -2.4719484734269E-05
(PID.TID 0000.0001) %MON vort_p_sd                    =   1.2782267838298E-04
(PID.TID 0000.0001) %MON surfExpan_theta_mean         =   3.3814052743052E-08
(PID.TID 0000.0001) %MON surfExpan_salt_mean          =   7.5911499754496E-10
(PID.TID 0000.0001) // =======================================================
(PID.TID 0000.0001) // End MONITOR dynamic field statistics
(PID.TID 0000.0001) // =======================================================
(PID.TID 0000.0001) // =======================================================
(PID.TID 0000.0001) // Begin MONITOR Therm.SeaIce statistics
(PID.TID 0000.0001) // =======================================================
(PID.TID 0000.0001) %MON thSI_time_sec                =   3.1104864000000E+09
(PID.TID 0000.0001) %MON thSI_Ice_Area_G              =   2.4715899463533E+13
(PID.TID 0000.0001) %MON thSI_Ice_Area_S              =   1.2052978232366E+13
(PID.TID 0000.0001) %MON thSI_Ice_Area_N              =   1.2662921231167E+13
(PID.TID 0000.0001) %MON thSI_IceH_ave_G              =   4.5887977617477E+00
(PID.TID 0000.0001) %MON thSI_IceH_ave_S              =   5.6855378974135E+00
(PID.TID 0000.0001) %MON thSI_IceH_ave_N              =   3.5448850073031E+00
(PID.TID 0000.0001) %MON thSI_IceH_max_S              =   1.0000000000000E+01
(PID.TID 0000.0001) %MON thSI_IceH_max_N              =   1.0000000000000E+01
(PID.TID 0000.0001) %MON thSI_SnwH_ave_G              =   1.0595684379609E+00
(PID.TID 0000.0001) %MON thSI_SnwH_ave_S              =   1.8018484841387E+00
(PID.TID 0000.0001) %MON thSI_SnwH_ave_N              =   3.5304226792669E-01
(PID.TID 0000.0001) %MON thSI_SnwH_max_S              =   4.0985942889861E+00
(PID.TID 0000.0001) %MON thSI_SnwH_max_N              =   4.1095075267918E+00
(PID.TID 0000.0001) %MON thSI_TotEnerg_G              =  -3.8086152333288E+22
(PID.TID 0000.0001) %MON thSI_Tsrf_ave_G              =  -1.6741638338879E+01
(PID.TID 0000.0001) %MON thSI_Tsrf_ave_S              =  -1.0609316728396E-01
(PID.TID 0000.0001) %MON thSI_Tsrf_ave_N              =  -3.2575888602023E+01
(PID.TID 0000.0001) %MON thSI_Tsrf_min_S              =  -5.3043441467213E+00
(PID.TID 0000.0001) %MON thSI_Tsrf_min_N              =  -4.6213990021686E+01
(PID.TID 0000.0001) %MON thSI_Tsrf_max_S              =   0.0000000000000E+00
(PID.TID 0000.0001) %MON thSI_Tsrf_max_N              =  -6.7474323125520E+00
(PID.TID 0000.0001) %MON thSI_Tic1_ave_G              =  -8.3522329403732E+00
(PID.TID 0000.0001) %MON thSI_Tic1_ave_S              =  -5.1622939582526E+00
(PID.TID 0000.0001) %MON thSI_Tic1_ave_N              =  -1.3222045548506E+01
(PID.TID 0000.0001) %MON thSI_Tic1_min_S              =  -1.7216897768510E+01
(PID.TID 0000.0001) %MON thSI_Tic1_min_N              =  -2.0666395739877E+01
(PID.TID 0000.0001) %MON thSI_Tic1_max_S              =  -2.1831092533945E-01
(PID.TID 0000.0001) %MON thSI_Tic1_max_N              =  -5.9497842414135E-01
(PID.TID 0000.0001) %MON thSI_Tic2_ave_G              =  -3.7741871325020E+00
(PID.TID 0000.0001) %MON thSI_Tic2_ave_S              =  -3.1128413022997E+00
(PID.TID 0000.0001) %MON thSI_Tic2_ave_N              =  -4.7838084074877E+00
(PID.TID 0000.0001) %MON thSI_Tic2_min_S              =  -8.8094598422842E+00
(PID.TID 0000.0001) %MON thSI_Tic2_min_N              =  -7.4380986141887E+00
(PID.TID 0000.0001) %MON thSI_Tic2_max_S              =  -1.1539915958877E+00
(PID.TID 0000.0001) %MON thSI_Tic2_max_N              =  -1.1753502729289E+00
(PID.TID 0000.0001) // =======================================================
(PID.TID 0000.0001) // End MONITOR Therm.SeaIce statistics
(PID.TID 0000.0001) // =======================================================
 Computing Diagnostic #  23  ETAN         Counter:       1   Parms: SM      M1      
 Computing Diagnostic #  76  oceFWflx     Counter:       1   Parms: SM      U1      
 Computing Diagnostic #  26  THETA        Counter:       1   Parms: SM      MR      
 Computing Diagnostic #  27  SALT         Counter:       1   Parms: SM      MR      
 Compute Stats, Diag. #  72  oceTAUX   vol(  0 ): 3.457E+14  Parms: SU      U1      
 Compute Stats, Diag. #  73  oceTAUY   vol(  0 ): 3.478E+14  Parms: SV      U1      
 Compute Stats, Diag. #  81  TRELAX    vol(  0 ): 3.639E+14  Parms: SM      U1      
 Compute Stats, Diag. #  82  SRELAX    vol(  0 ): 3.639E+14  Parms: SM      U1      
 Compute Stats, Diag. #  83  surForcT  vol(  0 ): 3.639E+14  Parms: SM      U1      
 Compute Stats, Diag. #  84  surForcS  vol(  0 ): 3.639E+14  Parms: SM      U1      
 Compute Stats, Diag. #  85  TFLUX     vol(  0 ): 3.639E+14  Parms: SM      U1      
 Compute Stats, Diag. #  86  SFLUX     vol(  0 ): 3.639E+14  Parms: SM      U1      
 Compute Stats, Diag. #  78  oceQnet   vol(  0 ): 3.639E+14  Parms: SM      U1      
 Compute Stats, Diag. #  77  oceSflux  vol(  0 ): 3.639E+14  Parms: SM      U1      
 Compute Stats, Diag. #  76  oceFWflx  vol(  0 ): 3.639E+14  Parms: SM      U1      
 cg2d: Sum(rhs),rhsMax =   3.91133889065761E+02  2.29254718987698E+02
(PID.TID 0000.0001)                    cg2d_init_res =    2.77552303395218E+00
(PID.TID 0000.0001)                       cg2d_iters =    70
(PID.TID 0000.0001)                         cg2d_res =    4.79735041570967E-07
(PID.TID 0000.0001) // =======================================================
(PID.TID 0000.0001) // Begin MONITOR dynamic field statistics
(PID.TID 0000.0001) // =======================================================
(PID.TID 0000.0001) %MON time_tsnumber                =                 36002
(PID.TID 0000.0001) %MON time_secondsf                =   3.1105728000000E+09
(PID.TID 0000.0001) %MON dynstat_eta_max              =   7.3228517734385E-01
(PID.TID 0000.0001) %MON dynstat_eta_min              =  -1.1983659948565E+01
(PID.TID 0000.0001) %MON dynstat_eta_mean             =  -5.8175026407159E-01
(PID.TID 0000.0001) %MON dynstat_eta_sd               =   1.7020044366064E+00
(PID.TID 0000.0001) %MON dynstat_eta_del2             =   9.7561747222905E-02
(PID.TID 0000.0001) %MON dynstat_uvel_max             =   1.7327221391555E-01
(PID.TID 0000.0001) %MON dynstat_uvel_min             =  -2.7081468426829E-01
(PID.TID 0000.0001) %MON dynstat_uvel_mean            =  -5.2816292005109E-04
(PID.TID 0000.0001) %MON dynstat_uvel_sd              =   1.2989176424137E-02
(PID.TID 0000.0001) %MON dynstat_uvel_del2            =   1.7920840173448E-03
(PID.TID 0000.0001) %MON dynstat_vvel_max             =   1.9396956880302E-01
(PID.TID 0000.0001) %MON dynstat_vvel_min             =  -2.1072476121170E-01
(PID.TID 0000.0001) %MON dynstat_vvel_mean            =  -4.2478459950549E-04
(PID.TID 0000.0001) %MON dynstat_vvel_sd              =   1.3476966093054E-02
(PID.TID 0000.0001) %MON dynstat_vvel_del2            =   1.8296514343781E-03
(PID.TID 0000.0001) %MON dynstat_wvel_max             =   8.3878486788599E-05
(PID.TID 0000.0001) %MON dynstat_wvel_min             =  -1.7741494747670E-04
(PID.TID 0000.0001) %MON dynstat_wvel_mean            =  -1.1768150315400E-09
(PID.TID 0000.0001) %MON dynstat_wvel_sd              =   4.6275518240445E-06
(PID.TID 0000.0001) %MON dynstat_wvel_del2            =   1.1369739601588E-06
(PID.TID 0000.0001) %MON dynstat_theta_max            =   3.0130334922489E+01
(PID.TID 0000.0001) %MON dynstat_theta_min            =  -3.3553034921033E+00
(PID.TID 0000.0001) %MON dynstat_theta_mean           =   3.5028860253703E+00
(PID.TID 0000.0001) %MON dynstat_theta_sd             =   4.7490544573424E+00
(PID.TID 0000.0001) %MON dynstat_theta_del2           =   9.5217323163309E-02
(PID.TID 0000.0001) %MON dynstat_salt_max             =   4.0820622897975E+01
(PID.TID 0000.0001) %MON dynstat_salt_min             =   1.8031424297812E+01
(PID.TID 0000.0001) %MON dynstat_salt_mean            =   3.4756104695068E+01
(PID.TID 0000.0001) %MON dynstat_salt_sd              =   5.1188370328388E-01
(PID.TID 0000.0001) %MON dynstat_salt_del2            =   2.0059035584451E-02
(PID.TID 0000.0001) %MON extforcing_qnet_max          =   7.7879844478058E+02
(PID.TID 0000.0001) %MON extforcing_qnet_min          =  -2.4011430029414E+02
(PID.TID 0000.0001) %MON extforcing_qnet_mean         =  -4.4761436244786E+00
(PID.TID 0000.0001) %MON extforcing_qnet_sd           =   1.2145183927093E+02
(PID.TID 0000.0001) %MON extforcing_qnet_del2         =   1.2315925254851E+01
(PID.TID 0000.0001) %MON extforcing_qsw_max           =   0.0000000000000E+00
(PID.TID 0000.0001) %MON extforcing_qsw_min           =  -1.2431438185708E+01
(PID.TID 0000.0001) %MON extforcing_qsw_mean          =  -1.4767682389239E-02
(PID.TID 0000.0001) %MON extforcing_qsw_sd            =   3.5928998675555E-01
(PID.TID 0000.0001) %MON extforcing_qsw_del2          =   2.3515530462133E-02
(PID.TID 0000.0001) %MON extforcing_empmr_max         =   5.9656169202961E-07
(PID.TID 0000.0001) %MON extforcing_empmr_min         =  -3.9953529772996E-07
(PID.TID 0000.0001) %MON extforcing_empmr_mean        =   1.7356863671067E-10
(PID.TID 0000.0001) %MON extforcing_empmr_sd          =   5.5641665492847E-08
(PID.TID 0000.0001) %MON extforcing_empmr_del2        =   8.8889176402748E-09
(PID.TID 0000.0001) %MON extforcing_fu_max            =   2.4755808644372E-01
(PID.TID 0000.0001) %MON extforcing_fu_min            =  -1.9021211852269E-01
(PID.TID 0000.0001) %MON extforcing_fu_mean           =  -1.4735151054191E-03
(PID.TID 0000.0001) %MON extforcing_fu_sd             =   6.1360460766519E-02
(PID.TID 0000.0001) %MON extforcing_fu_del2           =   3.3527300417974E-03
(PID.TID 0000.0001) %MON extforcing_fv_max            =   2.5549422200851E-01
(PID.TID 0000.0001) %MON extforcing_fv_min            =  -3.2770782795392E-01
(PID.TID 0000.0001) %MON extforcing_fv_mean           =  -4.8228167834908E-03
(PID.TID 0000.0001) %MON extforcing_fv_sd             =   6.7376925509796E-02
(PID.TID 0000.0001) %MON extforcing_fv_del2           =   3.3051312271693E-03
(PID.TID 0000.0001) %MON advcfl_uvel_max              =   7.6808181457335E-02
(PID.TID 0000.0001) %MON advcfl_vvel_max              =   8.4548602356404E-02
(PID.TID 0000.0001) %MON advcfl_wvel_max              =   5.7843967781083E-02
(PID.TID 0000.0001) %MON advcfl_W_hf_max              =   1.3061251583494E-01
(PID.TID 0000.0001) %MON pe_b_mean                    =  -1.9275894173280E-03
(PID.TID 0000.0001) %MON ke_max                       =   3.6710232182037E-02
(PID.TID 0000.0001) %MON ke_mean                      =   1.6198737877414E-04
(PID.TID 0000.0001) %MON ke_vol                       =   1.3395907594296E+18
(PID.TID 0000.0001) %MON vort_r_min                   =  -1.2169536276861E-06
(PID.TID 0000.0001) %MON vort_r_max                   =   1.3705438292637E-06
(PID.TID 0000.0001) %MON vort_a_mean                  =  -2.0493733748264E-05
(PID.TID 0000.0001) %MON vort_a_sd                    =   7.5054013914529E-05
(PID.TID 0000.0001) %MON vort_p_mean                  =  -2.4719490938431E-05
(PID.TID 0000.0001) %MON vort_p_sd                    =   1.2782282330856E-04
(PID.TID 0000.0001) %MON surfExpan_theta_mean         =   8.3697402707706E-08
(PID.TID 0000.0001) %MON surfExpan_salt_mean          =   1.8817097996067E-08
(PID.TID 0000.0001) // =======================================================
(PID.TID 0000.0001) // End MONITOR dynamic field statistics
(PID.TID 0000.0001) // =======================================================
(PID.TID 0000.0001) // =======================================================
(PID.TID 0000.0001) // Begin MONITOR Therm.SeaIce statistics
(PID.TID 0000.0001) // =======================================================
(PID.TID 0000.0001) %MON thSI_time_sec                =   3.1105728000000E+09
(PID.TID 0000.0001) %MON thSI_Ice_Area_G              =   2.4700212310890E+13
(PID.TID 0000.0001) %MON thSI_Ice_Area_S              =   1.2002809933095E+13
(PID.TID 0000.0001) %MON thSI_Ice_Area_N              =   1.2697402377796E+13
(PID.TID 0000.0001) %MON thSI_IceH_ave_G              =   4.5924222374239E+00
(PID.TID 0000.0001) %MON thSI_IceH_ave_S              =   5.7019005239882E+00
(PID.TID 0000.0001) %MON thSI_IceH_ave_N              =   3.5436363044985E+00
(PID.TID 0000.0001) %MON thSI_IceH_max_S              =   1.0000000000000E+01
(PID.TID 0000.0001) %MON thSI_IceH_max_N              =   1.0000000000000E+01
(PID.TID 0000.0001) %MON thSI_SnwH_ave_G              =   1.0556650603357E+00
(PID.TID 0000.0001) %MON thSI_SnwH_ave_S              =   1.7970369707148E+00
(PID.TID 0000.0001) %MON thSI_SnwH_ave_N              =   3.5484879372851E-01
(PID.TID 0000.0001) %MON thSI_SnwH_max_S              =   4.0952683498710E+00
(PID.TID 0000.0001) %MON thSI_SnwH_max_N              =   4.1020889037136E+00
(PID.TID 0000.0001) %MON thSI_TotEnerg_G              =  -3.8083115066999E+22
(PID.TID 0000.0001) %MON thSI_Tsrf_ave_G              =  -1.6865184122576E+01
(PID.TID 0000.0001) %MON thSI_Tsrf_ave_S              =  -1.2622732935896E-01
(PID.TID 0000.0001) %MON thSI_Tsrf_ave_N              =  -3.2688461269295E+01
(PID.TID 0000.0001) %MON thSI_Tsrf_min_S              =  -5.3207170352752E+00
(PID.TID 0000.0001) %MON thSI_Tsrf_min_N              =  -4.6355041687305E+01
(PID.TID 0000.0001) %MON thSI_Tsrf_max_S              =   0.0000000000000E+00
(PID.TID 0000.0001) %MON thSI_Tsrf_max_N              =  -7.6783593043140E+00
(PID.TID 0000.0001) %MON thSI_Tic1_ave_G              =  -8.3764224531397E+00
(PID.TID 0000.0001) %MON thSI_Tic1_ave_S              =  -5.1378684534322E+00
(PID.TID 0000.0001) %MON thSI_Tic1_ave_N              =  -1.3302368869092E+01
(PID.TID 0000.0001) %MON thSI_Tic1_min_S              =  -1.6689794567922E+01
(PID.TID 0000.0001) %MON thSI_Tic1_min_N              =  -2.0726706593009E+01
(PID.TID 0000.0001) %MON thSI_Tic1_max_S              =  -2.2651862247147E-01
(PID.TID 0000.0001) %MON thSI_Tic1_max_N              =  -6.4312968843004E-01
(PID.TID 0000.0001) %MON thSI_Tic2_ave_G              =  -3.7787972272549E+00
(PID.TID 0000.0001) %MON thSI_Tic2_ave_S              =  -3.1003988221384E+00
(PID.TID 0000.0001) %MON thSI_Tic2_ave_N              =  -4.8106633602801E+00
(PID.TID 0000.0001) %MON thSI_Tic2_min_S              =  -8.7485368036317E+00
(PID.TID 0000.0001) %MON thSI_Tic2_min_N              =  -7.4594173074705E+00
(PID.TID 0000.0001) %MON thSI_Tic2_max_S              =  -1.2642148384105E+00
(PID.TID 0000.0001) %MON thSI_Tic2_max_N              =  -1.1939219607007E+00
(PID.TID 0000.0001) // =======================================================
(PID.TID 0000.0001) // End MONITOR Therm.SeaIce statistics
(PID.TID 0000.0001) // =======================================================
 Computing Diagnostic #  23  ETAN         Counter:       1   Parms: SM      M1      
 Compute Stats, Diag. #  23  ETAN      vol(  0 ): 3.639E+14  Parms: SM      M1      
 Compute Stats, Diag. #  26  THETA     vol(  0 ): 1.340E+18  Parms: SM      MR      
 Compute Stats, Diag. #  27  SALT      vol(  0 ): 1.340E+18  Parms: SM      MR      
 cg2d: Sum(rhs),rhsMax =   3.91316475048708E+02  2.29299125351588E+02
(PID.TID 0000.0001)                    cg2d_init_res =    6.09319768312889E+00
(PID.TID 0000.0001)                       cg2d_iters =    70
(PID.TID 0000.0001)                         cg2d_res =    5.10639243048112E-07
(PID.TID 0000.0001) // =======================================================
(PID.TID 0000.0001) // Begin MONITOR dynamic field statistics
(PID.TID 0000.0001) // =======================================================
(PID.TID 0000.0001) %MON time_tsnumber                =                 36003
(PID.TID 0000.0001) %MON time_secondsf                =   3.1106592000000E+09
(PID.TID 0000.0001) %MON dynstat_eta_max              =   7.3098014417594E-01
(PID.TID 0000.0001) %MON dynstat_eta_min              =  -1.1981940891628E+01
(PID.TID 0000.0001) %MON dynstat_eta_mean             =  -5.8202183206088E-01
(PID.TID 0000.0001) %MON dynstat_eta_sd               =   1.7024237107647E+00
(PID.TID 0000.0001) %MON dynstat_eta_del2             =   9.7835685573258E-02
(PID.TID 0000.0001) %MON dynstat_uvel_max             =   1.7365120876148E-01
(PID.TID 0000.0001) %MON dynstat_uvel_min             =  -2.7047560863320E-01
(PID.TID 0000.0001) %MON dynstat_uvel_mean            =  -5.2768349179774E-04
(PID.TID 0000.0001) %MON dynstat_uvel_sd              =   1.2988686046823E-02
(PID.TID 0000.0001) %MON dynstat_uvel_del2            =   1.7920246326185E-03
(PID.TID 0000.0001) %MON dynstat_vvel_max             =   1.9433339772112E-01
(PID.TID 0000.0001) %MON dynstat_vvel_min             =  -2.1082782337652E-01
(PID.TID 0000.0001) %MON dynstat_vvel_mean            =  -4.2457684385775E-04
(PID.TID 0000.0001) %MON dynstat_vvel_sd              =   1.3479060899745E-02
(PID.TID 0000.0001) %MON dynstat_vvel_del2            =   1.8285031479479E-03
(PID.TID 0000.0001) %MON dynstat_wvel_max             =   8.3855420286911E-05
(PID.TID 0000.0001) %MON dynstat_wvel_min             =  -1.7771365500163E-04
(PID.TID 0000.0001) %MON dynstat_wvel_mean            =  -6.3789999705096E-10
(PID.TID 0000.0001) %MON dynstat_wvel_sd              =   4.6278496555140E-06
(PID.TID 0000.0001) %MON dynstat_wvel_del2            =   1.1375525607846E-06
(PID.TID 0000.0001) %MON dynstat_theta_max            =   3.0113090999223E+01
(PID.TID 0000.0001) %MON dynstat_theta_min            =  -3.3518890247416E+00
(PID.TID 0000.0001) %MON dynstat_theta_mean           =   3.5029481957323E+00
(PID.TID 0000.0001) %MON dynstat_theta_sd             =   4.7491111957976E+00
(PID.TID 0000.0001) %MON dynstat_theta_del2           =   9.5244559117423E-02
(PID.TID 0000.0001) %MON dynstat_salt_max             =   4.0822997009410E+01
(PID.TID 0000.0001) %MON dynstat_salt_min             =   1.8032025862681E+01
(PID.TID 0000.0001) %MON dynstat_salt_mean            =   3.4756107804626E+01
(PID.TID 0000.0001) %MON dynstat_salt_sd              =   5.1187003432288E-01
(PID.TID 0000.0001) %MON dynstat_salt_del2            =   2.0065053992348E-02
(PID.TID 0000.0001) %MON extforcing_qnet_max          =   7.8158937184661E+02
(PID.TID 0000.0001) %MON extforcing_qnet_min          =  -3.0899403840181E+03
(PID.TID 0000.0001) %MON extforcing_qnet_mean         =  -5.5332644433364E+00
(PID.TID 0000.0001) %MON extforcing_qnet_sd           =   1.3214010182084E+02
(PID.TID 0000.0001) %MON extforcing_qnet_del2         =   1.3453127201622E+01
(PID.TID 0000.0001) %MON extforcing_qsw_max           =   0.0000000000000E+00
(PID.TID 0000.0001) %MON extforcing_qsw_min           =  -1.6472348082842E+01
(PID.TID 0000.0001) %MON extforcing_qsw_mean          =  -1.8622951981448E-02
(PID.TID 0000.0001) %MON extforcing_qsw_sd            =   4.6356102316554E-01
(PID.TID 0000.0001) %MON extforcing_qsw_del2          =   2.9772466250863E-02
(PID.TID 0000.0001) %MON extforcing_empmr_max         =   9.1469285245793E-06
(PID.TID 0000.0001) %MON extforcing_empmr_min         =  -3.9326691621707E-07
(PID.TID 0000.0001) %MON extforcing_empmr_mean        =   3.2531582049772E-09
(PID.TID 0000.0001) %MON extforcing_empmr_sd          =   1.6508110392724E-07
(PID.TID 0000.0001) %MON extforcing_empmr_del2        =   1.2384369038049E-08
(PID.TID 0000.0001) %MON extforcing_fu_max            =   2.4751003717351E-01
(PID.TID 0000.0001) %MON extforcing_fu_min            =  -1.9188096691302E-01
(PID.TID 0000.0001) %MON extforcing_fu_mean           =  -1.4757232523902E-03
(PID.TID 0000.0001) %MON extforcing_fu_sd             =   6.1342749048155E-02
(PID.TID 0000.0001) %MON extforcing_fu_del2           =   3.3537349379800E-03
(PID.TID 0000.0001) %MON extforcing_fv_max            =   2.5817746358114E-01
(PID.TID 0000.0001) %MON extforcing_fv_min            =  -3.2849573188785E-01
(PID.TID 0000.0001) %MON extforcing_fv_mean           =  -4.8839697100071E-03
(PID.TID 0000.0001) %MON extforcing_fv_sd             =   6.7547018222434E-02
(PID.TID 0000.0001) %MON extforcing_fv_del2           =   3.3071746233448E-03
(PID.TID 0000.0001) %MON advcfl_uvel_max              =   7.6712013175406E-02
(PID.TID 0000.0001) %MON advcfl_vvel_max              =   8.4707190256103E-02
(PID.TID 0000.0001) %MON advcfl_wvel_max              =   5.7941357706192E-02
(PID.TID 0000.0001) %MON advcfl_W_hf_max              =   1.2991684453117E-01
(PID.TID 0000.0001) %MON pe_b_mean                    =  -1.9306585285256E-03
(PID.TID 0000.0001) %MON ke_max                       =   3.6600833378109E-02
(PID.TID 0000.0001) %MON ke_mean                      =   1.6200741200478E-04
(PID.TID 0000.0001) %MON ke_vol                       =   1.3395907541571E+18
(PID.TID 0000.0001) %MON vort_r_min                   =  -1.2207064848388E-06
(PID.TID 0000.0001) %MON vort_r_max                   =   1.3733576084633E-06
(PID.TID 0000.0001) %MON vort_a_mean                  =  -2.0493733748264E-05
(PID.TID 0000.0001) %MON vort_a_sd                    =   7.5054013783129E-05
(PID.TID 0000.0001) %MON vort_p_mean                  =  -2.4719490521845E-05
(PID.TID 0000.0001) %MON vort_p_sd                    =   1.2782282816549E-04
(PID.TID 0000.0001) %MON surfExpan_theta_mean         =   7.1221769306039E-08
(PID.TID 0000.0001) %MON surfExpan_salt_mean          =   1.4830084044142E-08
(PID.TID 0000.0001) // =======================================================
(PID.TID 0000.0001) // End MONITOR dynamic field statistics
(PID.TID 0000.0001) // =======================================================
(PID.TID 0000.0001) // =======================================================
(PID.TID 0000.0001) // Begin MONITOR Therm.SeaIce statistics
(PID.TID 0000.0001) // =======================================================
(PID.TID 0000.0001) %MON thSI_time_sec                =   3.1106592000000E+09
(PID.TID 0000.0001) %MON thSI_Ice_Area_G              =   2.4670816120853E+13
(PID.TID 0000.0001) %MON thSI_Ice_Area_S              =   1.1942420311911E+13
(PID.TID 0000.0001) %MON thSI_Ice_Area_N              =   1.2728395808943E+13
(PID.TID 0000.0001) %MON thSI_IceH_ave_G              =   4.6028774947235E+00
(PID.TID 0000.0001) %MON thSI_IceH_ave_S              =   5.7234002445341E+00
(PID.TID 0000.0001) %MON thSI_IceH_ave_N              =   3.5515467655287E+00
(PID.TID 0000.0001) %MON thSI_IceH_max_S              =   1.0000000000000E+01
(PID.TID 0000.0001) %MON thSI_IceH_max_N              =   1.0000000000000E+01
(PID.TID 0000.0001) %MON thSI_SnwH_ave_G              =   1.0525716707923E+00
(PID.TID 0000.0001) %MON thSI_SnwH_ave_S              =   1.7941098085757E+00
(PID.TID 0000.0001) %MON thSI_SnwH_ave_N              =   3.5682334149378E-01
(PID.TID 0000.0001) %MON thSI_SnwH_max_S              =   4.0939886001755E+00
(PID.TID 0000.0001) %MON thSI_SnwH_max_N              =   4.1023323071042E+00
(PID.TID 0000.0001) %MON thSI_TotEnerg_G              =  -3.8112851887810E+22
(PID.TID 0000.0001) %MON thSI_Tsrf_ave_G              =  -1.6948993189829E+01
(PID.TID 0000.0001) %MON thSI_Tsrf_ave_S              =  -1.0907924227324E-01
(PID.TID 0000.0001) %MON thSI_Tsrf_ave_N              =  -3.2749046346317E+01
(PID.TID 0000.0001) %MON thSI_Tsrf_min_S              =  -5.3370576573390E+00
(PID.TID 0000.0001) %MON thSI_Tsrf_min_N              =  -4.6469445815269E+01
(PID.TID 0000.0001) %MON thSI_Tsrf_max_S              =   0.0000000000000E+00
(PID.TID 0000.0001) %MON thSI_Tsrf_max_N              =  -1.8310281120032E+00
(PID.TID 0000.0001) %MON thSI_Tic1_ave_G              =  -8.3957914016447E+00
(PID.TID 0000.0001) %MON thSI_Tic1_ave_S              =  -5.1169083747070E+00
(PID.TID 0000.0001) %MON thSI_Tic1_ave_N              =  -1.3353502139096E+01
(PID.TID 0000.0001) %MON thSI_Tic1_min_S              =  -1.6541939737997E+01
(PID.TID 0000.0001) %MON thSI_Tic1_min_N              =  -2.0804073017119E+01
(PID.TID 0000.0001) %MON thSI_Tic1_max_S              =  -2.1750151966010E-01
(PID.TID 0000.0001) %MON thSI_Tic1_max_N              =  -6.5772142546384E-01
(PID.TID 0000.0001) %MON thSI_Tic2_ave_G              =  -3.7888207931718E+00
(PID.TID 0000.0001) %MON thSI_Tic2_ave_S              =  -3.0968964925425E+00
(PID.TID 0000.0001) %MON thSI_Tic2_ave_N              =  -4.8350186924416E+00
(PID.TID 0000.0001) %MON thSI_Tic2_min_S              =  -8.7237674264693E+00
(PID.TID 0000.0001) %MON thSI_Tic2_min_N              =  -7.4973446282919E+00
(PID.TID 0000.0001) %MON thSI_Tic2_max_S              =  -1.2267454972869E+00
(PID.TID 0000.0001) %MON thSI_Tic2_max_N              =  -1.2119327409985E+00
(PID.TID 0000.0001) // =======================================================
(PID.TID 0000.0001) // End MONITOR Therm.SeaIce statistics
(PID.TID 0000.0001) // =======================================================
 cg2d: Sum(rhs),rhsMax =   3.91431735138236E+02  2.29353778421529E+02
(PID.TID 0000.0001)                    cg2d_init_res =    4.27937209263132E+00
(PID.TID 0000.0001)                       cg2d_iters =    70
(PID.TID 0000.0001)                         cg2d_res =    4.98308859826975E-07
(PID.TID 0000.0001) // =======================================================
(PID.TID 0000.0001) // Begin MONITOR dynamic field statistics
(PID.TID 0000.0001) // =======================================================
(PID.TID 0000.0001) %MON time_tsnumber                =                 36004
(PID.TID 0000.0001) %MON time_secondsf                =   3.1107456000000E+09
(PID.TID 0000.0001) %MON dynstat_eta_max              =   7.2971434106273E-01
(PID.TID 0000.0001) %MON dynstat_eta_min              =  -1.1980155613571E+01
(PID.TID 0000.0001) %MON dynstat_eta_mean             =  -5.8219326335178E-01
(PID.TID 0000.0001) %MON dynstat_eta_sd               =   1.7024600928087E+00
(PID.TID 0000.0001) %MON dynstat_eta_del2             =   9.8028395748645E-02
(PID.TID 0000.0001) %MON dynstat_uvel_max             =   1.7397162242174E-01
(PID.TID 0000.0001) %MON dynstat_uvel_min             =  -2.7012530177881E-01
(PID.TID 0000.0001) %MON dynstat_uvel_mean            =  -5.2717744000828E-04
(PID.TID 0000.0001) %MON dynstat_uvel_sd              =   1.2988015867196E-02
(PID.TID 0000.0001) %MON dynstat_uvel_del2            =   1.7918815054090E-03
(PID.TID 0000.0001) %MON dynstat_vvel_max             =   1.9463706134790E-01
(PID.TID 0000.0001) %MON dynstat_vvel_min             =  -2.1092331716117E-01
(PID.TID 0000.0001) %MON dynstat_vvel_mean            =  -4.2424974545295E-04
(PID.TID 0000.0001) %MON dynstat_vvel_sd              =   1.3481120901137E-02
(PID.TID 0000.0001) %MON dynstat_vvel_del2            =   1.8274708132107E-03
(PID.TID 0000.0001) %MON dynstat_wvel_max             =   8.3859107450153E-05
(PID.TID 0000.0001) %MON dynstat_wvel_min             =  -1.7794582859122E-04
(PID.TID 0000.0001) %MON dynstat_wvel_mean            =  -7.9179958615070E-10
(PID.TID 0000.0001) %MON dynstat_wvel_sd              =   4.6274856779680E-06
(PID.TID 0000.0001) %MON dynstat_wvel_del2            =   1.1369200947045E-06
(PID.TID 0000.0001) %MON dynstat_theta_max            =   3.0095304081091E+01
(PID.TID 0000.0001) %MON dynstat_theta_min            =  -3.3484346561690E+00
(PID.TID 0000.0001) %MON dynstat_theta_mean           =   3.5030077917731E+00
(PID.TID 0000.0001) %MON dynstat_theta_sd             =   4.7491763493807E+00
(PID.TID 0000.0001) %MON dynstat_theta_del2           =   9.5268909425083E-02
(PID.TID 0000.0001) %MON dynstat_salt_max             =   4.0825224245697E+01
(PID.TID 0000.0001) %MON dynstat_salt_min             =   1.8032614601288E+01
(PID.TID 0000.0001) %MON dynstat_salt_mean            =   3.4756110003957E+01
(PID.TID 0000.0001) %MON dynstat_salt_sd              =   5.1185885347964E-01
(PID.TID 0000.0001) %MON dynstat_salt_del2            =   2.0070424625685E-02
(PID.TID 0000.0001) %MON extforcing_qnet_max          =   7.8348121552461E+02
(PID.TID 0000.0001) %MON extforcing_qnet_min          =  -1.7555053985315E+03
(PID.TID 0000.0001) %MON extforcing_qnet_mean         =  -5.1189201881792E+00
(PID.TID 0000.0001) %MON extforcing_qnet_sd           =   1.2468602839460E+02
(PID.TID 0000.0001) %MON extforcing_qnet_del2         =   1.3023986608479E+01
(PID.TID 0000.0001) %MON extforcing_qsw_max           =   0.0000000000000E+00
(PID.TID 0000.0001) %MON extforcing_qsw_min           =  -1.9793595073353E+01
(PID.TID 0000.0001) %MON extforcing_qsw_mean          =  -2.2569213737958E-02
(PID.TID 0000.0001) %MON extforcing_qsw_sd            =   5.4909735276704E-01
(PID.TID 0000.0001) %MON extforcing_qsw_del2          =   3.4060974587032E-02
(PID.TID 0000.0001) %MON extforcing_empmr_max         =   5.1962280256851E-06
(PID.TID 0000.0001) %MON extforcing_empmr_min         =  -3.8551326207228E-07
(PID.TID 0000.0001) %MON extforcing_empmr_mean        =   2.0536040056355E-09
(PID.TID 0000.0001) %MON extforcing_empmr_sd          =   1.0356265941368E-07
(PID.TID 0000.0001) %MON extforcing_empmr_del2        =   1.0823153791096E-08
(PID.TID 0000.0001) %MON extforcing_fu_max            =   2.4746198790331E-01
(PID.TID 0000.0001) %MON extforcing_fu_min            =  -1.9354981530334E-01
(PID.TID 0000.0001) %MON extforcing_fu_mean           =  -1.4779314310097E-03
(PID.TID 0000.0001) %MON extforcing_fu_sd             =   6.1337629682845E-02
(PID.TID 0000.0001) %MON extforcing_fu_del2           =   3.3576808392742E-03
(PID.TID 0000.0001) %MON extforcing_fv_max            =   2.6086070515377E-01
(PID.TID 0000.0001) %MON extforcing_fv_min            =  -3.2928363582178E-01
(PID.TID 0000.0001) %MON extforcing_fv_mean           =  -4.9451226429485E-03
(PID.TID 0000.0001) %MON extforcing_fv_sd             =   6.7725323840602E-02
(PID.TID 0000.0001) %MON extforcing_fv_del2           =   3.3110159854204E-03
(PID.TID 0000.0001) %MON advcfl_uvel_max              =   7.6612659506638E-02
(PID.TID 0000.0001) %MON advcfl_vvel_max              =   8.4839552952940E-02
(PID.TID 0000.0001) %MON advcfl_wvel_max              =   5.8017055057667E-02
(PID.TID 0000.0001) %MON advcfl_W_hf_max              =   1.2915071368824E-01
(PID.TID 0000.0001) %MON pe_b_mean                    =  -1.9320874895771E-03
(PID.TID 0000.0001) %MON ke_max                       =   3.6488853764331E-02
(PID.TID 0000.0001) %MON ke_mean                      =   1.6202481384345E-04
(PID.TID 0000.0001) %MON ke_vol                       =   1.3395906553371E+18
(PID.TID 0000.0001) %MON vort_r_min                   =  -1.2247368546603E-06
(PID.TID 0000.0001) %MON vort_r_max                   =   1.3764054453388E-06
(PID.TID 0000.0001) %MON vort_a_mean                  =  -2.0493733748264E-05
(PID.TID 0000.0001) %MON vort_a_sd                    =   7.5054013665965E-05
(PID.TID 0000.0001) %MON vort_p_mean                  =  -2.4719491456002E-05
(PID.TID 0000.0001) %MON vort_p_sd                    =   1.2782286100846E-04
(PID.TID 0000.0001) %MON surfExpan_theta_mean         =   7.7338838996806E-08
(PID.TID 0000.0001) %MON surfExpan_salt_mean          =   1.6645958005519E-08
(PID.TID 0000.0001) // =======================================================
(PID.TID 0000.0001) // End MONITOR dynamic field statistics
(PID.TID 0000.0001) // =======================================================
(PID.TID 0000.0001) // =======================================================
(PID.TID 0000.0001) // Begin MONITOR Therm.SeaIce statistics
(PID.TID 0000.0001) // =======================================================
(PID.TID 0000.0001) %MON thSI_time_sec                =   3.1107456000000E+09
(PID.TID 0000.0001) %MON thSI_Ice_Area_G              =   2.4663829835978E+13
(PID.TID 0000.0001) %MON thSI_Ice_Area_S              =   1.1898928750977E+13
(PID.TID 0000.0001) %MON thSI_Ice_Area_N              =   1.2764901085001E+13
(PID.TID 0000.0001) %MON thSI_IceH_ave_G              =   4.6074123087530E+00
(PID.TID 0000.0001) %MON thSI_IceH_ave_S              =   5.7372945485971E+00
(PID.TID 0000.0001) %MON thSI_IceH_ave_N              =   3.5541814079123E+00
(PID.TID 0000.0001) %MON thSI_IceH_max_S              =   1.0000000000000E+01
(PID.TID 0000.0001) %MON thSI_IceH_max_N              =   1.0000000000000E+01
(PID.TID 0000.0001) %MON thSI_SnwH_ave_G              =   1.0486456588992E+00
(PID.TID 0000.0001) %MON thSI_SnwH_ave_S              =   1.7888622088830E+00
(PID.TID 0000.0001) %MON thSI_SnwH_ave_N              =   3.5864548342578E-01
(PID.TID 0000.0001) %MON thSI_SnwH_max_S              =   4.0939942672555E+00
(PID.TID 0000.0001) %MON thSI_SnwH_max_N              =   4.1021903942992E+00
(PID.TID 0000.0001) %MON thSI_TotEnerg_G              =  -3.8128977252485E+22
(PID.TID 0000.0001) %MON thSI_Tsrf_ave_G              =  -1.7036858962324E+01
(PID.TID 0000.0001) %MON thSI_Tsrf_ave_S              =  -1.2963918794565E-01
(PID.TID 0000.0001) %MON thSI_Tsrf_ave_N              =  -3.2797091034065E+01
(PID.TID 0000.0001) %MON thSI_Tsrf_min_S              =  -5.3533619613956E+00
(PID.TID 0000.0001) %MON thSI_Tsrf_min_N              =  -4.6583877731654E+01
(PID.TID 0000.0001) %MON thSI_Tsrf_max_S              =   0.0000000000000E+00
(PID.TID 0000.0001) %MON thSI_Tsrf_max_N              =  -5.8028464107053E+00
(PID.TID 0000.0001) %MON thSI_Tic1_ave_G              =  -8.4149612572920E+00
(PID.TID 0000.0001) %MON thSI_Tic1_ave_S              =  -5.0900746056045E+00
(PID.TID 0000.0001) %MON thSI_Tic1_ave_N              =  -1.3418010883229E+01
(PID.TID 0000.0001) %MON thSI_Tic1_min_S              =  -1.6056754932999E+01
(PID.TID 0000.0001) %MON thSI_Tic1_min_N              =  -2.0878819474550E+01
(PID.TID 0000.0001) %MON thSI_Tic1_max_S              =  -1.9815060478637E-01
(PID.TID 0000.0001) %MON thSI_Tic1_max_N              =  -6.7292403751227E-01
(PID.TID 0000.0001) %MON thSI_Tic2_ave_G              =  -3.7998714991343E+00
(PID.TID 0000.0001) %MON thSI_Tic2_ave_S              =  -3.0932545510002E+00
(PID.TID 0000.0001) %MON thSI_Tic2_ave_N              =  -4.8631377179237E+00
(PID.TID 0000.0001) %MON thSI_Tic2_min_S              =  -8.6974972960552E+00
(PID.TID 0000.0001) %MON thSI_Tic2_min_N              =  -7.5341003027692E+00
(PID.TID 0000.0001) %MON thSI_Tic2_max_S              =  -1.2608442771990E+00
(PID.TID 0000.0001) %MON thSI_Tic2_max_N              =  -1.2300765095081E+00
(PID.TID 0000.0001) // =======================================================
(PID.TID 0000.0001) // End MONITOR Therm.SeaIce statistics
(PID.TID 0000.0001) // =======================================================
 cg2d: Sum(rhs),rhsMax =   3.91524320573105E+02  2.29417315126883E+02
(PID.TID 0000.0001)                    cg2d_init_res =    3.38040606026801E+00
(PID.TID 0000.0001)                       cg2d_iters =    69
(PID.TID 0000.0001)                         cg2d_res =    5.75183583138593E-07
(PID.TID 0000.0001) // =======================================================
(PID.TID 0000.0001) // Begin MONITOR dynamic field statistics
(PID.TID 0000.0001) // =======================================================
(PID.TID 0000.0001) %MON time_tsnumber                =                 36005
(PID.TID 0000.0001) %MON time_secondsf                =   3.1108320000000E+09
(PID.TID 0000.0001) %MON dynstat_eta_max              =   7.2845930503470E-01
(PID.TID 0000.0001) %MON dynstat_eta_min              =  -1.1978297351146E+01
(PID.TID 0000.0001) %MON dynstat_eta_mean             =  -5.8233096965310E-01
(PID.TID 0000.0001) %MON dynstat_eta_sd               =   1.7022311279807E+00
(PID.TID 0000.0001) %MON dynstat_eta_del2             =   9.8118012981844E-02
(PID.TID 0000.0001) %MON dynstat_uvel_max             =   1.7423090664500E-01
(PID.TID 0000.0001) %MON dynstat_uvel_min             =  -2.6976374217966E-01
(PID.TID 0000.0001) %MON dynstat_uvel_mean            =  -5.2668889722624E-04
(PID.TID 0000.0001) %MON dynstat_uvel_sd              =   1.2987227339616E-02
(PID.TID 0000.0001) %MON dynstat_uvel_del2            =   1.7916959145231E-03
(PID.TID 0000.0001) %MON dynstat_vvel_max             =   1.9488015169088E-01
(PID.TID 0000.0001) %MON dynstat_vvel_min             =  -2.1101142795877E-01
(PID.TID 0000.0001) %MON dynstat_vvel_mean            =  -4.2379840694671E-04
(PID.TID 0000.0001) %MON dynstat_vvel_sd              =   1.3483087010025E-02
(PID.TID 0000.0001) %MON dynstat_vvel_del2            =   1.8264832471195E-03
(PID.TID 0000.0001) %MON dynstat_wvel_max             =   8.4551168911113E-05
(PID.TID 0000.0001) %MON dynstat_wvel_min             =  -1.7811643663159E-04
(PID.TID 0000.0001) %MON dynstat_wvel_mean            =  -9.2199559892955E-10
(PID.TID 0000.0001) %MON dynstat_wvel_sd              =   4.6272495952351E-06
(PID.TID 0000.0001) %MON dynstat_wvel_del2            =   1.1365051206358E-06
(PID.TID 0000.0001) %MON dynstat_theta_max            =   3.0077061092594E+01
(PID.TID 0000.0001) %MON dynstat_theta_min            =  -3.3449468919928E+00
(PID.TID 0000.0001) %MON dynstat_theta_mean           =   3.5030666935564E+00
(PID.TID 0000.0001) %MON dynstat_theta_sd             =   4.7492473431111E+00
(PID.TID 0000.0001) %MON dynstat_theta_del2           =   9.5250970373066E-02
(PID.TID 0000.0001) %MON dynstat_salt_max             =   4.0827306773291E+01
(PID.TID 0000.0001) %MON dynstat_salt_min             =   1.8033191954634E+01
(PID.TID 0000.0001) %MON dynstat_salt_mean            =   3.4756111934268E+01
(PID.TID 0000.0001) %MON dynstat_salt_sd              =   5.1184786866838E-01
(PID.TID 0000.0001) %MON dynstat_salt_del2            =   2.0053397919766E-02
(PID.TID 0000.0001) %MON extforcing_qnet_max          =   7.8371294454347E+02
(PID.TID 0000.0001) %MON extforcing_qnet_min          =  -1.0231510933364E+03
(PID.TID 0000.0001) %MON extforcing_qnet_mean         =  -4.9897459689221E+00
(PID.TID 0000.0001) %MON extforcing_qnet_sd           =   1.2187141141934E+02
(PID.TID 0000.0001) %MON extforcing_qnet_del2         =   1.2729493437744E+01
(PID.TID 0000.0001) %MON extforcing_qsw_max           =   0.0000000000000E+00
(PID.TID 0000.0001) %MON extforcing_qsw_min           =  -2.2654349484660E+01
(PID.TID 0000.0001) %MON extforcing_qsw_mean          =  -2.5400749174860E-02
(PID.TID 0000.0001) %MON extforcing_qsw_sd            =   6.2498596842882E-01
(PID.TID 0000.0001) %MON extforcing_qsw_del2          =   3.8170912022405E-02
(PID.TID 0000.0001) %MON extforcing_empmr_max         =   3.0282213854791E-06
(PID.TID 0000.0001) %MON extforcing_empmr_min         =  -3.7614891269597E-07
(PID.TID 0000.0001) %MON extforcing_empmr_mean        =   1.6496067345715E-09
(PID.TID 0000.0001) %MON extforcing_empmr_sd          =   7.6702456095941E-08
(PID.TID 0000.0001) %MON extforcing_empmr_del2        =   1.0257590190825E-08
(PID.TID 0000.0001) %MON extforcing_fu_max            =   2.4741393863310E-01
(PID.TID 0000.0001) %MON extforcing_fu_min            =  -1.9521866369366E-01
(PID.TID 0000.0001) %MON extforcing_fu_mean           =  -1.4801396996707E-03
(PID.TID 0000.0001) %MON extforcing_fu_sd             =   6.1345105775787E-02
(PID.TID 0000.0001) %MON extforcing_fu_del2           =   3.3640471809518E-03
(PID.TID 0000.0001) %MON extforcing_fv_max            =   2.6354394672640E-01
(PID.TID 0000.0001) %MON extforcing_fv_min            =  -3.3007153975572E-01
(PID.TID 0000.0001) %MON extforcing_fv_mean           =  -5.0062755107664E-03
(PID.TID 0000.0001) %MON extforcing_fv_sd             =   6.7911777671743E-02
(PID.TID 0000.0001) %MON extforcing_fv_del2           =   3.3167920859268E-03
(PID.TID 0000.0001) %MON advcfl_uvel_max              =   7.6510114346011E-02
(PID.TID 0000.0001) %MON advcfl_vvel_max              =   8.4945512608738E-02
(PID.TID 0000.0001) %MON advcfl_wvel_max              =   5.8072679716866E-02
(PID.TID 0000.0001) %MON advcfl_W_hf_max              =   1.2831606031306E-01
(PID.TID 0000.0001) %MON pe_b_mean                    =  -1.9325039548779E-03
(PID.TID 0000.0001) %MON ke_max                       =   3.6374367372201E-02
(PID.TID 0000.0001) %MON ke_mean                      =   1.6203959408819E-04
(PID.TID 0000.0001) %MON ke_vol                       =   1.3395905929556E+18
(PID.TID 0000.0001) %MON vort_r_min                   =  -1.2290168617874E-06
(PID.TID 0000.0001) %MON vort_r_max                   =   1.3796425005907E-06
(PID.TID 0000.0001) %MON vort_a_mean                  =  -2.0493733748264E-05
(PID.TID 0000.0001) %MON vort_a_sd                    =   7.5054013562827E-05
(PID.TID 0000.0001) %MON vort_p_mean                  =  -2.4719491914901E-05
(PID.TID 0000.0001) %MON vort_p_sd                    =   1.2782288229245E-04
(PID.TID 0000.0001) %MON surfExpan_theta_mean         =   8.0386220976937E-08
(PID.TID 0000.0001) %MON surfExpan_salt_mean          =   1.7658454772431E-08
(PID.TID 0000.0001) // =======================================================
(PID.TID 0000.0001) // End MONITOR dynamic field statistics
(PID.TID 0000.0001) // =======================================================
(PID.TID 0000.0001) // =======================================================
(PID.TID 0000.0001) // Begin MONITOR Therm.SeaIce statistics
(PID.TID 0000.0001) // =======================================================
(PID.TID 0000.0001) %MON thSI_time_sec                =   3.1108320000000E+09
(PID.TID 0000.0001) %MON thSI_Ice_Area_G              =   2.4713538553077E+13
(PID.TID 0000.0001) %MON thSI_Ice_Area_S              =   1.1853303843654E+13
(PID.TID 0000.0001) %MON thSI_Ice_Area_N              =   1.2860234709422E+13
(PID.TID 0000.0001) %MON thSI_IceH_ave_G              =   4.6007752219965E+00
(PID.TID 0000.0001) %MON thSI_IceH_ave_S              =   5.7523307928398E+00
(PID.TID 0000.0001) %MON thSI_IceH_ave_N              =   3.5393841679080E+00
(PID.TID 0000.0001) %MON thSI_IceH_max_S              =   1.0000000000000E+01
(PID.TID 0000.0001) %MON thSI_IceH_max_N              =   1.0000000000000E+01
(PID.TID 0000.0001) %MON thSI_SnwH_ave_G              =   1.0423601297352E+00
(PID.TID 0000.0001) %MON thSI_SnwH_ave_S              =   1.7839594603512E+00
(PID.TID 0000.0001) %MON thSI_SnwH_ave_N              =   3.5882655553062E-01
(PID.TID 0000.0001) %MON thSI_SnwH_max_S              =   4.0938705629092E+00
(PID.TID 0000.0001) %MON thSI_SnwH_max_N              =   4.1023511431051E+00
(PID.TID 0000.0001) %MON thSI_TotEnerg_G              =  -3.8141020530825E+22
(PID.TID 0000.0001) %MON thSI_Tsrf_ave_G              =  -1.7069577282684E+01
(PID.TID 0000.0001) %MON thSI_Tsrf_ave_S              =  -1.1190574827407E-01
(PID.TID 0000.0001) %MON thSI_Tsrf_ave_N              =  -3.2699496776376E+01
(PID.TID 0000.0001) %MON thSI_Tsrf_min_S              =  -5.3696273358938E+00
(PID.TID 0000.0001) %MON thSI_Tsrf_min_N              =  -4.6698372978970E+01
(PID.TID 0000.0001) %MON thSI_Tsrf_max_S              =   0.0000000000000E+00
(PID.TID 0000.0001) %MON thSI_Tsrf_max_N              =  -1.6927842561203E+00
(PID.TID 0000.0001) %MON thSI_Tic1_ave_G              =  -8.4375112925496E+00
(PID.TID 0000.0001) %MON thSI_Tic1_ave_S              =  -5.0690246077042E+00
(PID.TID 0000.0001) %MON thSI_Tic1_ave_N              =  -1.3483444597407E+01
(PID.TID 0000.0001) %MON thSI_Tic1_min_S              =  -1.5909889435824E+01
(PID.TID 0000.0001) %MON thSI_Tic1_min_N              =  -2.0951035828916E+01
(PID.TID 0000.0001) %MON thSI_Tic1_max_S              =  -1.8496904885648E-01
(PID.TID 0000.0001) %MON thSI_Tic1_max_N              =  -6.8876929448444E-01
(PID.TID 0000.0001) %MON thSI_Tic2_ave_G              =  -3.8107421888155E+00
(PID.TID 0000.0001) %MON thSI_Tic2_ave_S              =  -3.0895482422262E+00
(PID.TID 0000.0001) %MON thSI_Tic2_ave_N              =  -4.8910779285197E+00
(PID.TID 0000.0001) %MON thSI_Tic2_min_S              =  -8.6709855967069E+00
(PID.TID 0000.0001) %MON thSI_Tic2_min_N              =  -7.5697098479490E+00
(PID.TID 0000.0001) %MON thSI_Tic2_max_S              =  -1.2560020765230E+00
(PID.TID 0000.0001) %MON thSI_Tic2_max_N              =  -1.2474917084872E+00
(PID.TID 0000.0001) // =======================================================
(PID.TID 0000.0001) // End MONITOR Therm.SeaIce statistics
(PID.TID 0000.0001) // =======================================================
 cg2d: Sum(rhs),rhsMax =   3.91596626711682E+02  2.29489647417022E+02
(PID.TID 0000.0001)                    cg2d_init_res =    2.99246740375072E+00
(PID.TID 0000.0001)                       cg2d_iters =    69
(PID.TID 0000.0001)                         cg2d_res =    5.61580450685546E-07
(PID.TID 0000.0001) // =======================================================
(PID.TID 0000.0001) // Begin MONITOR dynamic field statistics
(PID.TID 0000.0001) // =======================================================
(PID.TID 0000.0001) %MON time_tsnumber                =                 36006
(PID.TID 0000.0001) %MON time_secondsf                =   3.1109184000000E+09
(PID.TID 0000.0001) %MON dynstat_eta_max              =   7.2720420347073E-01
(PID.TID 0000.0001) %MON dynstat_eta_min              =  -1.1976350232816E+01
(PID.TID 0000.0001) %MON dynstat_eta_mean             =  -5.8243851368441E-01
(PID.TID 0000.0001) %MON dynstat_eta_sd               =   1.7018544970405E+00
(PID.TID 0000.0001) %MON dynstat_eta_del2             =   9.8184847607546E-02
(PID.TID 0000.0001) %MON dynstat_uvel_max             =   1.7442740813047E-01
(PID.TID 0000.0001) %MON dynstat_uvel_min             =  -2.6939075142981E-01
(PID.TID 0000.0001) %MON dynstat_uvel_mean            =  -5.2623165198923E-04
(PID.TID 0000.0001) %MON dynstat_uvel_sd              =   1.2986368501338E-02
(PID.TID 0000.0001) %MON dynstat_uvel_del2            =   1.7914541025168E-03
(PID.TID 0000.0001) %MON dynstat_vvel_max             =   1.9506263525766E-01
(PID.TID 0000.0001) %MON dynstat_vvel_min             =  -2.1109236011870E-01
(PID.TID 0000.0001) %MON dynstat_vvel_mean            =  -4.2324618095824E-04
(PID.TID 0000.0001) %MON dynstat_vvel_sd              =   1.3484894664421E-02
(PID.TID 0000.0001) %MON dynstat_vvel_del2            =   1.8254816148849E-03
(PID.TID 0000.0001) %MON dynstat_wvel_max             =   8.5274162423067E-05
(PID.TID 0000.0001) %MON dynstat_wvel_min             =  -1.7822897835298E-04
(PID.TID 0000.0001) %MON dynstat_wvel_mean            =  -9.9846470113856E-10
(PID.TID 0000.0001) %MON dynstat_wvel_sd              =   4.6270212247866E-06
(PID.TID 0000.0001) %MON dynstat_wvel_del2            =   1.1362108070454E-06
(PID.TID 0000.0001) %MON dynstat_theta_max            =   3.0058438717228E+01
(PID.TID 0000.0001) %MON dynstat_theta_min            =  -3.3414269013940E+00
(PID.TID 0000.0001) %MON dynstat_theta_mean           =   3.5031253285584E+00
(PID.TID 0000.0001) %MON dynstat_theta_sd             =   4.7493233963113E+00
(PID.TID 0000.0001) %MON dynstat_theta_del2           =   9.5275734314919E-02
(PID.TID 0000.0001) %MON dynstat_salt_max             =   4.0829246819687E+01
(PID.TID 0000.0001) %MON dynstat_salt_min             =   1.8033759810355E+01
(PID.TID 0000.0001) %MON dynstat_salt_mean            =   3.4756113660024E+01
(PID.TID 0000.0001) %MON dynstat_salt_sd              =   5.1183754944671E-01
(PID.TID 0000.0001) %MON dynstat_salt_del2            =   2.0047108985941E-02
(PID.TID 0000.0001) %MON extforcing_qnet_max          =   7.8716421524254E+02
(PID.TID 0000.0001) %MON extforcing_qnet_min          =  -6.0484446005472E+02
(PID.TID 0000.0001) %MON extforcing_qnet_mean         =  -4.9314938226272E+00
(PID.TID 0000.0001) %MON extforcing_qnet_sd           =   1.2090834156548E+02
(PID.TID 0000.0001) %MON extforcing_qnet_del2         =   1.2644046164416E+01
(PID.TID 0000.0001) %MON extforcing_qsw_max           =   0.0000000000000E+00
(PID.TID 0000.0001) %MON extforcing_qsw_min           =  -2.5143133125758E+01
(PID.TID 0000.0001) %MON extforcing_qsw_mean          =  -2.8051889366161E-02
(PID.TID 0000.0001) %MON extforcing_qsw_sd            =   6.9078054314679E-01
(PID.TID 0000.0001) %MON extforcing_qsw_del2          =   4.1959806250250E-02
(PID.TID 0000.0001) %MON extforcing_empmr_max         =   1.7899607622639E-06
(PID.TID 0000.0001) %MON extforcing_empmr_min         =  -3.6504174103626E-07
(PID.TID 0000.0001) %MON extforcing_empmr_mean        =   1.2882878750408E-09
(PID.TID 0000.0001) %MON extforcing_empmr_sd          =   6.5003219366797E-08
(PID.TID 0000.0001) %MON extforcing_empmr_del2        =   9.7264048715716E-09
(PID.TID 0000.0001) %MON extforcing_fu_max            =   2.4736588936290E-01
(PID.TID 0000.0001) %MON extforcing_fu_min            =  -1.9688751208399E-01
(PID.TID 0000.0001) %MON extforcing_fu_mean           =  -1.4823480113169E-03
(PID.TID 0000.0001) %MON extforcing_fu_sd             =   6.1365172761126E-02
(PID.TID 0000.0001) %MON extforcing_fu_del2           =   3.3732971611955E-03
(PID.TID 0000.0001) %MON extforcing_fv_max            =   2.6622718829904E-01
(PID.TID 0000.0001) %MON extforcing_fv_min            =  -3.3085944368965E-01
(PID.TID 0000.0001) %MON extforcing_fv_mean           =  -5.0674283417318E-03
(PID.TID 0000.0001) %MON extforcing_fv_sd             =   6.8106312777934E-02
(PID.TID 0000.0001) %MON extforcing_fv_del2           =   3.3244437858630E-03
(PID.TID 0000.0001) %MON advcfl_uvel_max              =   7.6404327094209E-02
(PID.TID 0000.0001) %MON advcfl_vvel_max              =   8.5025054624626E-02
(PID.TID 0000.0001) %MON advcfl_wvel_max              =   5.8109372564897E-02
(PID.TID 0000.0001) %MON advcfl_W_hf_max              =   1.2741523141977E-01
(PID.TID 0000.0001) %MON pe_b_mean                    =  -1.9323390221311E-03
(PID.TID 0000.0001) %MON ke_max                       =   3.6257397723971E-02
(PID.TID 0000.0001) %MON ke_mean                      =   1.6205153426516E-04
(PID.TID 0000.0001) %MON ke_vol                       =   1.3395905428461E+18
(PID.TID 0000.0001) %MON vort_r_min                   =  -1.2335179930390E-06
(PID.TID 0000.0001) %MON vort_r_max                   =   1.3830280759828E-06
(PID.TID 0000.0001) %MON vort_a_mean                  =  -2.0493733748264E-05
(PID.TID 0000.0001) %MON vort_a_sd                    =   7.5054013472726E-05
(PID.TID 0000.0001) %MON vort_p_mean                  =  -2.4719492252894E-05
(PID.TID 0000.0001) %MON vort_p_sd                    =   1.2782289785018E-04
(PID.TID 0000.0001) %MON surfExpan_theta_mean         =   8.2299859682051E-08
(PID.TID 0000.0001) %MON surfExpan_salt_mean          =   1.8260674224245E-08
(PID.TID 0000.0001) // =======================================================
(PID.TID 0000.0001) // End MONITOR dynamic field statistics
(PID.TID 0000.0001) // =======================================================
(PID.TID 0000.0001) // =======================================================
(PID.TID 0000.0001) // Begin MONITOR Therm.SeaIce statistics
(PID.TID 0000.0001) // =======================================================
(PID.TID 0000.0001) %MON thSI_time_sec                =   3.1109184000000E+09
(PID.TID 0000.0001) %MON thSI_Ice_Area_G              =   2.4710532190073E+13
(PID.TID 0000.0001) %MON thSI_Ice_Area_S              =   1.1797752680545E+13
(PID.TID 0000.0001) %MON thSI_Ice_Area_N              =   1.2912779509528E+13
(PID.TID 0000.0001) %MON thSI_IceH_ave_G              =   4.6034263640868E+00
(PID.TID 0000.0001) %MON thSI_IceH_ave_S              =   5.7724063137366E+00
(PID.TID 0000.0001) %MON thSI_IceH_ave_N              =   3.5353885861391E+00
(PID.TID 0000.0001) %MON thSI_IceH_max_S              =   1.0000000000000E+01
(PID.TID 0000.0001) %MON thSI_IceH_max_N              =   1.0000000000000E+01
(PID.TID 0000.0001) %MON thSI_SnwH_ave_G              =   1.0383905046515E+00
(PID.TID 0000.0001) %MON thSI_SnwH_ave_S              =   1.7806403024108E+00
(PID.TID 0000.0001) %MON thSI_SnwH_ave_N              =   3.6023445508154E-01
(PID.TID 0000.0001) %MON thSI_SnwH_max_S              =   4.0937737654064E+00
(PID.TID 0000.0001) %MON thSI_SnwH_max_N              =   4.1025603144701E+00
(PID.TID 0000.0001) %MON thSI_TotEnerg_G              =  -3.8149068152175E+22
(PID.TID 0000.0001) %MON thSI_Tsrf_ave_G              =  -1.7182147640450E+01
(PID.TID 0000.0001) %MON thSI_Tsrf_ave_S              =  -1.3331170495577E-01
(PID.TID 0000.0001) %MON thSI_Tsrf_ave_N              =  -3.2758805610156E+01
(PID.TID 0000.0001) %MON thSI_Tsrf_min_S              =  -5.3858531484688E+00
(PID.TID 0000.0001) %MON thSI_Tsrf_min_N              =  -4.6813004124905E+01
(PID.TID 0000.0001) %MON thSI_Tsrf_max_S              =   0.0000000000000E+00
(PID.TID 0000.0001) %MON thSI_Tsrf_max_N              =  -7.3605084672950E+00
(PID.TID 0000.0001) %MON thSI_Tic1_ave_G              =  -8.4587593093342E+00
(PID.TID 0000.0001) %MON thSI_Tic1_ave_S              =  -5.0431232590087E+00
(PID.TID 0000.0001) %MON thSI_Tic1_ave_N              =  -1.3554072439906E+01
(PID.TID 0000.0001) %MON thSI_Tic1_min_S              =  -1.5764667959610E+01
(PID.TID 0000.0001) %MON thSI_Tic1_min_N              =  -2.1020816674713E+01
(PID.TID 0000.0001) %MON thSI_Tic1_max_S              =  -1.8071149956057E-01
(PID.TID 0000.0001) %MON thSI_Tic1_max_N              =  -7.0529123820087E-01
(PID.TID 0000.0001) %MON thSI_Tic2_ave_G              =  -3.8221459395451E+00
(PID.TID 0000.0001) %MON thSI_Tic2_ave_S              =  -3.0858061571484E+00
(PID.TID 0000.0001) %MON thSI_Tic2_ave_N              =  -4.9205890132592E+00
(PID.TID 0000.0001) %MON thSI_Tic2_min_S              =  -8.6430484724815E+00
(PID.TID 0000.0001) %MON thSI_Tic2_min_N              =  -7.6042063889372E+00
(PID.TID 0000.0001) %MON thSI_Tic2_max_S              =  -1.2541767754276E+00
(PID.TID 0000.0001) %MON thSI_Tic2_max_N              =  -1.2644395349154E+00
(PID.TID 0000.0001) // =======================================================
(PID.TID 0000.0001) // End MONITOR Therm.SeaIce statistics
(PID.TID 0000.0001) // =======================================================
 cg2d: Sum(rhs),rhsMax =   3.91652434954653E+02  2.29570290932671E+02
(PID.TID 0000.0001)                    cg2d_init_res =    2.83183708119200E+00
(PID.TID 0000.0001)                       cg2d_iters =    69
(PID.TID 0000.0001)                         cg2d_res =    5.59781664577851E-07
(PID.TID 0000.0001) // =======================================================
(PID.TID 0000.0001) // Begin MONITOR dynamic field statistics
(PID.TID 0000.0001) // =======================================================
(PID.TID 0000.0001) %MON time_tsnumber                =                 36007
(PID.TID 0000.0001) %MON time_secondsf                =   3.1110048000000E+09
(PID.TID 0000.0001) %MON dynstat_eta_max              =   7.2593729490842E-01
(PID.TID 0000.0001) %MON dynstat_eta_min              =  -1.1974308190404E+01
(PID.TID 0000.0001) %MON dynstat_eta_mean             =  -5.8252151968566E-01
(PID.TID 0000.0001) %MON dynstat_eta_sd               =   1.7014052150881E+00
(PID.TID 0000.0001) %MON dynstat_eta_del2             =   9.8246316098575E-02
(PID.TID 0000.0001) %MON dynstat_uvel_max             =   1.7456040077021E-01
(PID.TID 0000.0001) %MON dynstat_uvel_min             =  -2.6900599863561E-01
(PID.TID 0000.0001) %MON dynstat_uvel_mean            =  -5.2579674704028E-04
(PID.TID 0000.0001) %MON dynstat_uvel_sd              =   1.2985490433871E-02
(PID.TID 0000.0001) %MON dynstat_uvel_del2            =   1.7911303135510E-03
(PID.TID 0000.0001) %MON dynstat_vvel_max             =   1.9518451049886E-01
(PID.TID 0000.0001) %MON dynstat_vvel_min             =  -2.1116637316291E-01
(PID.TID 0000.0001) %MON dynstat_vvel_mean            =  -4.2261819106349E-04
(PID.TID 0000.0001) %MON dynstat_vvel_sd              =   1.3486484412912E-02
(PID.TID 0000.0001) %MON dynstat_vvel_del2            =   1.8244083437274E-03
(PID.TID 0000.0001) %MON dynstat_wvel_max             =   8.6021161397884E-05
(PID.TID 0000.0001) %MON dynstat_wvel_min             =  -1.7828871227252E-04
(PID.TID 0000.0001) %MON dynstat_wvel_mean            =  -1.0345811946820E-09
(PID.TID 0000.0001) %MON dynstat_wvel_sd              =   4.6268651948111E-06
(PID.TID 0000.0001) %MON dynstat_wvel_del2            =   1.1359506743106E-06
(PID.TID 0000.0001) %MON dynstat_theta_max            =   3.0039510152768E+01
(PID.TID 0000.0001) %MON dynstat_theta_min            =  -3.3492959839668E+00
(PID.TID 0000.0001) %MON dynstat_theta_mean           =   3.5031835463254E+00
(PID.TID 0000.0001) %MON dynstat_theta_sd             =   4.7494046323982E+00
(PID.TID 0000.0001) %MON dynstat_theta_del2           =   9.5306084953570E-02
(PID.TID 0000.0001) %MON dynstat_salt_max             =   4.0831046564909E+01
(PID.TID 0000.0001) %MON dynstat_salt_min             =   1.8034320779956E+01
(PID.TID 0000.0001) %MON dynstat_salt_mean            =   3.4756115222102E+01
(PID.TID 0000.0001) %MON dynstat_salt_sd              =   5.1182878725911E-01
(PID.TID 0000.0001) %MON dynstat_salt_del2            =   2.0047783903983E-02
(PID.TID 0000.0001) %MON extforcing_qnet_max          =   7.9044495483212E+02
(PID.TID 0000.0001) %MON extforcing_qnet_min          =  -3.6656434444709E+02
(PID.TID 0000.0001) %MON extforcing_qnet_mean         =  -4.8544357444883E+00
(PID.TID 0000.0001) %MON extforcing_qnet_sd           =   1.2042269328870E+02
(PID.TID 0000.0001) %MON extforcing_qnet_del2         =   1.2526960661279E+01
(PID.TID 0000.0001) %MON extforcing_qsw_max           =   0.0000000000000E+00
(PID.TID 0000.0001) %MON extforcing_qsw_min           =  -2.6120008132068E+01
(PID.TID 0000.0001) %MON extforcing_qsw_mean          =  -2.8937788551612E-02
(PID.TID 0000.0001) %MON extforcing_qsw_sd            =   7.1985147331262E-01
(PID.TID 0000.0001) %MON extforcing_qsw_del2          =   4.3104424494313E-02
(PID.TID 0000.0001) %MON extforcing_empmr_max         =   1.0846322447032E-06
(PID.TID 0000.0001) %MON extforcing_empmr_min         =  -3.5200918621971E-07
(PID.TID 0000.0001) %MON extforcing_empmr_mean        =   9.9434272334449E-10
(PID.TID 0000.0001) %MON extforcing_empmr_sd          =   5.8038448710968E-08
(PID.TID 0000.0001) %MON extforcing_empmr_del2        =   9.1450560702392E-09
(PID.TID 0000.0001) %MON extforcing_fu_max            =   2.4731784009269E-01
(PID.TID 0000.0001) %MON extforcing_fu_min            =  -1.9855636047431E-01
(PID.TID 0000.0001) %MON extforcing_fu_mean           =  -1.4845563159346E-03
(PID.TID 0000.0001) %MON extforcing_fu_sd             =   6.1397818343032E-02
(PID.TID 0000.0001) %MON extforcing_fu_del2           =   3.3852475017162E-03
(PID.TID 0000.0001) %MON extforcing_fv_max            =   2.6891042987167E-01
(PID.TID 0000.0001) %MON extforcing_fv_min            =  -3.3164734762358E-01
(PID.TID 0000.0001) %MON extforcing_fv_mean           =  -5.1285812025761E-03
(PID.TID 0000.0001) %MON extforcing_fv_sd             =   6.8308860147661E-02
(PID.TID 0000.0001) %MON extforcing_fv_del2           =   3.3339640091174E-03
(PID.TID 0000.0001) %MON advcfl_uvel_max              =   7.6295203903517E-02
(PID.TID 0000.0001) %MON advcfl_vvel_max              =   8.5078178325261E-02
(PID.TID 0000.0001) %MON advcfl_wvel_max              =   5.8128848076778E-02
(PID.TID 0000.0001) %MON advcfl_W_hf_max              =   1.2645066419661E-01
(PID.TID 0000.0001) %MON pe_b_mean                    =  -1.9318062630418E-03
(PID.TID 0000.0001) %MON ke_max                       =   3.6137919773858E-02
(PID.TID 0000.0001) %MON ke_mean                      =   1.6206050507726E-04
(PID.TID 0000.0001) %MON ke_vol                       =   1.3395905037122E+18
(PID.TID 0000.0001) %MON vort_r_min                   =  -1.2382113020587E-06
(PID.TID 0000.0001) %MON vort_r_max                   =   1.3865173629385E-06
(PID.TID 0000.0001) %MON vort_a_mean                  =  -2.0493733748264E-05
(PID.TID 0000.0001) %MON vort_a_sd                    =   7.5054013391776E-05
(PID.TID 0000.0001) %MON vort_p_mean                  =  -2.4719492439679E-05
(PID.TID 0000.0001) %MON vort_p_sd                    =   1.2782290968184E-04
(PID.TID 0000.0001) %MON surfExpan_theta_mean         =   8.3877067595479E-08
(PID.TID 0000.0001) %MON surfExpan_salt_mean          =   1.8677698157788E-08
(PID.TID 0000.0001) // =======================================================
(PID.TID 0000.0001) // End MONITOR dynamic field statistics
(PID.TID 0000.0001) // =======================================================
(PID.TID 0000.0001) // =======================================================
(PID.TID 0000.0001) // Begin MONITOR Therm.SeaIce statistics
(PID.TID 0000.0001) // =======================================================
(PID.TID 0000.0001) %MON thSI_time_sec                =   3.1110048000000E+09
(PID.TID 0000.0001) %MON thSI_Ice_Area_G              =   2.4727724780027E+13
(PID.TID 0000.0001) %MON thSI_Ice_Area_S              =   1.1752640091468E+13
(PID.TID 0000.0001) %MON thSI_Ice_Area_N              =   1.2975084688558E+13
(PID.TID 0000.0001) %MON thSI_IceH_ave_G              =   4.6018263672341E+00
(PID.TID 0000.0001) %MON thSI_IceH_ave_S              =   5.7875416082046E+00
(PID.TID 0000.0001) %MON thSI_IceH_ave_N              =   3.5278230129143E+00
(PID.TID 0000.0001) %MON thSI_IceH_max_S              =   1.0000000000000E+01
(PID.TID 0000.0001) %MON thSI_IceH_max_N              =   1.0000000000000E+01
(PID.TID 0000.0001) %MON thSI_SnwH_ave_G              =   1.0337564121162E+00
(PID.TID 0000.0001) %MON thSI_SnwH_ave_S              =   1.7760631597424E+00
(PID.TID 0000.0001) %MON thSI_SnwH_ave_N              =   3.6138592269565E-01
(PID.TID 0000.0001) %MON thSI_SnwH_max_S              =   4.0936799947515E+00
(PID.TID 0000.0001) %MON thSI_SnwH_max_N              =   4.1027882656710E+00
(PID.TID 0000.0001) %MON thSI_TotEnerg_G              =  -3.8153981779285E+22
(PID.TID 0000.0001) %MON thSI_Tsrf_ave_G              =  -1.7240728956570E+01
(PID.TID 0000.0001) %MON thSI_Tsrf_ave_S              =  -1.1539934931814E-01
(PID.TID 0000.0001) %MON thSI_Tsrf_ave_N              =  -3.2752599603495E+01
(PID.TID 0000.0001) %MON thSI_Tsrf_min_S              =  -5.4020394714923E+00
(PID.TID 0000.0001) %MON thSI_Tsrf_min_N              =  -4.6927733477717E+01
(PID.TID 0000.0001) %MON thSI_Tsrf_max_S              =   0.0000000000000E+00
(PID.TID 0000.0001) %MON thSI_Tsrf_max_N              =  -1.8883331736296E+00
(PID.TID 0000.0001) %MON thSI_Tic1_ave_G              =  -8.4824096166122E+00
(PID.TID 0000.0001) %MON thSI_Tic1_ave_S              =  -5.0226388509182E+00
(PID.TID 0000.0001) %MON thSI_Tic1_ave_N              =  -1.3623555146204E+01
(PID.TID 0000.0001) %MON thSI_Tic1_min_S              =  -1.5621093434804E+01
(PID.TID 0000.0001) %MON thSI_Tic1_min_N              =  -2.1088252564317E+01
(PID.TID 0000.0001) %MON thSI_Tic1_max_S              =  -2.0676365811743E-01
(PID.TID 0000.0001) %MON thSI_Tic1_max_N              =  -7.2252586074792E-01
(PID.TID 0000.0001) %MON thSI_Tic2_ave_G              =  -3.8332028560823E+00
(PID.TID 0000.0001) %MON thSI_Tic2_ave_S              =  -3.0820232959685E+00
(PID.TID 0000.0001) %MON thSI_Tic2_ave_N              =  -4.9494396529514E+00
(PID.TID 0000.0001) %MON thSI_Tic2_min_S              =  -8.6149135964474E+00
(PID.TID 0000.0001) %MON thSI_Tic2_min_N              =  -7.6376224835895E+00
(PID.TID 0000.0001) %MON thSI_Tic2_max_S              =  -1.2516768503554E+00
(PID.TID 0000.0001) %MON thSI_Tic2_max_N              =  -1.2809188738875E+00
(PID.TID 0000.0001) // =======================================================
(PID.TID 0000.0001) // End MONITOR Therm.SeaIce statistics
(PID.TID 0000.0001) // =======================================================
 cg2d: Sum(rhs),rhsMax =   3.91700687922934E+02  2.29658702679870E+02
(PID.TID 0000.0001)                    cg2d_init_res =    2.72172704114856E+00
(PID.TID 0000.0001)                       cg2d_iters =    69
(PID.TID 0000.0001)                         cg2d_res =    5.62297419259561E-07
(PID.TID 0000.0001) // =======================================================
(PID.TID 0000.0001) // Begin MONITOR dynamic field statistics
(PID.TID 0000.0001) // =======================================================
(PID.TID 0000.0001) %MON time_tsnumber                =                 36008
(PID.TID 0000.0001) %MON time_secondsf                =   3.1110912000000E+09
(PID.TID 0000.0001) %MON dynstat_eta_max              =   7.2464774142038E-01
(PID.TID 0000.0001) %MON dynstat_eta_min              =  -1.1972169986084E+01
(PID.TID 0000.0001) %MON dynstat_eta_mean             =  -5.8259328840176E-01
(PID.TID 0000.0001) %MON dynstat_eta_sd               =   1.7009399296209E+00
(PID.TID 0000.0001) %MON dynstat_eta_del2             =   9.8302118240401E-02
(PID.TID 0000.0001) %MON dynstat_uvel_max             =   1.7463009635844E-01
(PID.TID 0000.0001) %MON dynstat_uvel_min             =  -2.6860905661570E-01
(PID.TID 0000.0001) %MON dynstat_uvel_mean            =  -5.2536918416629E-04
(PID.TID 0000.0001) %MON dynstat_uvel_sd              =   1.2984645443460E-02
(PID.TID 0000.0001) %MON dynstat_uvel_del2            =   1.7906915732629E-03
(PID.TID 0000.0001) %MON dynstat_vvel_max             =   1.9524525273099E-01
(PID.TID 0000.0001) %MON dynstat_vvel_min             =  -2.1123377453908E-01
(PID.TID 0000.0001) %MON dynstat_vvel_mean            =  -4.2194395052967E-04
(PID.TID 0000.0001) %MON dynstat_vvel_sd              =   1.3487799264241E-02
(PID.TID 0000.0001) %MON dynstat_vvel_del2            =   1.8233069266183E-03
(PID.TID 0000.0001) %MON dynstat_wvel_max             =   8.6780135845488E-05
(PID.TID 0000.0001) %MON dynstat_wvel_min             =  -1.7829853087122E-04
(PID.TID 0000.0001) %MON dynstat_wvel_mean            =  -1.0199327499042E-09
(PID.TID 0000.0001) %MON dynstat_wvel_sd              =   4.6266547196960E-06
(PID.TID 0000.0001) %MON dynstat_wvel_del2            =   1.1357530208870E-06
(PID.TID 0000.0001) %MON dynstat_theta_max            =   3.0020345121589E+01
(PID.TID 0000.0001) %MON dynstat_theta_min            =  -3.3675971732144E+00
(PID.TID 0000.0001) %MON dynstat_theta_mean           =   3.5032415621424E+00
(PID.TID 0000.0001) %MON dynstat_theta_sd             =   4.7494901884766E+00
(PID.TID 0000.0001) %MON dynstat_theta_del2           =   9.5341746224290E-02
(PID.TID 0000.0001) %MON dynstat_salt_max             =   4.0832707968542E+01
(PID.TID 0000.0001) %MON dynstat_salt_min             =   1.8034878718389E+01
(PID.TID 0000.0001) %MON dynstat_salt_mean            =   3.4756116705844E+01
(PID.TID 0000.0001) %MON dynstat_salt_sd              =   5.1182006723327E-01
(PID.TID 0000.0001) %MON dynstat_salt_del2            =   2.0043100749342E-02
(PID.TID 0000.0001) %MON extforcing_qnet_max          =   7.9369311918624E+02
(PID.TID 0000.0001) %MON extforcing_qnet_min          =  -2.3630885391156E+02
(PID.TID 0000.0001) %MON extforcing_qnet_mean         =  -4.8166854088991E+00
(PID.TID 0000.0001) %MON extforcing_qnet_sd           =   1.2026597021892E+02
(PID.TID 0000.0001) %MON extforcing_qnet_del2         =   1.2527876757488E+01
(PID.TID 0000.0001) %MON extforcing_qsw_max           =   0.0000000000000E+00
(PID.TID 0000.0001) %MON extforcing_qsw_min           =  -2.6120008132068E+01
(PID.TID 0000.0001) %MON extforcing_qsw_mean          =  -3.3085142053851E-02
(PID.TID 0000.0001) %MON extforcing_qsw_sd            =   7.4988584166491E-01
(PID.TID 0000.0001) %MON extforcing_qsw_del2          =   4.6440492685071E-02
(PID.TID 0000.0001) %MON extforcing_empmr_max         =   7.7327951870351E-07
(PID.TID 0000.0001) %MON extforcing_empmr_min         =  -3.3780263913360E-07
(PID.TID 0000.0001) %MON extforcing_empmr_mean        =   8.5972941154814E-10
(PID.TID 0000.0001) %MON extforcing_empmr_sd          =   5.5457382818556E-08
(PID.TID 0000.0001) %MON extforcing_empmr_del2        =   8.8383420024859E-09
(PID.TID 0000.0001) %MON extforcing_fu_max            =   2.4726979082249E-01
(PID.TID 0000.0001) %MON extforcing_fu_min            =  -2.0022520886463E-01
(PID.TID 0000.0001) %MON extforcing_fu_mean           =  -1.4867646100847E-03
(PID.TID 0000.0001) %MON extforcing_fu_sd             =   6.1443022482861E-02
(PID.TID 0000.0001) %MON extforcing_fu_del2           =   3.3994041068143E-03
(PID.TID 0000.0001) %MON extforcing_fv_max            =   2.7159367144430E-01
(PID.TID 0000.0001) %MON extforcing_fv_min            =  -3.3243525155752E-01
(PID.TID 0000.0001) %MON extforcing_fv_mean           =  -5.1897341402629E-03
(PID.TID 0000.0001) %MON extforcing_fv_sd             =   6.8519348799820E-02
(PID.TID 0000.0001) %MON extforcing_fv_del2           =   3.3461490794461E-03
(PID.TID 0000.0001) %MON advcfl_uvel_max              =   7.6182623617201E-02
(PID.TID 0000.0001) %MON advcfl_vvel_max              =   8.5104655008498E-02
(PID.TID 0000.0001) %MON advcfl_wvel_max              =   5.8132049310466E-02
(PID.TID 0000.0001) %MON advcfl_W_hf_max              =   1.2542241611020E-01
(PID.TID 0000.0001) %MON pe_b_mean                    =  -1.9311098840282E-03
(PID.TID 0000.0001) %MON ke_max                       =   3.6015878605824E-02
(PID.TID 0000.0001) %MON ke_mean                      =   1.6206642095489E-04
(PID.TID 0000.0001) %MON ke_vol                       =   1.3395904735074E+18
(PID.TID 0000.0001) %MON vort_r_min                   =  -1.2430673627557E-06
(PID.TID 0000.0001) %MON vort_r_max                   =   1.3900644655174E-06
(PID.TID 0000.0001) %MON vort_a_mean                  =  -2.0493733748264E-05
(PID.TID 0000.0001) %MON vort_a_sd                    =   7.5054013315967E-05
(PID.TID 0000.0001) %MON vort_p_mean                  =  -2.4719492462155E-05
(PID.TID 0000.0001) %MON vort_p_sd                    =   1.2782291948766E-04
(PID.TID 0000.0001) %MON surfExpan_theta_mean         =   8.4975677704995E-08
(PID.TID 0000.0001) %MON surfExpan_salt_mean          =   1.8891902248575E-08
(PID.TID 0000.0001) // =======================================================
(PID.TID 0000.0001) // End MONITOR dynamic field statistics
(PID.TID 0000.0001) // =======================================================
(PID.TID 0000.0001) // =======================================================
(PID.TID 0000.0001) // Begin MONITOR Therm.SeaIce statistics
(PID.TID 0000.0001) // =======================================================
(PID.TID 0000.0001) %MON thSI_time_sec                =   3.1110912000000E+09
(PID.TID 0000.0001) %MON thSI_Ice_Area_G              =   2.4731278125374E+13
(PID.TID 0000.0001) %MON thSI_Ice_Area_S              =   1.1717971971512E+13
(PID.TID 0000.0001) %MON thSI_Ice_Area_N              =   1.3013306153862E+13
(PID.TID 0000.0001) %MON thSI_IceH_ave_G              =   4.6024562643202E+00
(PID.TID 0000.0001) %MON thSI_IceH_ave_S              =   5.7977432327725E+00
(PID.TID 0000.0001) %MON thSI_IceH_ave_N              =   3.5261472135198E+00
(PID.TID 0000.0001) %MON thSI_IceH_max_S              =   1.0000000000000E+01
(PID.TID 0000.0001) %MON thSI_IceH_max_N              =   1.0000000000000E+01
(PID.TID 0000.0001) %MON thSI_SnwH_ave_G              =   1.0300069642783E+00
(PID.TID 0000.0001) %MON thSI_SnwH_ave_S              =   1.7705097449272E+00
(PID.TID 0000.0001) %MON thSI_SnwH_ave_N              =   3.6321324361457E-01
(PID.TID 0000.0001) %MON thSI_SnwH_max_S              =   4.0935932194586E+00
(PID.TID 0000.0001) %MON thSI_SnwH_max_N              =   4.1030349870810E+00
(PID.TID 0000.0001) %MON thSI_TotEnerg_G              =  -3.8156750892270E+22
(PID.TID 0000.0001) %MON thSI_Tsrf_ave_G              =  -1.7333358213087E+01
(PID.TID 0000.0001) %MON thSI_Tsrf_ave_S              =  -1.3714592829366E-01
(PID.TID 0000.0001) %MON thSI_Tsrf_ave_N              =  -3.2817873153942E+01
(PID.TID 0000.0001) %MON thSI_Tsrf_min_S              =  -5.4181865574787E+00
(PID.TID 0000.0001) %MON thSI_Tsrf_min_N              =  -4.7042521193662E+01
(PID.TID 0000.0001) %MON thSI_Tsrf_max_S              =   0.0000000000000E+00
(PID.TID 0000.0001) %MON thSI_Tsrf_max_N              =  -8.1883364341943E+00
(PID.TID 0000.0001) %MON thSI_Tic1_ave_G              =  -8.5029823856944E+00
(PID.TID 0000.0001) %MON thSI_Tic1_ave_S              =  -4.9968390269478E+00
(PID.TID 0000.0001) %MON thSI_Tic1_ave_N              =  -1.3694006126026E+01
(PID.TID 0000.0001) %MON thSI_Tic1_min_S              =  -1.5479148715329E+01
(PID.TID 0000.0001) %MON thSI_Tic1_min_N              =  -2.1153430232646E+01
(PID.TID 0000.0001) %MON thSI_Tic1_max_S              =  -1.9873469916312E-01
(PID.TID 0000.0001) %MON thSI_Tic1_max_N              =  -7.4051119333138E-01
(PID.TID 0000.0001) %MON thSI_Tic2_ave_G              =  -3.8442458926508E+00
(PID.TID 0000.0001) %MON thSI_Tic2_ave_S              =  -3.0781700692445E+00
(PID.TID 0000.0001) %MON thSI_Tic2_ave_N              =  -4.9784601501130E+00
(PID.TID 0000.0001) %MON thSI_Tic2_min_S              =  -8.5854002413684E+00
(PID.TID 0000.0001) %MON thSI_Tic2_min_N              =  -7.6699900995238E+00
(PID.TID 0000.0001) %MON thSI_Tic2_max_S              =  -1.1980447617406E+00
(PID.TID 0000.0001) %MON thSI_Tic2_max_N              =  -1.2969209147947E+00
(PID.TID 0000.0001) // =======================================================
(PID.TID 0000.0001) // End MONITOR Therm.SeaIce statistics
(PID.TID 0000.0001) // =======================================================
 cg2d: Sum(rhs),rhsMax =   3.91740465004613E+02  2.29753478865130E+02
(PID.TID 0000.0001)                    cg2d_init_res =    2.71536666815917E+00
(PID.TID 0000.0001)                       cg2d_iters =    69
(PID.TID 0000.0001)                         cg2d_res =    5.76003080544568E-07
(PID.TID 0000.0001) // =======================================================
(PID.TID 0000.0001) // Begin MONITOR dynamic field statistics
(PID.TID 0000.0001) // =======================================================
(PID.TID 0000.0001) %MON time_tsnumber                =                 36009
(PID.TID 0000.0001) %MON time_secondsf                =   3.1111776000000E+09
(PID.TID 0000.0001) %MON dynstat_eta_max              =   7.2332050623346E-01
(PID.TID 0000.0001) %MON dynstat_eta_min              =  -1.1969930031325E+01
(PID.TID 0000.0001) %MON dynstat_eta_mean             =  -5.8265245056699E-01
(PID.TID 0000.0001) %MON dynstat_eta_sd               =   1.7004917879294E+00
(PID.TID 0000.0001) %MON dynstat_eta_del2             =   9.8352619795496E-02
(PID.TID 0000.0001) %MON dynstat_uvel_max             =   1.7463766957701E-01
(PID.TID 0000.0001) %MON dynstat_uvel_min             =  -2.6819947613373E-01
(PID.TID 0000.0001) %MON dynstat_uvel_mean            =  -5.2493090946876E-04
(PID.TID 0000.0001) %MON dynstat_uvel_sd              =   1.2983880863291E-02
(PID.TID 0000.0001) %MON dynstat_uvel_del2            =   1.7902544283643E-03
(PID.TID 0000.0001) %MON dynstat_vvel_max             =   1.9524442610839E-01
(PID.TID 0000.0001) %MON dynstat_vvel_min             =  -2.1129489383213E-01
(PID.TID 0000.0001) %MON dynstat_vvel_mean            =  -4.2125752949541E-04
(PID.TID 0000.0001) %MON dynstat_vvel_sd              =   1.3488786898295E-02
(PID.TID 0000.0001) %MON dynstat_vvel_del2            =   1.8222506096439E-03
(PID.TID 0000.0001) %MON dynstat_wvel_max             =   8.7539863526128E-05
(PID.TID 0000.0001) %MON dynstat_wvel_min             =  -1.7826081245198E-04
(PID.TID 0000.0001) %MON dynstat_wvel_mean            =  -1.0398272472984E-09
(PID.TID 0000.0001) %MON dynstat_wvel_sd              =   4.6265127606368E-06
(PID.TID 0000.0001) %MON dynstat_wvel_del2            =   1.1357331201097E-06
(PID.TID 0000.0001) %MON dynstat_theta_max            =   3.0001008921670E+01
(PID.TID 0000.0001) %MON dynstat_theta_min            =  -3.3859084291887E+00
(PID.TID 0000.0001) %MON dynstat_theta_mean           =   3.5032992261147E+00
(PID.TID 0000.0001) %MON dynstat_theta_sd             =   4.7495804997075E+00
(PID.TID 0000.0001) %MON dynstat_theta_del2           =   9.5363039373147E-02
(PID.TID 0000.0001) %MON dynstat_salt_max             =   4.0834232688623E+01
(PID.TID 0000.0001) %MON dynstat_salt_min             =   1.8035439777369E+01
(PID.TID 0000.0001) %MON dynstat_salt_mean            =   3.4756118105184E+01
(PID.TID 0000.0001) %MON dynstat_salt_sd              =   5.1181159466545E-01
(PID.TID 0000.0001) %MON dynstat_salt_del2            =   2.0041056417538E-02
(PID.TID 0000.0001) %MON extforcing_qnet_max          =   7.9689315253938E+02
(PID.TID 0000.0001) %MON extforcing_qnet_min          =  -2.3592581199913E+02
(PID.TID 0000.0001) %MON extforcing_qnet_mean         =  -4.7524307239952E+00
(PID.TID 0000.0001) %MON extforcing_qnet_sd           =   1.2014863929589E+02
(PID.TID 0000.0001) %MON extforcing_qnet_del2         =   1.2535050063707E+01
(PID.TID 0000.0001) %MON extforcing_qsw_max           =   0.0000000000000E+00
(PID.TID 0000.0001) %MON extforcing_qsw_min           =  -2.6120008132068E+01
(PID.TID 0000.0001) %MON extforcing_qsw_mean          =  -3.5510978567073E-02
(PID.TID 0000.0001) %MON extforcing_qsw_sd            =   7.7540426890435E-01
(PID.TID 0000.0001) %MON extforcing_qsw_del2          =   4.9687137467546E-02
(PID.TID 0000.0001) %MON extforcing_empmr_max         =   5.1448723942831E-07
(PID.TID 0000.0001) %MON extforcing_empmr_min         =  -3.0509494511173E-07
(PID.TID 0000.0001) %MON extforcing_empmr_mean        =   7.0871343761516E-10
(PID.TID 0000.0001) %MON extforcing_empmr_sd          =   5.3430894700579E-08
(PID.TID 0000.0001) %MON extforcing_empmr_del2        =   8.6703695277197E-09
(PID.TID 0000.0001) %MON extforcing_fu_max            =   2.4722174155228E-01
(PID.TID 0000.0001) %MON extforcing_fu_min            =  -2.0189405725496E-01
(PID.TID 0000.0001) %MON extforcing_fu_mean           =  -1.4889729428101E-03
(PID.TID 0000.0001) %MON extforcing_fu_sd             =   6.1500757457838E-02
(PID.TID 0000.0001) %MON extforcing_fu_del2           =   3.4156393841176E-03
(PID.TID 0000.0001) %MON extforcing_fv_max            =   2.7427691301694E-01
(PID.TID 0000.0001) %MON extforcing_fv_min            =  -3.3322315549145E-01
(PID.TID 0000.0001) %MON extforcing_fv_mean           =  -5.2508871641406E-03
(PID.TID 0000.0001) %MON extforcing_fv_sd             =   6.8737705853193E-02
(PID.TID 0000.0001) %MON extforcing_fv_del2           =   3.3610533236295E-03
(PID.TID 0000.0001) %MON advcfl_uvel_max              =   7.6066458823311E-02
(PID.TID 0000.0001) %MON advcfl_vvel_max              =   8.5104294695352E-02
(PID.TID 0000.0001) %MON advcfl_wvel_max              =   5.8119751682458E-02
(PID.TID 0000.0001) %MON advcfl_W_hf_max              =   1.2433401052800E-01
(PID.TID 0000.0001) %MON pe_b_mean                    =  -1.9303968825995E-03
(PID.TID 0000.0001) %MON ke_max                       =   3.5891212728830E-02
(PID.TID 0000.0001) %MON ke_mean                      =   1.6206919493240E-04
(PID.TID 0000.0001) %MON ke_vol                       =   1.3395904473917E+18
(PID.TID 0000.0001) %MON vort_r_min                   =  -1.2480563328518E-06
(PID.TID 0000.0001) %MON vort_r_max                   =   1.3936228929154E-06
(PID.TID 0000.0001) %MON vort_a_mean                  =  -2.0493733748264E-05
(PID.TID 0000.0001) %MON vort_a_sd                    =   7.5054013242778E-05
(PID.TID 0000.0001) %MON vort_p_mean                  =  -2.4719492440830E-05
(PID.TID 0000.0001) %MON vort_p_sd                    =   1.2782292864141E-04
(PID.TID 0000.0001) %MON surfExpan_theta_mean         =   8.5694678972170E-08
(PID.TID 0000.0001) %MON surfExpan_salt_mean          =   1.9092958320356E-08
(PID.TID 0000.0001) // =======================================================
(PID.TID 0000.0001) // End MONITOR dynamic field statistics
(PID.TID 0000.0001) // =======================================================
(PID.TID 0000.0001) // =======================================================
(PID.TID 0000.0001) // Begin MONITOR Therm.SeaIce statistics
(PID.TID 0000.0001) // =======================================================
(PID.TID 0000.0001) %MON thSI_time_sec                =   3.1111776000000E+09
(PID.TID 0000.0001) %MON thSI_Ice_Area_G              =   2.4720603247934E+13
(PID.TID 0000.0001) %MON thSI_Ice_Area_S              =   1.1682341448515E+13
(PID.TID 0000.0001) %MON thSI_Ice_Area_N              =   1.3038261799420E+13
(PID.TID 0000.0001) %MON thSI_IceH_ave_G              =   4.6054416086966E+00
(PID.TID 0000.0001) %MON thSI_IceH_ave_S              =   5.8084826193576E+00
(PID.TID 0000.0001) %MON thSI_IceH_ave_N              =   3.5275114306314E+00
(PID.TID 0000.0001) %MON thSI_IceH_max_S              =   1.0000000000000E+01
(PID.TID 0000.0001) %MON thSI_IceH_max_N              =   1.0000000000000E+01
(PID.TID 0000.0001) %MON thSI_SnwH_ave_G              =   1.0270432918598E+00
(PID.TID 0000.0001) %MON thSI_SnwH_ave_S              =   1.7654909280837E+00
(PID.TID 0000.0001) %MON thSI_SnwH_ave_N              =   3.6539087523174E-01
(PID.TID 0000.0001) %MON thSI_SnwH_max_S              =   4.0935125526047E+00
(PID.TID 0000.0001) %MON thSI_SnwH_max_N              =   4.1032966337715E+00
(PID.TID 0000.0001) %MON thSI_TotEnerg_G              =  -3.8157853053207E+22
(PID.TID 0000.0001) %MON thSI_Tsrf_ave_G              =  -1.7406064680622E+01
(PID.TID 0000.0001) %MON thSI_Tsrf_ave_S              =  -1.1869140921188E-01
(PID.TID 0000.0001) %MON thSI_Tsrf_ave_N              =  -3.2895629195543E+01
(PID.TID 0000.0001) %MON thSI_Tsrf_min_S              =  -5.4342947037306E+00
(PID.TID 0000.0001) %MON thSI_Tsrf_min_N              =  -4.7157369217451E+01
(PID.TID 0000.0001) %MON thSI_Tsrf_max_S              =   0.0000000000000E+00
(PID.TID 0000.0001) %MON thSI_Tsrf_max_N              =  -9.3206503930705E+00
(PID.TID 0000.0001) %MON thSI_Tic1_ave_G              =  -8.5256537511419E+00
(PID.TID 0000.0001) %MON thSI_Tic1_ave_S              =  -4.9752060882755E+00
(PID.TID 0000.0001) %MON thSI_Tic1_ave_N              =  -1.3763920109963E+01
(PID.TID 0000.0001) %MON thSI_Tic1_min_S              =  -1.5338816835482E+01
(PID.TID 0000.0001) %MON thSI_Tic1_min_N              =  -2.1216432785205E+01
(PID.TID 0000.0001) %MON thSI_Tic1_max_S              =  -1.9127873471229E-01
(PID.TID 0000.0001) %MON thSI_Tic1_max_N              =  -7.5928740761837E-01
(PID.TID 0000.0001) %MON thSI_Tic2_ave_G              =  -3.8551107022614E+00
(PID.TID 0000.0001) %MON thSI_Tic2_ave_S              =  -3.0742866053501E+00
(PID.TID 0000.0001) %MON thSI_Tic2_ave_N              =  -5.0071244727462E+00
(PID.TID 0000.0001) %MON thSI_Tic2_min_S              =  -8.5557358460011E+00
(PID.TID 0000.0001) %MON thSI_Tic2_min_N              =  -7.7013405768412E+00
(PID.TID 0000.0001) %MON thSI_Tic2_max_S              =  -1.1510887875501E+00
(PID.TID 0000.0001) %MON thSI_Tic2_max_N              =  -1.3124359121719E+00
(PID.TID 0000.0001) // =======================================================
(PID.TID 0000.0001) // End MONITOR Therm.SeaIce statistics
(PID.TID 0000.0001) // =======================================================
 cg2d: Sum(rhs),rhsMax =   3.91774631312117E+02  2.29854172812900E+02
(PID.TID 0000.0001)                    cg2d_init_res =    2.69191166427509E+00
(PID.TID 0000.0001)                       cg2d_iters =    70
(PID.TID 0000.0001)                         cg2d_res =    4.66852319684784E-07
(PID.TID 0000.0001) // =======================================================
(PID.TID 0000.0001) // Begin MONITOR dynamic field statistics
(PID.TID 0000.0001) // =======================================================
(PID.TID 0000.0001) %MON time_tsnumber                =                 36010
(PID.TID 0000.0001) %MON time_secondsf                =   3.1112640000000E+09
(PID.TID 0000.0001) %MON dynstat_eta_max              =   7.2194989135639E-01
(PID.TID 0000.0001) %MON dynstat_eta_min              =  -1.1967582617828E+01
(PID.TID 0000.0001) %MON dynstat_eta_mean             =  -5.8270326758634E-01
(PID.TID 0000.0001) %MON dynstat_eta_sd               =   1.7000529663811E+00
(PID.TID 0000.0001) %MON dynstat_eta_del2             =   9.8394655435420E-02
(PID.TID 0000.0001) %MON dynstat_uvel_max             =   1.7458519960366E-01
(PID.TID 0000.0001) %MON dynstat_uvel_min             =  -2.6777687279694E-01
(PID.TID 0000.0001) %MON dynstat_uvel_mean            =  -5.2446544648092E-04
(PID.TID 0000.0001) %MON dynstat_uvel_sd              =   1.2983236551169E-02
(PID.TID 0000.0001) %MON dynstat_uvel_del2            =   1.7898976039873E-03
(PID.TID 0000.0001) %MON dynstat_vvel_max             =   1.9518192352524E-01
(PID.TID 0000.0001) %MON dynstat_vvel_min             =  -2.1135005946819E-01
(PID.TID 0000.0001) %MON dynstat_vvel_mean            =  -4.2058906647608E-04
(PID.TID 0000.0001) %MON dynstat_vvel_sd              =   1.3489407447887E-02
(PID.TID 0000.0001) %MON dynstat_vvel_del2            =   1.8212537703596E-03
(PID.TID 0000.0001) %MON dynstat_wvel_max             =   8.8289673784839E-05
(PID.TID 0000.0001) %MON dynstat_wvel_min             =  -1.7817890276404E-04
(PID.TID 0000.0001) %MON dynstat_wvel_mean            =  -1.0298139763630E-09
(PID.TID 0000.0001) %MON dynstat_wvel_sd              =   4.6263680015392E-06
(PID.TID 0000.0001) %MON dynstat_wvel_del2            =   1.1357106419471E-06
(PID.TID 0000.0001) %MON dynstat_theta_max            =   2.9981562418908E+01
(PID.TID 0000.0001) %MON dynstat_theta_min            =  -3.4042267006664E+00
(PID.TID 0000.0001) %MON dynstat_theta_mean           =   3.5033565259098E+00
(PID.TID 0000.0001) %MON dynstat_theta_sd             =   4.7496747352749E+00
(PID.TID 0000.0001) %MON dynstat_theta_del2           =   9.5395982164541E-02
(PID.TID 0000.0001) %MON dynstat_salt_max             =   4.0835622146938E+01
(PID.TID 0000.0001) %MON dynstat_salt_min             =   1.8036014794182E+01
(PID.TID 0000.0001) %MON dynstat_salt_mean            =   3.4756119451620E+01
(PID.TID 0000.0001) %MON dynstat_salt_sd              =   5.1180302005217E-01
(PID.TID 0000.0001) %MON dynstat_salt_del2            =   2.0042226679661E-02
(PID.TID 0000.0001) %MON extforcing_qnet_max          =   8.0007084812344E+02
(PID.TID 0000.0001) %MON extforcing_qnet_min          =  -2.3554464473006E+02
(PID.TID 0000.0001) %MON extforcing_qnet_mean         =  -4.6972772283702E+00
(PID.TID 0000.0001) %MON extforcing_qnet_sd           =   1.2012594909039E+02
(PID.TID 0000.0001) %MON extforcing_qnet_del2         =   1.2563554880732E+01
(PID.TID 0000.0001) %MON extforcing_qsw_max           =   0.0000000000000E+00
(PID.TID 0000.0001) %MON extforcing_qsw_min           =  -2.6120008132068E+01
(PID.TID 0000.0001) %MON extforcing_qsw_mean          =  -3.8535180412071E-02
(PID.TID 0000.0001) %MON extforcing_qsw_sd            =   7.9779138762176E-01
(PID.TID 0000.0001) %MON extforcing_qsw_del2          =   5.4498339235588E-02
(PID.TID 0000.0001) %MON extforcing_empmr_max         =   3.9183032747265E-07
(PID.TID 0000.0001) %MON extforcing_empmr_min         =  -3.1010794508694E-07
(PID.TID 0000.0001) %MON extforcing_empmr_mean        =   6.0874554439647E-10
(PID.TID 0000.0001) %MON extforcing_empmr_sd          =   5.2598638603578E-08
(PID.TID 0000.0001) %MON extforcing_empmr_del2        =   8.6019440781169E-09
(PID.TID 0000.0001) %MON extforcing_fu_max            =   2.4734156444157E-01
(PID.TID 0000.0001) %MON extforcing_fu_min            =  -2.0356290564528E-01
(PID.TID 0000.0001) %MON extforcing_fu_mean           =  -1.4911813646583E-03
(PID.TID 0000.0001) %MON extforcing_fu_sd             =   6.1570987961697E-02
(PID.TID 0000.0001) %MON extforcing_fu_del2           =   3.4345095694594E-03
(PID.TID 0000.0001) %MON extforcing_fv_max            =   2.7696015458957E-01
(PID.TID 0000.0001) %MON extforcing_fv_min            =  -3.3401105942538E-01
(PID.TID 0000.0001) %MON extforcing_fv_mean           =  -5.3120402359197E-03
(PID.TID 0000.0001) %MON extforcing_fv_sd             =   6.8963856595214E-02
(PID.TID 0000.0001) %MON extforcing_fv_del2           =   3.3780333545283E-03
(PID.TID 0000.0001) %MON advcfl_uvel_max              =   7.5946600500768E-02
(PID.TID 0000.0001) %MON advcfl_vvel_max              =   8.5077050699906E-02
(PID.TID 0000.0001) %MON advcfl_wvel_max              =   5.8093046033256E-02
(PID.TID 0000.0001) %MON advcfl_W_hf_max              =   1.2318696791686E-01
(PID.TID 0000.0001) %MON pe_b_mean                    =  -1.9296406325666E-03
(PID.TID 0000.0001) %MON ke_max                       =   3.5763879847275E-02
(PID.TID 0000.0001) %MON ke_mean                      =   1.6206880604634E-04
(PID.TID 0000.0001) %MON ke_vol                       =   1.3395904258634E+18
(PID.TID 0000.0001) %MON vort_r_min                   =  -1.2531482516916E-06
(PID.TID 0000.0001) %MON vort_r_max                   =   1.3971480683959E-06
(PID.TID 0000.0001) %MON vort_a_mean                  =  -2.0493733748264E-05
(PID.TID 0000.0001) %MON vort_a_sd                    =   7.5054013171070E-05
(PID.TID 0000.0001) %MON vort_p_mean                  =  -2.4719492371045E-05
(PID.TID 0000.0001) %MON vort_p_sd                    =   1.2782293734873E-04
(PID.TID 0000.0001) %MON surfExpan_theta_mean         =   8.6154264501187E-08
(PID.TID 0000.0001) %MON surfExpan_salt_mean          =   1.9274129414325E-08
(PID.TID 0000.0001) // =======================================================
(PID.TID 0000.0001) // End MONITOR dynamic field statistics
(PID.TID 0000.0001) // =======================================================
(PID.TID 0000.0001) // =======================================================
(PID.TID 0000.0001) // Begin MONITOR Therm.SeaIce statistics
(PID.TID 0000.0001) // =======================================================
(PID.TID 0000.0001) %MON thSI_time_sec                =   3.1112640000000E+09
(PID.TID 0000.0001) %MON thSI_Ice_Area_G              =   2.4709713345642E+13
(PID.TID 0000.0001) %MON thSI_Ice_Area_S              =   1.1650965821733E+13
(PID.TID 0000.0001) %MON thSI_Ice_Area_N              =   1.3058747523910E+13
(PID.TID 0000.0001) %MON thSI_IceH_ave_G              =   4.6082884014837E+00
(PID.TID 0000.0001) %MON thSI_IceH_ave_S              =   5.8172104443936E+00
(PID.TID 0000.0001) %MON thSI_IceH_ave_N              =   3.5296926650018E+00
(PID.TID 0000.0001) %MON thSI_IceH_max_S              =   1.0000000000000E+01
(PID.TID 0000.0001) %MON thSI_IceH_max_N              =   1.0000000000000E+01
(PID.TID 0000.0001) %MON thSI_SnwH_ave_G              =   1.0241597331314E+00
(PID.TID 0000.0001) %MON thSI_SnwH_ave_S              =   1.7599497963606E+00
(PID.TID 0000.0001) %MON thSI_SnwH_ave_N              =   3.6769058377708E-01
(PID.TID 0000.0001) %MON thSI_SnwH_max_S              =   4.0934374023594E+00
(PID.TID 0000.0001) %MON thSI_SnwH_max_N              =   4.1035858155747E+00
(PID.TID 0000.0001) %MON thSI_TotEnerg_G              =  -3.8157344711021E+22
(PID.TID 0000.0001) %MON thSI_Tsrf_ave_G              =  -1.7495527440789E+01
(PID.TID 0000.0001) %MON thSI_Tsrf_ave_S              =  -1.4087585003511E-01
(PID.TID 0000.0001) %MON thSI_Tsrf_ave_N              =  -3.2979282843957E+01
(PID.TID 0000.0001) %MON thSI_Tsrf_min_S              =  -5.4503642191936E+00
(PID.TID 0000.0001) %MON thSI_Tsrf_min_N              =  -4.7272278926758E+01
(PID.TID 0000.0001) %MON thSI_Tsrf_max_S              =   0.0000000000000E+00
(PID.TID 0000.0001) %MON thSI_Tsrf_max_N              =  -9.9297273157428E+00
(PID.TID 0000.0001) %MON thSI_Tic1_ave_G              =  -8.5452335683794E+00
(PID.TID 0000.0001) %MON thSI_Tic1_ave_S              =  -4.9490925453433E+00
(PID.TID 0000.0001) %MON thSI_Tic1_ave_N              =  -1.3833033317927E+01
(PID.TID 0000.0001) %MON thSI_Tic1_min_S              =  -1.5200080915600E+01
(PID.TID 0000.0001) %MON thSI_Tic1_min_N              =  -2.1277339874328E+01
(PID.TID 0000.0001) %MON thSI_Tic1_max_S              =  -1.8433586777877E-01
(PID.TID 0000.0001) %MON thSI_Tic1_max_N              =  -7.7889692625811E-01
(PID.TID 0000.0001) %MON thSI_Tic2_ave_G              =  -3.8657516137530E+00
(PID.TID 0000.0001) %MON thSI_Tic2_ave_S              =  -3.0703447076758E+00
(PID.TID 0000.0001) %MON thSI_Tic2_ave_N              =  -5.0353254463145E+00
(PID.TID 0000.0001) %MON thSI_Tic2_min_S              =  -8.5247449263398E+00
(PID.TID 0000.0001) %MON thSI_Tic2_min_N              =  -7.7317045973823E+00
(PID.TID 0000.0001) %MON thSI_Tic2_max_S              =  -1.1098850262467E+00
(PID.TID 0000.0001) %MON thSI_Tic2_max_N              =  -1.3274582536866E+00
(PID.TID 0000.0001) // =======================================================
(PID.TID 0000.0001) // End MONITOR Therm.SeaIce statistics
(PID.TID 0000.0001) // =======================================================
 Computing Diagnostic #  23  ETAN         Counter:       1   Parms: SM      M1      
 Computing Diagnostic #  76  oceFWflx     Counter:       1   Parms: SM      U1      
 Computing Diagnostic #  26  THETA        Counter:       1   Parms: SM      MR      
 Computing Diagnostic #  27  SALT         Counter:       1   Parms: SM      MR      
 Compute Stats, Diag. #  23  ETAN      vol(  0 ): 3.639E+15  Parms: SM      M1      
 Compute Stats, Diag. #  24  ETANSQ    vol(  0 ): 3.639E+15  Parms: SM      M1      
 Compute Stats, Diag. #  25  DETADT2   vol(  0 ): 3.639E+15  Parms: SM      M1      
 Compute Stats, Diag. #  26  THETA     vol(  0 ): 1.340E+19  Parms: SM      MR      
 Compute Stats, Diag. #  27  SALT      vol(  0 ): 1.340E+19  Parms: SM      MR      
 Compute Stats, Diag. #  71  CONVADJ   vol(  0 ): 1.315E+19  Parms: SM      LR      
 Compute Stats, Diag. #  72  oceTAUX   vol(  0 ): 3.111E+15  Parms: SU      U1      
 Compute Stats, Diag. #  73  oceTAUY   vol(  0 ): 3.130E+15  Parms: SV      U1      
 Compute Stats, Diag. #  81  TRELAX    vol(  0 ): 3.275E+15  Parms: SM      U1      
 Compute Stats, Diag. #  82  SRELAX    vol(  0 ): 3.275E+15  Parms: SM      U1      
 Compute Stats, Diag. #  83  surForcT  vol(  0 ): 3.275E+15  Parms: SM      U1      
 Compute Stats, Diag. #  84  surForcS  vol(  0 ): 3.275E+15  Parms: SM      U1      
 Compute Stats, Diag. #  85  TFLUX     vol(  0 ): 3.275E+15  Parms: SM      U1      
 Compute Stats, Diag. #  86  SFLUX     vol(  0 ): 3.275E+15  Parms: SM      U1      
 Compute Stats, Diag. #  78  oceQnet   vol(  0 ): 3.275E+15  Parms: SM      U1      
 Compute Stats, Diag. #  77  oceSflux  vol(  0 ): 3.275E+15  Parms: SM      U1      
 Compute Stats, Diag. #  76  oceFWflx  vol(  0 ): 3.275E+15  Parms: SM      U1      
 Compute Stats, Diag. # 184  SI_Fract  vol(  0 ): 3.639E+15  Parms: SM P    M1      
 Compute Stats, Diag. # 184  SI_Fract  vol(  1 ): 1.289E+15  Parms: SM P    M1      
 Compute Stats, Diag. # 184  SI_Fract  vol(  3 ): 7.935E+14  Parms: SM P    M1      
 Compute Stats, Diag. # 185  SI_Thick  vol(  0 ): 2.471E+14  Parms: SM PC184M1      
    use Counter Mate  # 184  SI_Fract  vol(  0 ): 3.639E+15 integral 2.471E+14
 Compute Stats, Diag. # 185  SI_Thick  vol(  1 ): 1.188E+14  Parms: SM PC184M1      
    use Counter Mate  # 184  SI_Fract  vol(  1 ): 1.289E+15 integral 1.188E+14
 Compute Stats, Diag. # 185  SI_Thick  vol(  3 ): 1.282E+14  Parms: SM PC184M1      
    use Counter Mate  # 184  SI_Fract  vol(  3 ): 7.935E+14 integral 1.282E+14
 Compute Stats, Diag. # 186  SI_SnowH  vol(  0 ): 2.471E+14  Parms: SM PC184M1      
    use Counter Mate  # 184  SI_Fract  vol(  0 ): 3.639E+15 integral 2.471E+14
 Compute Stats, Diag. # 186  SI_SnowH  vol(  1 ): 1.188E+14  Parms: SM PC184M1      
    use Counter Mate  # 184  SI_Fract  vol(  1 ): 1.289E+15 integral 1.188E+14
 Compute Stats, Diag. # 186  SI_SnowH  vol(  3 ): 1.282E+14  Parms: SM PC184M1      
    use Counter Mate  # 184  SI_Fract  vol(  3 ): 7.935E+14 integral 1.282E+14
 Compute Stats, Diag. # 187  SI_Tsrf   vol(  0 ): 2.471E+14  Parms: SM  C184M1      
    use Counter Mate  # 184  SI_Fract  vol(  0 ): 3.639E+15 integral 2.471E+14
 Compute Stats, Diag. # 187  SI_Tsrf   vol(  1 ): 1.188E+14  Parms: SM  C184M1      
    use Counter Mate  # 184  SI_Fract  vol(  1 ): 1.289E+15 integral 1.188E+14
 Compute Stats, Diag. # 187  SI_Tsrf   vol(  3 ): 1.282E+14  Parms: SM  C184M1      
    use Counter Mate  # 184  SI_Fract  vol(  3 ): 7.935E+14 integral 1.282E+14
 Compute Stats, Diag. # 188  SI_Tice1  vol(  0 ): 2.471E+14  Parms: SM  C184M1      
    use Counter Mate  # 184  SI_Fract  vol(  0 ): 3.639E+15 integral 2.471E+14
 Compute Stats, Diag. # 188  SI_Tice1  vol(  1 ): 1.188E+14  Parms: SM  C184M1      
    use Counter Mate  # 184  SI_Fract  vol(  1 ): 1.289E+15 integral 1.188E+14
 Compute Stats, Diag. # 188  SI_Tice1  vol(  3 ): 1.282E+14  Parms: SM  C184M1      
    use Counter Mate  # 184  SI_Fract  vol(  3 ): 7.935E+14 integral 1.282E+14
 Compute Stats, Diag. # 189  SI_Tice2  vol(  0 ): 2.471E+14  Parms: SM  C184M1      
    use Counter Mate  # 184  SI_Fract  vol(  0 ): 3.639E+15 integral 2.471E+14
 Compute Stats, Diag. # 189  SI_Tice2  vol(  1 ): 1.188E+14  Parms: SM  C184M1      
    use Counter Mate  # 184  SI_Fract  vol(  1 ): 1.289E+15 integral 1.188E+14
 Compute Stats, Diag. # 189  SI_Tice2  vol(  3 ): 1.282E+14  Parms: SM  C184M1      
    use Counter Mate  # 184  SI_Fract  vol(  3 ): 7.935E+14 integral 1.282E+14
 Compute Stats, Diag. # 190  SI_Qice1  vol(  0 ): 1.136E+15  Parms: SM  C185M1      
    use Counter Mate  # 185  SI_Thick  vol(  0 ): 2.471E+14 integral 1.136E+15
 Compute Stats, Diag. # 190  SI_Qice1  vol(  1 ): 6.822E+14  Parms: SM  C185M1      
    use Counter Mate  # 185  SI_Thick  vol(  1 ): 1.188E+14 integral 6.822E+14
 Compute Stats, Diag. # 190  SI_Qice1  vol(  3 ): 4.536E+14  Parms: SM  C185M1      
    use Counter Mate  # 185  SI_Thick  vol(  3 ): 1.282E+14 integral 4.536E+14
 Compute Stats, Diag. # 191  SI_Qice2  vol(  0 ): 1.136E+15  Parms: SM  C185M1      
    use Counter Mate  # 185  SI_Thick  vol(  0 ): 2.471E+14 integral 1.136E+15
 Compute Stats, Diag. # 191  SI_Qice2  vol(  1 ): 6.822E+14  Parms: SM  C185M1      
    use Counter Mate  # 185  SI_Thick  vol(  1 ): 1.188E+14 integral 6.822E+14
 Compute Stats, Diag. # 191  SI_Qice2  vol(  3 ): 4.536E+14  Parms: SM  C185M1      
    use Counter Mate  # 185  SI_Thick  vol(  3 ): 1.282E+14 integral 4.536E+14
 Compute Stats, Diag. # 195  SIsnwPrc  vol(  0 ): 2.471E+14  Parms: SM  C193M1      
    use Counter Mate  # 193  SI_FrcFx  vol(  0 ): 3.639E+15 integral 2.471E+14
 Compute Stats, Diag. # 195  SIsnwPrc  vol(  1 ): 1.188E+14  Parms: SM  C193M1      
    use Counter Mate  # 193  SI_FrcFx  vol(  1 ): 1.289E+15 integral 1.188E+14
 Compute Stats, Diag. # 195  SIsnwPrc  vol(  3 ): 1.282E+14  Parms: SM  C193M1      
    use Counter Mate  # 193  SI_FrcFx  vol(  3 ): 7.935E+14 integral 1.282E+14
 Compute Stats, Diag. # 194  SIalbedo  vol(  0 ): 2.471E+14  Parms: SM PC193M1      
    use Counter Mate  # 193  SI_FrcFx  vol(  0 ): 3.639E+15 integral 2.471E+14
 Compute Stats, Diag. # 194  SIalbedo  vol(  1 ): 1.188E+14  Parms: SM PC193M1      
    use Counter Mate  # 193  SI_FrcFx  vol(  1 ): 1.289E+15 integral 1.188E+14
 Compute Stats, Diag. # 194  SIalbedo  vol(  3 ): 1.282E+14  Parms: SM PC193M1      
    use Counter Mate  # 193  SI_FrcFx  vol(  3 ): 7.935E+14 integral 1.282E+14
 Compute Stats, Diag. # 192  SIsnwAge  vol(  0 ): 3.639E+15  Parms: SM P    M1      
 Compute Stats, Diag. # 192  SIsnwAge  vol(  1 ): 1.289E+15  Parms: SM P    M1      
 Compute Stats, Diag. # 192  SIsnwAge  vol(  3 ): 7.935E+14  Parms: SM P    M1      
 Compute Stats, Diag. # 198  SIflx2oc  vol(  0 ): 3.639E+15  Parms: SM      M1      
 Compute Stats, Diag. # 198  SIflx2oc  vol(  1 ): 1.289E+15  Parms: SM      M1      
 Compute Stats, Diag. # 198  SIflx2oc  vol(  3 ): 7.935E+14  Parms: SM      M1      
 Compute Stats, Diag. # 199  SIfrw2oc  vol(  0 ): 3.639E+15  Parms: SM      M1      
 Compute Stats, Diag. # 199  SIfrw2oc  vol(  1 ): 1.289E+15  Parms: SM      M1      
 Compute Stats, Diag. # 199  SIfrw2oc  vol(  3 ): 7.935E+14  Parms: SM      M1      
 Compute Stats, Diag. # 200  SIsaltFx  vol(  0 ): 3.639E+15  Parms: SM      M1      
 Compute Stats, Diag. # 200  SIsaltFx  vol(  1 ): 1.289E+15  Parms: SM      M1      
 Compute Stats, Diag. # 200  SIsaltFx  vol(  3 ): 7.935E+14  Parms: SM      M1      
 Compute Stats, Diag. # 196  SIflxAtm  vol(  0 ): 3.639E+15  Parms: SM      M1      
 Compute Stats, Diag. # 196  SIflxAtm  vol(  1 ): 1.289E+15  Parms: SM      M1      
 Compute Stats, Diag. # 196  SIflxAtm  vol(  3 ): 7.935E+14  Parms: SM      M1      
 Compute Stats, Diag. # 197  SIfrwAtm  vol(  0 ): 3.639E+15  Parms: SM      M1      
 Compute Stats, Diag. # 197  SIfrwAtm  vol(  1 ): 1.289E+15  Parms: SM      M1      
 Compute Stats, Diag. # 197  SIfrwAtm  vol(  3 ): 7.935E+14  Parms: SM      M1      
 cg2d: Sum(rhs),rhsMax =   3.91808759411428E+02  2.29959802373405E+02
(PID.TID 0000.0001)                    cg2d_init_res =    2.72283583467481E+00
(PID.TID 0000.0001)                       cg2d_iters =    70
(PID.TID 0000.0001)                         cg2d_res =    4.84300490227770E-07
(PID.TID 0000.0001) // =======================================================
(PID.TID 0000.0001) // Begin MONITOR dynamic field statistics
(PID.TID 0000.0001) // =======================================================
(PID.TID 0000.0001) %MON time_tsnumber                =                 36011
(PID.TID 0000.0001) %MON time_secondsf                =   3.1113504000000E+09
(PID.TID 0000.0001) %MON dynstat_eta_max              =   7.2055051630452E-01
(PID.TID 0000.0001) %MON dynstat_eta_min              =  -1.1965112943689E+01
(PID.TID 0000.0001) %MON dynstat_eta_mean             =  -5.8275402777702E-01
(PID.TID 0000.0001) %MON dynstat_eta_sd               =   1.6996158949895E+00
(PID.TID 0000.0001) %MON dynstat_eta_del2             =   9.8408810370045E-02
(PID.TID 0000.0001) %MON dynstat_uvel_max             =   1.7447561554104E-01
(PID.TID 0000.0001) %MON dynstat_uvel_min             =  -2.6734097359901E-01
(PID.TID 0000.0001) %MON dynstat_uvel_mean            =  -5.2395644158281E-04
(PID.TID 0000.0001) %MON dynstat_uvel_sd              =   1.2982743228286E-02
(PID.TID 0000.0001) %MON dynstat_uvel_del2            =   1.7896417649661E-03
(PID.TID 0000.0001) %MON dynstat_vvel_max             =   1.9505865005303E-01
(PID.TID 0000.0001) %MON dynstat_vvel_min             =  -2.1139958203582E-01
(PID.TID 0000.0001) %MON dynstat_vvel_mean            =  -4.1995914139868E-04
(PID.TID 0000.0001) %MON dynstat_vvel_sd              =   1.3489634011004E-02
(PID.TID 0000.0001) %MON dynstat_vvel_del2            =   1.8202939714503E-03
(PID.TID 0000.0001) %MON dynstat_wvel_max             =   8.9022976928139E-05
(PID.TID 0000.0001) %MON dynstat_wvel_min             =  -1.7805664642189E-04
(PID.TID 0000.0001) %MON dynstat_wvel_mean            =  -1.0133650916529E-09
(PID.TID 0000.0001) %MON dynstat_wvel_sd              =   4.6262689726252E-06
(PID.TID 0000.0001) %MON dynstat_wvel_del2            =   1.1356772661280E-06
(PID.TID 0000.0001) %MON dynstat_theta_max            =   2.9962062320772E+01
(PID.TID 0000.0001) %MON dynstat_theta_min            =  -3.4225437530788E+00
(PID.TID 0000.0001) %MON dynstat_theta_mean           =   3.5034137545738E+00
(PID.TID 0000.0001) %MON dynstat_theta_sd             =   4.7497727520029E+00
(PID.TID 0000.0001) %MON dynstat_theta_del2           =   9.5449241058325E-02
(PID.TID 0000.0001) %MON dynstat_salt_max             =   4.0836877672614E+01
(PID.TID 0000.0001) %MON dynstat_salt_min             =   1.8036625593745E+01
(PID.TID 0000.0001) %MON dynstat_salt_mean            =   3.4756120817118E+01
(PID.TID 0000.0001) %MON dynstat_salt_sd              =   5.1179391049573E-01
(PID.TID 0000.0001) %MON dynstat_salt_del2            =   2.0045288612896E-02
(PID.TID 0000.0001) %MON extforcing_qnet_max          =   8.0322164131371E+02
(PID.TID 0000.0001) %MON extforcing_qnet_min          =  -2.3516532424884E+02
(PID.TID 0000.0001) %MON extforcing_qnet_mean         =  -4.6894701177506E+00
(PID.TID 0000.0001) %MON extforcing_qnet_sd           =   1.2005682343816E+02
(PID.TID 0000.0001) %MON extforcing_qnet_del2         =   1.2595554476125E+01
(PID.TID 0000.0001) %MON extforcing_qsw_max           =   0.0000000000000E+00
(PID.TID 0000.0001) %MON extforcing_qsw_min           =  -2.6120008132068E+01
(PID.TID 0000.0001) %MON extforcing_qsw_mean          =  -4.0698140438392E-02
(PID.TID 0000.0001) %MON extforcing_qsw_sd            =   8.2258272661805E-01
(PID.TID 0000.0001) %MON extforcing_qsw_del2          =   5.7912516348049E-02
(PID.TID 0000.0001) %MON extforcing_empmr_max         =   7.3907830379005E-07
(PID.TID 0000.0001) %MON extforcing_empmr_min         =  -3.1625834469167E-07
(PID.TID 0000.0001) %MON extforcing_empmr_mean        =   6.0806478409611E-10
(PID.TID 0000.0001) %MON extforcing_empmr_sd          =   5.3247835606126E-08
(PID.TID 0000.0001) %MON extforcing_empmr_del2        =   8.7004531930199E-09
(PID.TID 0000.0001) %MON extforcing_fu_max            =   2.4760593894036E-01
(PID.TID 0000.0001) %MON extforcing_fu_min            =  -2.0523175403560E-01
(PID.TID 0000.0001) %MON extforcing_fu_mean           =  -1.4933898981647E-03
(PID.TID 0000.0001) %MON extforcing_fu_sd             =   6.1653671233418E-02
(PID.TID 0000.0001) %MON extforcing_fu_del2           =   3.4557020502382E-03
(PID.TID 0000.0001) %MON extforcing_fv_max            =   2.7964339616220E-01
(PID.TID 0000.0001) %MON extforcing_fv_min            =  -3.3479896335931E-01
(PID.TID 0000.0001) %MON extforcing_fv_mean           =  -5.3731932851567E-03
(PID.TID 0000.0001) %MON extforcing_fv_sd             =   6.9197724565457E-02
(PID.TID 0000.0001) %MON extforcing_fv_del2           =   3.3965934382679E-03
(PID.TID 0000.0001) %MON advcfl_uvel_max              =   7.5822971219801E-02
(PID.TID 0000.0001) %MON advcfl_vvel_max              =   8.5023317530076E-02
(PID.TID 0000.0001) %MON advcfl_wvel_max              =   5.8053185852268E-02
(PID.TID 0000.0001) %MON advcfl_W_hf_max              =   1.2198350181286E-01
(PID.TID 0000.0001) %MON pe_b_mean                    =  -1.9288370599455E-03
(PID.TID 0000.0001) %MON ke_max                       =   3.5633869027051E-02
(PID.TID 0000.0001) %MON ke_mean                      =   1.6206528318326E-04
(PID.TID 0000.0001) %MON ke_vol                       =   1.3395904073718E+18
(PID.TID 0000.0001) %MON vort_r_min                   =  -1.2583133774397E-06
(PID.TID 0000.0001) %MON vort_r_max                   =   1.4005948831378E-06
(PID.TID 0000.0001) %MON vort_a_mean                  =  -2.0493733748264E-05
(PID.TID 0000.0001) %MON vort_a_sd                    =   7.5054013100643E-05
(PID.TID 0000.0001) %MON vort_p_mean                  =  -2.4719492269586E-05
(PID.TID 0000.0001) %MON vort_p_sd                    =   1.2782294579876E-04
(PID.TID 0000.0001) %MON surfExpan_theta_mean         =   8.5822161125233E-08
(PID.TID 0000.0001) %MON surfExpan_salt_mean          =   1.9258358848388E-08
(PID.TID 0000.0001) // =======================================================
(PID.TID 0000.0001) // End MONITOR dynamic field statistics
(PID.TID 0000.0001) // =======================================================
(PID.TID 0000.0001) // =======================================================
(PID.TID 0000.0001) // Begin MONITOR Therm.SeaIce statistics
(PID.TID 0000.0001) // =======================================================
(PID.TID 0000.0001) %MON thSI_time_sec                =   3.1113504000000E+09
(PID.TID 0000.0001) %MON thSI_Ice_Area_G              =   2.4721264922615E+13
(PID.TID 0000.0001) %MON thSI_Ice_Area_S              =   1.1617267263215E+13
(PID.TID 0000.0001) %MON thSI_Ice_Area_N              =   1.3103997659400E+13
(PID.TID 0000.0001) %MON thSI_IceH_ave_G              =   4.6068887678506E+00
(PID.TID 0000.0001) %MON thSI_IceH_ave_S              =   5.8270022866018E+00
(PID.TID 0000.0001) %MON thSI_IceH_ave_N              =   3.5252047499489E+00
(PID.TID 0000.0001) %MON thSI_IceH_max_S              =   1.0000000000000E+01
(PID.TID 0000.0001) %MON thSI_IceH_max_N              =   1.0000000000000E+01
(PID.TID 0000.0001) %MON thSI_SnwH_ave_G              =   1.0204864417772E+00
(PID.TID 0000.0001) %MON thSI_SnwH_ave_S              =   1.7550246618137E+00
(PID.TID 0000.0001) %MON thSI_SnwH_ave_N              =   3.6928617152301E-01
(PID.TID 0000.0001) %MON thSI_SnwH_max_S              =   4.0933672041825E+00
(PID.TID 0000.0001) %MON thSI_SnwH_max_N              =   4.1039287776202E+00
(PID.TID 0000.0001) %MON thSI_TotEnerg_G              =  -3.8157057657691E+22
(PID.TID 0000.0001) %MON thSI_Tsrf_ave_G              =  -1.7549329851183E+01
(PID.TID 0000.0001) %MON thSI_Tsrf_ave_S              =  -1.2195074396916E-01
(PID.TID 0000.0001) %MON thSI_Tsrf_ave_N              =  -3.2999463928446E+01
(PID.TID 0000.0001) %MON thSI_Tsrf_min_S              =  -5.4663954167926E+00
(PID.TID 0000.0001) %MON thSI_Tsrf_min_N              =  -4.7387251597750E+01
(PID.TID 0000.0001) %MON thSI_Tsrf_max_S              =   0.0000000000000E+00
(PID.TID 0000.0001) %MON thSI_Tsrf_max_N              =  -1.7602832355786E+00
(PID.TID 0000.0001) %MON thSI_Tic1_ave_G              =  -8.5676512234012E+00
(PID.TID 0000.0001) %MON thSI_Tic1_ave_S              =  -4.9288024041883E+00
(PID.TID 0000.0001) %MON thSI_Tic1_ave_N              =  -1.3900079569497E+01
(PID.TID 0000.0001) %MON thSI_Tic1_min_S              =  -1.5062924028510E+01
(PID.TID 0000.0001) %MON thSI_Tic1_min_N              =  -2.1336227864219E+01
(PID.TID 0000.0001) %MON thSI_Tic1_max_S              =  -1.7785459376697E-01
(PID.TID 0000.0001) %MON thSI_Tic1_max_N              =  -7.9938453774882E-01
(PID.TID 0000.0001) %MON thSI_Tic2_ave_G              =  -3.8762175947165E+00
(PID.TID 0000.0001) %MON thSI_Tic2_ave_S              =  -3.0664428092741E+00
(PID.TID 0000.0001) %MON thSI_Tic2_ave_N              =  -5.0628747586657E+00
(PID.TID 0000.0001) %MON thSI_Tic2_min_S              =  -8.4936461556316E+00
(PID.TID 0000.0001) %MON thSI_Tic2_min_N              =  -7.7611121595382E+00
(PID.TID 0000.0001) %MON thSI_Tic2_max_S              =  -1.0733055945626E+00
(PID.TID 0000.0001) %MON thSI_Tic2_max_N              =  -1.3419895396405E+00
(PID.TID 0000.0001) // =======================================================
(PID.TID 0000.0001) // End MONITOR Therm.SeaIce statistics
(PID.TID 0000.0001) // =======================================================
 Computing Diagnostic #  23  ETAN         Counter:       1   Parms: SM      M1      
 Compute Stats, Diag. #  23  ETAN      vol(  0 ): 3.639E+14  Parms: SM      M1      
 Compute Stats, Diag. #  26  THETA     vol(  0 ): 1.340E+18  Parms: SM      MR      
 Compute Stats, Diag. #  27  SALT      vol(  0 ): 1.340E+18  Parms: SM      MR      
 cg2d: Sum(rhs),rhsMax =   3.91837084115087E+02  2.30069172150420E+02
(PID.TID 0000.0001)                    cg2d_init_res =    2.72934601110772E+00
(PID.TID 0000.0001)                       cg2d_iters =    70
(PID.TID 0000.0001)                         cg2d_res =    4.89323571528002E-07
(PID.TID 0000.0001) // =======================================================
(PID.TID 0000.0001) // Begin MONITOR dynamic field statistics
(PID.TID 0000.0001) // =======================================================
(PID.TID 0000.0001) %MON time_tsnumber                =                 36012
(PID.TID 0000.0001) %MON time_secondsf                =   3.1114368000000E+09
(PID.TID 0000.0001) %MON dynstat_eta_max              =   7.1914136945200E-01
(PID.TID 0000.0001) %MON dynstat_eta_min              =  -1.1962505410631E+01
(PID.TID 0000.0001) %MON dynstat_eta_mean             =  -5.8279615632761E-01
(PID.TID 0000.0001) %MON dynstat_eta_sd               =   1.6991834985839E+00
(PID.TID 0000.0001) %MON dynstat_eta_del2             =   9.8436273269408E-02
(PID.TID 0000.0001) %MON dynstat_uvel_max             =   1.7431262952006E-01
(PID.TID 0000.0001) %MON dynstat_uvel_min             =  -2.6689161758652E-01
(PID.TID 0000.0001) %MON dynstat_uvel_mean            =  -5.2338964985099E-04
(PID.TID 0000.0001) %MON dynstat_uvel_sd              =   1.2982419791707E-02
(PID.TID 0000.0001) %MON dynstat_uvel_del2            =   1.7894679511376E-03
(PID.TID 0000.0001) %MON dynstat_vvel_max             =   1.9487692060440E-01
(PID.TID 0000.0001) %MON dynstat_vvel_min             =  -2.1144374492398E-01
(PID.TID 0000.0001) %MON dynstat_vvel_mean            =  -4.1937241036468E-04
(PID.TID 0000.0001) %MON dynstat_vvel_sd              =   1.3489454025485E-02
(PID.TID 0000.0001) %MON dynstat_vvel_del2            =   1.8193932954263E-03
(PID.TID 0000.0001) %MON dynstat_wvel_max             =   8.9729395189931E-05
(PID.TID 0000.0001) %MON dynstat_wvel_min             =  -1.7789869175472E-04
(PID.TID 0000.0001) %MON dynstat_wvel_mean            =  -1.0254545561303E-09
(PID.TID 0000.0001) %MON dynstat_wvel_sd              =   4.6261989629964E-06
(PID.TID 0000.0001) %MON dynstat_wvel_del2            =   1.1356400172059E-06
(PID.TID 0000.0001) %MON dynstat_theta_max            =   2.9942561388145E+01
(PID.TID 0000.0001) %MON dynstat_theta_min            =  -3.4408542922791E+00
(PID.TID 0000.0001) %MON dynstat_theta_mean           =   3.5034707245572E+00
(PID.TID 0000.0001) %MON dynstat_theta_sd             =   4.7498736360985E+00
(PID.TID 0000.0001) %MON dynstat_theta_del2           =   9.5459592315434E-02
(PID.TID 0000.0001) %MON dynstat_salt_max             =   4.0838000645551E+01
(PID.TID 0000.0001) %MON dynstat_salt_min             =   1.8037325787954E+01
(PID.TID 0000.0001) %MON dynstat_salt_mean            =   3.4756122128519E+01
(PID.TID 0000.0001) %MON dynstat_salt_sd              =   5.1178446066530E-01
(PID.TID 0000.0001) %MON dynstat_salt_del2            =   2.0039525714174E-02
(PID.TID 0000.0001) %MON extforcing_qnet_max          =   8.0634676805053E+02
(PID.TID 0000.0001) %MON extforcing_qnet_min          =  -2.3478781403322E+02
(PID.TID 0000.0001) %MON extforcing_qnet_mean         =  -4.6584641748225E+00
(PID.TID 0000.0001) %MON extforcing_qnet_sd           =   1.2007409321920E+02
(PID.TID 0000.0001) %MON extforcing_qnet_del2         =   1.2669347274811E+01
(PID.TID 0000.0001) %MON extforcing_qsw_max           =   0.0000000000000E+00
(PID.TID 0000.0001) %MON extforcing_qsw_min           =  -2.6120008132068E+01
(PID.TID 0000.0001) %MON extforcing_qsw_mean          =  -4.3017955906322E-02
(PID.TID 0000.0001) %MON extforcing_qsw_sd            =   8.4735849126540E-01
(PID.TID 0000.0001) %MON extforcing_qsw_del2          =   6.1863841757695E-02
(PID.TID 0000.0001) %MON extforcing_empmr_max         =   7.4912872269208E-07
(PID.TID 0000.0001) %MON extforcing_empmr_min         =  -3.2052171069023E-07
(PID.TID 0000.0001) %MON extforcing_empmr_mean        =   5.0466492893964E-10
(PID.TID 0000.0001) %MON extforcing_empmr_sd          =   5.3102316721186E-08
(PID.TID 0000.0001) %MON extforcing_empmr_del2        =   8.7112844025544E-09
(PID.TID 0000.0001) %MON extforcing_fu_max            =   2.4787031343914E-01
(PID.TID 0000.0001) %MON extforcing_fu_min            =  -2.0690060242593E-01
(PID.TID 0000.0001) %MON extforcing_fu_mean           =  -1.4955985276535E-03
(PID.TID 0000.0001) %MON extforcing_fu_sd             =   6.1748757210500E-02
(PID.TID 0000.0001) %MON extforcing_fu_del2           =   3.4785310933711E-03
(PID.TID 0000.0001) %MON extforcing_fv_max            =   2.8232663773484E-01
(PID.TID 0000.0001) %MON extforcing_fv_min            =  -3.3558686729325E-01
(PID.TID 0000.0001) %MON extforcing_fv_mean           =  -5.4343462543779E-03
(PID.TID 0000.0001) %MON extforcing_fv_sd             =   6.9439231706850E-02
(PID.TID 0000.0001) %MON extforcing_fv_del2           =   3.4171694032282E-03
(PID.TID 0000.0001) %MON advcfl_uvel_max              =   7.5695525330964E-02
(PID.TID 0000.0001) %MON advcfl_vvel_max              =   8.4944104223662E-02
(PID.TID 0000.0001) %MON advcfl_wvel_max              =   5.8001686670217E-02
(PID.TID 0000.0001) %MON advcfl_W_hf_max              =   1.2072557837352E-01
(PID.TID 0000.0001) %MON pe_b_mean                    =  -1.9280306365757E-03
(PID.TID 0000.0001) %MON ke_max                       =   3.5501199713371E-02
(PID.TID 0000.0001) %MON ke_mean                      =   1.6205868875777E-04
(PID.TID 0000.0001) %MON ke_vol                       =   1.3395903889008E+18
(PID.TID 0000.0001) %MON vort_r_min                   =  -1.2635225897448E-06
(PID.TID 0000.0001) %MON vort_r_max                   =   1.4039207330735E-06
(PID.TID 0000.0001) %MON vort_a_mean                  =  -2.0493733748264E-05
(PID.TID 0000.0001) %MON vort_a_sd                    =   7.5054013032155E-05
(PID.TID 0000.0001) %MON vort_p_mean                  =  -2.4719492191040E-05
(PID.TID 0000.0001) %MON vort_p_sd                    =   1.2782295567119E-04
(PID.TID 0000.0001) %MON surfExpan_theta_mean         =   8.5635415636390E-08
(PID.TID 0000.0001) %MON surfExpan_salt_mean          =   1.9413467772393E-08
(PID.TID 0000.0001) // =======================================================
(PID.TID 0000.0001) // End MONITOR dynamic field statistics
(PID.TID 0000.0001) // =======================================================
(PID.TID 0000.0001) // =======================================================
(PID.TID 0000.0001) // Begin MONITOR Therm.SeaIce statistics
(PID.TID 0000.0001) // =======================================================
(PID.TID 0000.0001) %MON thSI_time_sec                =   3.1114368000000E+09
(PID.TID 0000.0001) %MON thSI_Ice_Area_G              =   2.4706796036466E+13
(PID.TID 0000.0001) %MON thSI_Ice_Area_S              =   1.1575608803832E+13
(PID.TID 0000.0001) %MON thSI_Ice_Area_N              =   1.3131187232633E+13
(PID.TID 0000.0001) %MON thSI_IceH_ave_G              =   4.6101406763284E+00
(PID.TID 0000.0001) %MON thSI_IceH_ave_S              =   5.8407209240509E+00
(PID.TID 0000.0001) %MON thSI_IceH_ave_N              =   3.5253403991717E+00
(PID.TID 0000.0001) %MON thSI_IceH_max_S              =   1.0000000000000E+01
(PID.TID 0000.0001) %MON thSI_IceH_max_N              =   1.0000000000000E+01
(PID.TID 0000.0001) %MON thSI_SnwH_ave_G              =   1.0180175507860E+00
(PID.TID 0000.0001) %MON thSI_SnwH_ave_S              =   1.7515295274103E+00
(PID.TID 0000.0001) %MON thSI_SnwH_ave_N              =   3.7140064220772E-01
(PID.TID 0000.0001) %MON thSI_SnwH_max_S              =   4.0933013910118E+00
(PID.TID 0000.0001) %MON thSI_SnwH_max_N              =   4.1042798137667E+00
(PID.TID 0000.0001) %MON thSI_TotEnerg_G              =  -3.8155367036196E+22
(PID.TID 0000.0001) %MON thSI_Tsrf_ave_G              =  -1.7646619720947E+01
(PID.TID 0000.0001) %MON thSI_Tsrf_ave_S              =  -1.4474682244626E-01
(PID.TID 0000.0001) %MON thSI_Tsrf_ave_N              =  -3.3075143465088E+01
(PID.TID 0000.0001) %MON thSI_Tsrf_min_S              =  -5.4823886117445E+00
(PID.TID 0000.0001) %MON thSI_Tsrf_min_N              =  -4.7502288229849E+01
(PID.TID 0000.0001) %MON thSI_Tsrf_max_S              =   0.0000000000000E+00
(PID.TID 0000.0001) %MON thSI_Tsrf_max_N              =  -6.5212552728971E+00
(PID.TID 0000.0001) %MON thSI_Tic1_ave_G              =  -8.5874793796022E+00
(PID.TID 0000.0001) %MON thSI_Tic1_ave_S              =  -4.9040477742039E+00
(PID.TID 0000.0001) %MON thSI_Tic1_ave_N              =  -1.3967176874874E+01
(PID.TID 0000.0001) %MON thSI_Tic1_min_S              =  -1.4927329233647E+01
(PID.TID 0000.0001) %MON thSI_Tic1_min_N              =  -2.1393169986452E+01
(PID.TID 0000.0001) %MON thSI_Tic1_max_S              =  -1.7179051496676E-01
(PID.TID 0000.0001) %MON thSI_Tic1_max_N              =  -8.2079751036292E-01
(PID.TID 0000.0001) %MON thSI_Tic2_ave_G              =  -3.8867549470127E+00
(PID.TID 0000.0001) %MON thSI_Tic2_ave_S              =  -3.0626041800843E+00
(PID.TID 0000.0001) %MON thSI_Tic2_ave_N              =  -5.0904373528629E+00
(PID.TID 0000.0001) %MON thSI_Tic2_min_S              =  -8.4612722808780E+00
(PID.TID 0000.0001) %MON thSI_Tic2_min_N              =  -7.7895925587691E+00
(PID.TID 0000.0001) %MON thSI_Tic2_max_S              =  -1.0406524748598E+00
(PID.TID 0000.0001) %MON thSI_Tic2_max_N              =  -1.3560400083975E+00
(PID.TID 0000.0001) // =======================================================
(PID.TID 0000.0001) // End MONITOR Therm.SeaIce statistics
(PID.TID 0000.0001) // =======================================================
 cg2d: Sum(rhs),rhsMax =   3.91862659732502E+02  2.30180949183123E+02
(PID.TID 0000.0001)                    cg2d_init_res =    2.69356049202565E+00
(PID.TID 0000.0001)                       cg2d_iters =    70
(PID.TID 0000.0001)                         cg2d_res =    4.86784040597496E-07
(PID.TID 0000.0001) // =======================================================
(PID.TID 0000.0001) // Begin MONITOR dynamic field statistics
(PID.TID 0000.0001) // =======================================================
(PID.TID 0000.0001) %MON time_tsnumber                =                 36013
(PID.TID 0000.0001) %MON time_secondsf                =   3.1115232000000E+09
(PID.TID 0000.0001) %MON dynstat_eta_max              =   7.1776565642308E-01
(PID.TID 0000.0001) %MON dynstat_eta_min              =  -1.1959747485446E+01
(PID.TID 0000.0001) %MON dynstat_eta_mean             =  -5.8283419604393E-01
(PID.TID 0000.0001) %MON dynstat_eta_sd               =   1.6987602313614E+00
(PID.TID 0000.0001) %MON dynstat_eta_del2             =   9.8459182604089E-02
(PID.TID 0000.0001) %MON dynstat_uvel_max             =   1.7410064064954E-01
(PID.TID 0000.0001) %MON dynstat_uvel_min             =  -2.6642872940332E-01
(PID.TID 0000.0001) %MON dynstat_uvel_mean            =  -5.2276016193867E-04
(PID.TID 0000.0001) %MON dynstat_uvel_sd              =   1.2982271293814E-02
(PID.TID 0000.0001) %MON dynstat_uvel_del2            =   1.7894389766750E-03
(PID.TID 0000.0001) %MON dynstat_vvel_max             =   1.9463666281978E-01
(PID.TID 0000.0001) %MON dynstat_vvel_min             =  -2.1148280295822E-01
(PID.TID 0000.0001) %MON dynstat_vvel_mean            =  -4.1882485788850E-04
(PID.TID 0000.0001) %MON dynstat_vvel_sd              =   1.3488871228170E-02
(PID.TID 0000.0001) %MON dynstat_vvel_del2            =   1.8185833031168E-03
(PID.TID 0000.0001) %MON dynstat_wvel_max             =   9.0399966838788E-05
(PID.TID 0000.0001) %MON dynstat_wvel_min             =  -1.7771045207796E-04
(PID.TID 0000.0001) %MON dynstat_wvel_mean            =  -1.0111411274254E-09
(PID.TID 0000.0001) %MON dynstat_wvel_sd              =   4.6261274164320E-06
(PID.TID 0000.0001) %MON dynstat_wvel_del2            =   1.1355972496029E-06
(PID.TID 0000.0001) %MON dynstat_theta_max            =   2.9923108708013E+01
(PID.TID 0000.0001) %MON dynstat_theta_min            =  -3.4591446575808E+00
(PID.TID 0000.0001) %MON dynstat_theta_mean           =   3.5035273646275E+00
(PID.TID 0000.0001) %MON dynstat_theta_sd             =   4.7499783724296E+00
(PID.TID 0000.0001) %MON dynstat_theta_del2           =   9.5499333878926E-02
(PID.TID 0000.0001) %MON dynstat_salt_max             =   4.0838992553004E+01
(PID.TID 0000.0001) %MON dynstat_salt_min             =   1.8038300756510E+01
(PID.TID 0000.0001) %MON dynstat_salt_mean            =   3.4756123421347E+01
(PID.TID 0000.0001) %MON dynstat_salt_sd              =   5.1177498664257E-01
(PID.TID 0000.0001) %MON dynstat_salt_del2            =   2.0040833557293E-02
(PID.TID 0000.0001) %MON extforcing_qnet_max          =   8.0944791161624E+02
(PID.TID 0000.0001) %MON extforcing_qnet_min          =  -2.3441207181721E+02
(PID.TID 0000.0001) %MON extforcing_qnet_mean         =  -4.6218957274032E+00
(PID.TID 0000.0001) %MON extforcing_qnet_sd           =   1.2014139834636E+02
(PID.TID 0000.0001) %MON extforcing_qnet_del2         =   1.2720917024960E+01
(PID.TID 0000.0001) %MON extforcing_qsw_max           =   0.0000000000000E+00
(PID.TID 0000.0001) %MON extforcing_qsw_min           =  -2.6120008132068E+01
(PID.TID 0000.0001) %MON extforcing_qsw_mean          =  -4.4243875106220E-02
(PID.TID 0000.0001) %MON extforcing_qsw_sd            =   8.6975321170089E-01
(PID.TID 0000.0001) %MON extforcing_qsw_del2          =   6.3636696892405E-02
(PID.TID 0000.0001) %MON extforcing_empmr_max         =   4.8194502273731E-07
(PID.TID 0000.0001) %MON extforcing_empmr_min         =  -3.2321591525722E-07
(PID.TID 0000.0001) %MON extforcing_empmr_mean        =   4.5568410182490E-10
(PID.TID 0000.0001) %MON extforcing_empmr_sd          =   5.2203599040229E-08
(PID.TID 0000.0001) %MON extforcing_empmr_del2        =   8.5922134725296E-09
(PID.TID 0000.0001) %MON extforcing_fu_max            =   2.4813468793793E-01
(PID.TID 0000.0001) %MON extforcing_fu_min            =  -2.0889746845507E-01
(PID.TID 0000.0001) %MON extforcing_fu_mean           =  -1.4978072147809E-03
(PID.TID 0000.0001) %MON extforcing_fu_sd             =   6.1856188687448E-02
(PID.TID 0000.0001) %MON extforcing_fu_del2           =   3.5028131025095E-03
(PID.TID 0000.0001) %MON extforcing_fv_max            =   2.8500987930747E-01
(PID.TID 0000.0001) %MON extforcing_fv_min            =  -3.3637477122718E-01
(PID.TID 0000.0001) %MON extforcing_fv_mean           =  -5.4954991092716E-03
(PID.TID 0000.0001) %MON extforcing_fv_sd             =   6.9688298509081E-02
(PID.TID 0000.0001) %MON extforcing_fv_del2           =   3.4395473063931E-03
(PID.TID 0000.0001) %MON advcfl_uvel_max              =   7.5564241461829E-02
(PID.TID 0000.0001) %MON advcfl_vvel_max              =   8.4839379240147E-02
(PID.TID 0000.0001) %MON advcfl_wvel_max              =   5.7940313432209E-02
(PID.TID 0000.0001) %MON advcfl_W_hf_max              =   1.1941515425459E-01
(PID.TID 0000.0001) %MON pe_b_mean                    =  -1.9272423601797E-03
(PID.TID 0000.0001) %MON ke_max                       =   3.5365913047697E-02
(PID.TID 0000.0001) %MON ke_mean                      =   1.6204912574193E-04
(PID.TID 0000.0001) %MON ke_vol                       =   1.3395903735708E+18
(PID.TID 0000.0001) %MON vort_r_min                   =  -1.2687477690139E-06
(PID.TID 0000.0001) %MON vort_r_max                   =   1.4070843756984E-06
(PID.TID 0000.0001) %MON vort_a_mean                  =  -2.0493733748264E-05
(PID.TID 0000.0001) %MON vort_a_sd                    =   7.5054012966049E-05
(PID.TID 0000.0001) %MON vort_p_mean                  =  -2.4719492066615E-05
(PID.TID 0000.0001) %MON vort_p_sd                    =   1.2782296506601E-04
(PID.TID 0000.0001) %MON surfExpan_theta_mean         =   8.5391175644232E-08
(PID.TID 0000.0001) %MON surfExpan_salt_mean          =   1.9483898395205E-08
(PID.TID 0000.0001) // =======================================================
(PID.TID 0000.0001) // End MONITOR dynamic field statistics
(PID.TID 0000.0001) // =======================================================
(PID.TID 0000.0001) // =======================================================
(PID.TID 0000.0001) // Begin MONITOR Therm.SeaIce statistics
(PID.TID 0000.0001) // =======================================================
(PID.TID 0000.0001) %MON thSI_time_sec                =   3.1115232000000E+09
(PID.TID 0000.0001) %MON thSI_Ice_Area_G              =   2.4693097988431E+13
(PID.TID 0000.0001) %MON thSI_Ice_Area_S              =   1.1542748667510E+13
(PID.TID 0000.0001) %MON thSI_Ice_Area_N              =   1.3150349320921E+13
(PID.TID 0000.0001) %MON thSI_IceH_ave_G              =   4.6131737343222E+00
(PID.TID 0000.0001) %MON thSI_IceH_ave_S              =   5.8502555949401E+00
(PID.TID 0000.0001) %MON thSI_IceH_ave_N              =   3.5273223512316E+00
(PID.TID 0000.0001) %MON thSI_IceH_max_S              =   1.0000000000000E+01
(PID.TID 0000.0001) %MON thSI_IceH_max_N              =   1.0000000000000E+01
(PID.TID 0000.0001) %MON thSI_SnwH_ave_G              =   1.0155089934560E+00
(PID.TID 0000.0001) %MON thSI_SnwH_ave_S              =   1.7466582890075E+00
(PID.TID 0000.0001) %MON thSI_SnwH_ave_N              =   3.7374105626877E-01
(PID.TID 0000.0001) %MON thSI_SnwH_max_S              =   4.0932393951409E+00
(PID.TID 0000.0001) %MON thSI_SnwH_max_N              =   4.1046418277259E+00
(PID.TID 0000.0001) %MON thSI_TotEnerg_G              =  -3.8153119400051E+22
(PID.TID 0000.0001) %MON thSI_Tsrf_ave_G              =  -1.7719613531318E+01
(PID.TID 0000.0001) %MON thSI_Tsrf_ave_S              =  -1.2907225534423E-01
(PID.TID 0000.0001) %MON thSI_Tsrf_ave_N              =  -3.3159750665242E+01
(PID.TID 0000.0001) %MON thSI_Tsrf_min_S              =  -5.4983441212318E+00
(PID.TID 0000.0001) %MON thSI_Tsrf_min_N              =  -4.7617389873483E+01
(PID.TID 0000.0001) %MON thSI_Tsrf_max_S              =   0.0000000000000E+00
(PID.TID 0000.0001) %MON thSI_Tsrf_max_N              =  -7.1058691733233E+00
(PID.TID 0000.0001) %MON thSI_Tic1_ave_G              =  -8.6089546704334E+00
(PID.TID 0000.0001) %MON thSI_Tic1_ave_S              =  -4.8828717868054E+00
(PID.TID 0000.0001) %MON thSI_Tic1_ave_N              =  -1.4033385198665E+01
(PID.TID 0000.0001) %MON thSI_Tic1_min_S              =  -1.4793279951492E+01
(PID.TID 0000.0001) %MON thSI_Tic1_min_N              =  -2.1448236485926E+01
(PID.TID 0000.0001) %MON thSI_Tic1_max_S              =  -1.6610512937246E-01
(PID.TID 0000.0001) %MON thSI_Tic1_max_N              =  -8.4318570040142E-01
(PID.TID 0000.0001) %MON thSI_Tic2_ave_G              =  -3.8971005793327E+00
(PID.TID 0000.0001) %MON thSI_Tic2_ave_S              =  -3.0587168752884E+00
(PID.TID 0000.0001) %MON thSI_Tic2_ave_N              =  -5.1176193655820E+00
(PID.TID 0000.0001) %MON thSI_Tic2_min_S              =  -8.4288319573563E+00
(PID.TID 0000.0001) %MON thSI_Tic2_min_N              =  -7.8171743726107E+00
(PID.TID 0000.0001) %MON thSI_Tic2_max_S              =  -9.9198904837667E-01
(PID.TID 0000.0001) %MON thSI_Tic2_max_N              =  -1.3696291512088E+00
(PID.TID 0000.0001) // =======================================================
(PID.TID 0000.0001) // End MONITOR Therm.SeaIce statistics
(PID.TID 0000.0001) // =======================================================
 cg2d: Sum(rhs),rhsMax =   3.91882500613915E+02  2.30293688832054E+02
(PID.TID 0000.0001)                    cg2d_init_res =    2.69281103145664E+00
(PID.TID 0000.0001)                       cg2d_iters =    70
(PID.TID 0000.0001)                         cg2d_res =    4.84259180015902E-07
(PID.TID 0000.0001) // =======================================================
(PID.TID 0000.0001) // Begin MONITOR dynamic field statistics
(PID.TID 0000.0001) // =======================================================
(PID.TID 0000.0001) %MON time_tsnumber                =                 36014
(PID.TID 0000.0001) %MON time_secondsf                =   3.1116096000000E+09
(PID.TID 0000.0001) %MON dynstat_eta_max              =   7.1641159666060E-01
(PID.TID 0000.0001) %MON dynstat_eta_min              =  -1.1956833376040E+01
(PID.TID 0000.0001) %MON dynstat_eta_mean             =  -5.8286370624063E-01
(PID.TID 0000.0001) %MON dynstat_eta_sd               =   1.6983332296072E+00
(PID.TID 0000.0001) %MON dynstat_eta_del2             =   9.8485036860940E-02
(PID.TID 0000.0001) %MON dynstat_uvel_max             =   1.7384463173943E-01
(PID.TID 0000.0001) %MON dynstat_uvel_min             =  -2.6595227849315E-01
(PID.TID 0000.0001) %MON dynstat_uvel_mean            =  -5.2207017583808E-04
(PID.TID 0000.0001) %MON dynstat_uvel_sd              =   1.2982291713552E-02
(PID.TID 0000.0001) %MON dynstat_uvel_del2            =   1.7896119403666E-03
(PID.TID 0000.0001) %MON dynstat_vvel_max             =   1.9434205324066E-01
(PID.TID 0000.0001) %MON dynstat_vvel_min             =  -2.1151698957732E-01
(PID.TID 0000.0001) %MON dynstat_vvel_mean            =  -4.1830314034008E-04
(PID.TID 0000.0001) %MON dynstat_vvel_sd              =   1.3487902099478E-02
(PID.TID 0000.0001) %MON dynstat_vvel_del2            =   1.8177472836816E-03
(PID.TID 0000.0001) %MON dynstat_wvel_max             =   9.1024674791140E-05
(PID.TID 0000.0001) %MON dynstat_wvel_min             =  -1.7749699883753E-04
(PID.TID 0000.0001) %MON dynstat_wvel_mean            =  -1.0271438166372E-09
(PID.TID 0000.0001) %MON dynstat_wvel_sd              =   4.6260576060563E-06
(PID.TID 0000.0001) %MON dynstat_wvel_del2            =   1.1355159679205E-06
(PID.TID 0000.0001) %MON dynstat_theta_max            =   2.9906591496608E+01
(PID.TID 0000.0001) %MON dynstat_theta_min            =  -3.4774067997820E+00
(PID.TID 0000.0001) %MON dynstat_theta_mean           =   3.5035836197074E+00
(PID.TID 0000.0001) %MON dynstat_theta_sd             =   4.7500873608500E+00
(PID.TID 0000.0001) %MON dynstat_theta_del2           =   9.5534194526346E-02
(PID.TID 0000.0001) %MON dynstat_salt_max             =   4.0839854966548E+01
(PID.TID 0000.0001) %MON dynstat_salt_min             =   1.8040956285671E+01
(PID.TID 0000.0001) %MON dynstat_salt_mean            =   3.4756124658860E+01
(PID.TID 0000.0001) %MON dynstat_salt_sd              =   5.1176496977359E-01
(PID.TID 0000.0001) %MON dynstat_salt_del2            =   2.0029863082671E-02
(PID.TID 0000.0001) %MON extforcing_qnet_max          =   8.1253452448095E+02
(PID.TID 0000.0001) %MON extforcing_qnet_min          =  -2.3403805343684E+02
(PID.TID 0000.0001) %MON extforcing_qnet_mean         =  -4.5724721782102E+00
(PID.TID 0000.0001) %MON extforcing_qnet_sd           =   1.2023149935364E+02
(PID.TID 0000.0001) %MON extforcing_qnet_del2         =   1.2765754632845E+01
(PID.TID 0000.0001) %MON extforcing_qsw_max           =   0.0000000000000E+00
(PID.TID 0000.0001) %MON extforcing_qsw_min           =  -2.6120008132068E+01
(PID.TID 0000.0001) %MON extforcing_qsw_mean          =  -4.5482645416487E-02
(PID.TID 0000.0001) %MON extforcing_qsw_sd            =   8.9302590554581E-01
(PID.TID 0000.0001) %MON extforcing_qsw_del2          =   6.5567564013157E-02
(PID.TID 0000.0001) %MON extforcing_empmr_max         =   3.8709872682631E-07
(PID.TID 0000.0001) %MON extforcing_empmr_min         =  -3.2458619482213E-07
(PID.TID 0000.0001) %MON extforcing_empmr_mean        =   3.5350756458763E-10
(PID.TID 0000.0001) %MON extforcing_empmr_sd          =   5.1964576317240E-08
(PID.TID 0000.0001) %MON extforcing_empmr_del2        =   8.5924632093017E-09
(PID.TID 0000.0001) %MON extforcing_fu_max            =   2.4839906243671E-01
(PID.TID 0000.0001) %MON extforcing_fu_min            =  -2.1105082572846E-01
(PID.TID 0000.0001) %MON extforcing_fu_mean           =  -1.5000159135406E-03
(PID.TID 0000.0001) %MON extforcing_fu_sd             =   6.1975901480795E-02
(PID.TID 0000.0001) %MON extforcing_fu_del2           =   3.5288759776386E-03
(PID.TID 0000.0001) %MON extforcing_fv_max            =   2.8769312088010E-01
(PID.TID 0000.0001) %MON extforcing_fv_min            =  -3.3716267516111E-01
(PID.TID 0000.0001) %MON extforcing_fv_mean           =  -5.5566518438056E-03
(PID.TID 0000.0001) %MON extforcing_fv_sd             =   6.9944844149801E-02
(PID.TID 0000.0001) %MON extforcing_fv_del2           =   3.4634871130626E-03
(PID.TID 0000.0001) %MON advcfl_uvel_max              =   7.5429110946055E-02
(PID.TID 0000.0001) %MON advcfl_vvel_max              =   8.4710963075130E-02
(PID.TID 0000.0001) %MON advcfl_wvel_max              =   5.7870719620991E-02
(PID.TID 0000.0001) %MON advcfl_W_hf_max              =   1.1805413470575E-01
(PID.TID 0000.0001) %MON pe_b_mean                    =  -1.9264653141871E-03
(PID.TID 0000.0001) %MON ke_max                       =   3.5228059020411E-02
(PID.TID 0000.0001) %MON ke_mean                      =   1.6203672484432E-04
(PID.TID 0000.0001) %MON ke_vol                       =   1.3395903597287E+18
(PID.TID 0000.0001) %MON vort_r_min                   =  -1.2739621361591E-06
(PID.TID 0000.0001) %MON vort_r_max                   =   1.4100497438241E-06
(PID.TID 0000.0001) %MON vort_a_mean                  =  -2.0493733748264E-05
(PID.TID 0000.0001) %MON vort_a_sd                    =   7.5054012903251E-05
(PID.TID 0000.0001) %MON vort_p_mean                  =  -2.4719491928835E-05
(PID.TID 0000.0001) %MON vort_p_sd                    =   1.2782297436066E-04
(PID.TID 0000.0001) %MON surfExpan_theta_mean         =   8.4935506563857E-08
(PID.TID 0000.0001) %MON surfExpan_salt_mean          =   1.9585654078176E-08
(PID.TID 0000.0001) // =======================================================
(PID.TID 0000.0001) // End MONITOR dynamic field statistics
(PID.TID 0000.0001) // =======================================================
(PID.TID 0000.0001) // =======================================================
(PID.TID 0000.0001) // Begin MONITOR Therm.SeaIce statistics
(PID.TID 0000.0001) // =======================================================
(PID.TID 0000.0001) %MON thSI_time_sec                =   3.1116096000000E+09
(PID.TID 0000.0001) %MON thSI_Ice_Area_G              =   2.4670853228591E+13
(PID.TID 0000.0001) %MON thSI_Ice_Area_S              =   1.1504772552252E+13
(PID.TID 0000.0001) %MON thSI_Ice_Area_N              =   1.3166080676338E+13
(PID.TID 0000.0001) %MON thSI_IceH_ave_G              =   4.6176456062616E+00
(PID.TID 0000.0001) %MON thSI_IceH_ave_S              =   5.8623655132183E+00
(PID.TID 0000.0001) %MON thSI_IceH_ave_N              =   3.5299855977267E+00
(PID.TID 0000.0001) %MON thSI_IceH_max_S              =   1.0000000000000E+01
(PID.TID 0000.0001) %MON thSI_IceH_max_N              =   1.0000000000000E+01
(PID.TID 0000.0001) %MON thSI_SnwH_ave_G              =   1.0133736162495E+00
(PID.TID 0000.0001) %MON thSI_SnwH_ave_S              =   1.7425902385168E+00
(PID.TID 0000.0001) %MON thSI_SnwH_ave_N              =   3.7617021557592E-01
(PID.TID 0000.0001) %MON thSI_SnwH_max_S              =   4.0931806609958E+00
(PID.TID 0000.0001) %MON thSI_SnwH_max_N              =   4.1050123400416E+00
(PID.TID 0000.0001) %MON thSI_TotEnerg_G              =  -3.8149633527958E+22
(PID.TID 0000.0001) %MON thSI_Tsrf_ave_G              =  -1.7819328175817E+01
(PID.TID 0000.0001) %MON thSI_Tsrf_ave_S              =  -1.4860357705705E-01
(PID.TID 0000.0001) %MON thSI_Tsrf_ave_N              =  -3.3260344552664E+01
(PID.TID 0000.0001) %MON thSI_Tsrf_min_S              =  -5.5142622643812E+00
(PID.TID 0000.0001) %MON thSI_Tsrf_min_N              =  -4.7732557758495E+01
(PID.TID 0000.0001) %MON thSI_Tsrf_max_S              =   0.0000000000000E+00
(PID.TID 0000.0001) %MON thSI_Tsrf_max_N              =  -7.4675887831418E+00
(PID.TID 0000.0001) %MON thSI_Tic1_ave_G              =  -8.6286521651423E+00
(PID.TID 0000.0001) %MON thSI_Tic1_ave_S              =  -4.8590541339258E+00
(PID.TID 0000.0001) %MON thSI_Tic1_ave_N              =  -1.4099019957610E+01
(PID.TID 0000.0001) %MON thSI_Tic1_min_S              =  -1.4660759552079E+01
(PID.TID 0000.0001) %MON thSI_Tic1_min_N              =  -2.1501494758735E+01
(PID.TID 0000.0001) %MON thSI_Tic1_max_S              =  -1.6076489411265E-01
(PID.TID 0000.0001) %MON thSI_Tic1_max_N              =  -8.6660164922037E-01
(PID.TID 0000.0001) %MON thSI_Tic2_ave_G              =  -3.9073639061788E+00
(PID.TID 0000.0001) %MON thSI_Tic2_ave_S              =  -3.0548053717126E+00
(PID.TID 0000.0001) %MON thSI_Tic2_ave_N              =  -5.1445803705115E+00
(PID.TID 0000.0001) %MON thSI_Tic2_min_S              =  -8.3951640275123E+00
(PID.TID 0000.0001) %MON thSI_Tic2_min_N              =  -7.8438854504291E+00
(PID.TID 0000.0001) %MON thSI_Tic2_max_S              =  -9.4404678259514E-01
(PID.TID 0000.0001) %MON thSI_Tic2_max_N              =  -1.3827856146806E+00
(PID.TID 0000.0001) // =======================================================
(PID.TID 0000.0001) // End MONITOR Therm.SeaIce statistics
(PID.TID 0000.0001) // =======================================================
 cg2d: Sum(rhs),rhsMax =   3.91897815976036E+02  2.30405838965747E+02
(PID.TID 0000.0001)                    cg2d_init_res =    2.65438850473714E+00
(PID.TID 0000.0001)                       cg2d_iters =    70
(PID.TID 0000.0001)                         cg2d_res =    4.77080585859974E-07
(PID.TID 0000.0001) // =======================================================
(PID.TID 0000.0001) // Begin MONITOR dynamic field statistics
(PID.TID 0000.0001) // =======================================================
(PID.TID 0000.0001) %MON time_tsnumber                =                 36015
(PID.TID 0000.0001) %MON time_secondsf                =   3.1116960000000E+09
(PID.TID 0000.0001) %MON dynstat_eta_max              =   7.1508329308325E-01
(PID.TID 0000.0001) %MON dynstat_eta_min              =  -1.1953767092367E+01
(PID.TID 0000.0001) %MON dynstat_eta_mean             =  -5.8288648543775E-01
(PID.TID 0000.0001) %MON dynstat_eta_sd               =   1.6979016276731E+00
(PID.TID 0000.0001) %MON dynstat_eta_del2             =   9.8510574593892E-02
(PID.TID 0000.0001) %MON dynstat_uvel_max             =   1.7355008787081E-01
(PID.TID 0000.0001) %MON dynstat_uvel_min             =  -2.6546223893234E-01
(PID.TID 0000.0001) %MON dynstat_uvel_mean            =  -5.2132460650228E-04
(PID.TID 0000.0001) %MON dynstat_uvel_sd              =   1.2982464633736E-02
(PID.TID 0000.0001) %MON dynstat_uvel_del2            =   1.7898011985273E-03
(PID.TID 0000.0001) %MON dynstat_vvel_max             =   1.9399672005330E-01
(PID.TID 0000.0001) %MON dynstat_vvel_min             =  -2.1154653323061E-01
(PID.TID 0000.0001) %MON dynstat_vvel_mean            =  -4.1779183430485E-04
(PID.TID 0000.0001) %MON dynstat_vvel_sd              =   1.3486576066192E-02
(PID.TID 0000.0001) %MON dynstat_vvel_del2            =   1.8169147324295E-03
(PID.TID 0000.0001) %MON dynstat_wvel_max             =   9.1594697880529E-05
(PID.TID 0000.0001) %MON dynstat_wvel_min             =  -1.7726451518133E-04
(PID.TID 0000.0001) %MON dynstat_wvel_mean            =  -1.0241355762809E-09
(PID.TID 0000.0001) %MON dynstat_wvel_sd              =   4.6259774748696E-06
(PID.TID 0000.0001) %MON dynstat_wvel_del2            =   1.1354631164647E-06
(PID.TID 0000.0001) %MON dynstat_theta_max            =   2.9893186902155E+01
(PID.TID 0000.0001) %MON dynstat_theta_min            =  -3.4956353599546E+00
(PID.TID 0000.0001) %MON dynstat_theta_mean           =   3.5036397789745E+00
(PID.TID 0000.0001) %MON dynstat_theta_sd             =   4.7502021510277E+00
(PID.TID 0000.0001) %MON dynstat_theta_del2           =   9.5536656153330E-02
(PID.TID 0000.0001) %MON dynstat_salt_max             =   4.0840589502765E+01
(PID.TID 0000.0001) %MON dynstat_salt_min             =   1.8093820668867E+01
(PID.TID 0000.0001) %MON dynstat_salt_mean            =   3.4756125864483E+01
(PID.TID 0000.0001) %MON dynstat_salt_sd              =   5.1175567802613E-01
(PID.TID 0000.0001) %MON dynstat_salt_del2            =   2.0021825151374E-02
(PID.TID 0000.0001) %MON extforcing_qnet_max          =   8.1560777051401E+02
(PID.TID 0000.0001) %MON extforcing_qnet_min          =  -2.3366571546266E+02
(PID.TID 0000.0001) %MON extforcing_qnet_mean         =  -4.5643025204655E+00
(PID.TID 0000.0001) %MON extforcing_qnet_sd           =   1.2029125095736E+02
(PID.TID 0000.0001) %MON extforcing_qnet_del2         =   1.2828178931373E+01
(PID.TID 0000.0001) %MON extforcing_qsw_max           =   0.0000000000000E+00
(PID.TID 0000.0001) %MON extforcing_qsw_min           =  -2.6120008132068E+01
(PID.TID 0000.0001) %MON extforcing_qsw_mean          =  -4.8463393442988E-02
(PID.TID 0000.0001) %MON extforcing_qsw_sd            =   9.2298296906536E-01
(PID.TID 0000.0001) %MON extforcing_qsw_del2          =   7.0558428957119E-02
(PID.TID 0000.0001) %MON extforcing_empmr_max         =   3.8740748479752E-07
(PID.TID 0000.0001) %MON extforcing_empmr_min         =  -3.2480520636798E-07
(PID.TID 0000.0001) %MON extforcing_empmr_mean        =   2.7287579880554E-10
(PID.TID 0000.0001) %MON extforcing_empmr_sd          =   5.1763677369925E-08
(PID.TID 0000.0001) %MON extforcing_empmr_del2        =   8.5846751863826E-09
(PID.TID 0000.0001) %MON extforcing_fu_max            =   2.4866343693550E-01
(PID.TID 0000.0001) %MON extforcing_fu_min            =  -2.1320418300184E-01
(PID.TID 0000.0001) %MON extforcing_fu_mean           =  -1.5022245819061E-03
(PID.TID 0000.0001) %MON extforcing_fu_sd             =   6.2107824604570E-02
(PID.TID 0000.0001) %MON extforcing_fu_del2           =   3.5566378701449E-03
(PID.TID 0000.0001) %MON extforcing_fv_max            =   2.9037636245273E-01
(PID.TID 0000.0001) %MON extforcing_fv_min            =  -3.3795057909504E-01
(PID.TID 0000.0001) %MON extforcing_fv_mean           =  -5.6178044692150E-03
(PID.TID 0000.0001) %MON extforcing_fv_sd             =   7.0208786612902E-02
(PID.TID 0000.0001) %MON extforcing_fv_del2           =   3.4895232834299E-03
(PID.TID 0000.0001) %MON advcfl_uvel_max              =   7.5290126431203E-02
(PID.TID 0000.0001) %MON advcfl_vvel_max              =   8.4560437203889E-02
(PID.TID 0000.0001) %MON advcfl_wvel_max              =   5.7794921176103E-02
(PID.TID 0000.0001) %MON advcfl_W_hf_max              =   1.1664438082366E-01
(PID.TID 0000.0001) %MON pe_b_mean                    =  -1.9257002159072E-03
(PID.TID 0000.0001) %MON ke_max                       =   3.5087683931956E-02
(PID.TID 0000.0001) %MON ke_mean                      =   1.6202165577564E-04
(PID.TID 0000.0001) %MON ke_vol                       =   1.3395903489903E+18
(PID.TID 0000.0001) %MON vort_r_min                   =  -1.2791405303058E-06
(PID.TID 0000.0001) %MON vort_r_max                   =   1.4127783426042E-06
(PID.TID 0000.0001) %MON vort_a_mean                  =  -2.0493733748264E-05
(PID.TID 0000.0001) %MON vort_a_sd                    =   7.5054012844484E-05
(PID.TID 0000.0001) %MON vort_p_mean                  =  -2.4719491744862E-05
(PID.TID 0000.0001) %MON vort_p_sd                    =   1.2782298243701E-04
(PID.TID 0000.0001) %MON surfExpan_theta_mean         =   8.4191033843202E-08
(PID.TID 0000.0001) %MON surfExpan_salt_mean          =   1.9615455504908E-08
(PID.TID 0000.0001) // =======================================================
(PID.TID 0000.0001) // End MONITOR dynamic field statistics
(PID.TID 0000.0001) // =======================================================
(PID.TID 0000.0001) // =======================================================
(PID.TID 0000.0001) // Begin MONITOR Therm.SeaIce statistics
(PID.TID 0000.0001) // =======================================================
(PID.TID 0000.0001) %MON thSI_time_sec                =   3.1116960000000E+09
(PID.TID 0000.0001) %MON thSI_Ice_Area_G              =   2.4644471818314E+13
(PID.TID 0000.0001) %MON thSI_Ice_Area_S              =   1.1464748788666E+13
(PID.TID 0000.0001) %MON thSI_Ice_Area_N              =   1.3179723029649E+13
(PID.TID 0000.0001) %MON thSI_IceH_ave_G              =   4.6227655614070E+00
(PID.TID 0000.0001) %MON thSI_IceH_ave_S              =   5.8755796992069E+00
(PID.TID 0000.0001) %MON thSI_IceH_ave_N              =   3.5329703254636E+00
(PID.TID 0000.0001) %MON thSI_IceH_max_S              =   1.0000000000000E+01
(PID.TID 0000.0001) %MON thSI_IceH_max_N              =   1.0000000000000E+01
(PID.TID 0000.0001) %MON thSI_SnwH_ave_G              =   1.0114772475921E+00
(PID.TID 0000.0001) %MON thSI_SnwH_ave_S              =   1.7389674957043E+00
(PID.TID 0000.0001) %MON thSI_SnwH_ave_N              =   3.7864961365424E-01
(PID.TID 0000.0001) %MON thSI_SnwH_max_S              =   4.0931246447448E+00
(PID.TID 0000.0001) %MON thSI_SnwH_max_N              =   4.1053878721092E+00
(PID.TID 0000.0001) %MON thSI_TotEnerg_G              =  -3.8145381787483E+22
(PID.TID 0000.0001) %MON thSI_Tsrf_ave_G              =  -1.7899798471532E+01
(PID.TID 0000.0001) %MON thSI_Tsrf_ave_S              =  -1.3202247122248E-01
(PID.TID 0000.0001) %MON thSI_Tsrf_ave_N              =  -3.3355592794265E+01
(PID.TID 0000.0001) %MON thSI_Tsrf_min_S              =  -5.5301433623121E+00
(PID.TID 0000.0001) %MON thSI_Tsrf_min_N              =  -4.7847792955431E+01
(PID.TID 0000.0001) %MON thSI_Tsrf_max_S              =   0.0000000000000E+00
(PID.TID 0000.0001) %MON thSI_Tsrf_max_N              =  -7.7287994425479E+00
(PID.TID 0000.0001) %MON thSI_Tic1_ave_G              =  -8.6502587256679E+00
(PID.TID 0000.0001) %MON thSI_Tic1_ave_S              =  -4.8390181393818E+00
(PID.TID 0000.0001) %MON thSI_Tic1_ave_N              =  -1.4163859998020E+01
(PID.TID 0000.0001) %MON thSI_Tic1_min_S              =  -1.4529751417028E+01
(PID.TID 0000.0001) %MON thSI_Tic1_min_N              =  -2.1566733172161E+01
(PID.TID 0000.0001) %MON thSI_Tic1_max_S              =  -1.5574046078877E-01
(PID.TID 0000.0001) %MON thSI_Tic1_max_N              =  -8.9110066298344E-01
(PID.TID 0000.0001) %MON thSI_Tic2_ave_G              =  -3.9175513578089E+00
(PID.TID 0000.0001) %MON thSI_Tic2_ave_S              =  -3.0509972278610E+00
(PID.TID 0000.0001) %MON thSI_Tic2_ave_N              =  -5.1711678234380E+00
(PID.TID 0000.0001) %MON thSI_Tic2_min_S              =  -8.3614740821464E+00
(PID.TID 0000.0001) %MON thSI_Tic2_min_N              =  -7.8697529071981E+00
(PID.TID 0000.0001) %MON thSI_Tic2_max_S              =  -1.0341015363109E+00
(PID.TID 0000.0001) %MON thSI_Tic2_max_N              =  -1.3955466910590E+00
(PID.TID 0000.0001) // =======================================================
(PID.TID 0000.0001) // End MONITOR Therm.SeaIce statistics
(PID.TID 0000.0001) // =======================================================
S/R BULKF_FIELDS_LOAD: Reading new data:    1    2     36015  3.111696000000E+09
(PID.TID 0000.0001)  MDS_READ_FIELD: opening global file: ncep_tair_cs.bin
(PID.TID 0000.0001)  MDS_READ_FIELD: opening global file: ncep_tair_cs.bin
(PID.TID 0000.0001)  MDS_READ_FIELD: opening global file: ncep_qair_cs.bin
(PID.TID 0000.0001)  MDS_READ_FIELD: opening global file: ncep_qair_cs.bin
(PID.TID 0000.0001)  MDS_READ_FIELD: opening global file: ncep_downsolar_cs.bin
(PID.TID 0000.0001)  MDS_READ_FIELD: opening global file: ncep_downsolar_cs.bin
(PID.TID 0000.0001)  MDS_READ_FIELD: opening global file: ncep_downlw_cs.bin
(PID.TID 0000.0001)  MDS_READ_FIELD: opening global file: ncep_downlw_cs.bin
(PID.TID 0000.0001)  MDS_READ_FIELD: opening global file: ncep_windspeed_cs.bin
(PID.TID 0000.0001)  MDS_READ_FIELD: opening global file: ncep_windspeed_cs.bin
(PID.TID 0000.0001)  MDS_READ_FIELD: opening global file: ncep_pr_scal_cs.bin
(PID.TID 0000.0001)  MDS_READ_FIELD: opening global file: ncep_pr_scal_cs.bin
S/R EXTERNAL_FIELDS_LOAD: Reading new data:    1    2     36015  3.111696000000E+09
(PID.TID 0000.0001)  MDS_READ_FIELD: opening global file: trenberth_taux.bin
(PID.TID 0000.0001)  MDS_READ_FIELD: opening global file: trenberth_taux.bin
(PID.TID 0000.0001)  MDS_READ_FIELD: opening global file: trenberth_tauy.bin
(PID.TID 0000.0001)  MDS_READ_FIELD: opening global file: trenberth_tauy.bin
(PID.TID 0000.0001)  MDS_READ_FIELD: opening global file: lev_surfT_cs_12m.bin
(PID.TID 0000.0001)  MDS_READ_FIELD: opening global file: lev_surfT_cs_12m.bin
(PID.TID 0000.0001)  MDS_READ_FIELD: opening global file: lev_surfS_cs_12m.bin
(PID.TID 0000.0001)  MDS_READ_FIELD: opening global file: lev_surfS_cs_12m.bin
 cg2d: Sum(rhs),rhsMax =   3.91910286398344E+02  2.30515745387243E+02
(PID.TID 0000.0001)                    cg2d_init_res =    2.61420493768220E+00
(PID.TID 0000.0001)                       cg2d_iters =    70
(PID.TID 0000.0001)                         cg2d_res =    4.62088059087952E-07
(PID.TID 0000.0001) // =======================================================
(PID.TID 0000.0001) // Begin MONITOR dynamic field statistics
(PID.TID 0000.0001) // =======================================================
(PID.TID 0000.0001) %MON time_tsnumber                =                 36016
(PID.TID 0000.0001) %MON time_secondsf                =   3.1117824000000E+09
(PID.TID 0000.0001) %MON dynstat_eta_max              =   7.1379063753326E-01
(PID.TID 0000.0001) %MON dynstat_eta_min              =  -1.1950556559998E+01
(PID.TID 0000.0001) %MON dynstat_eta_mean             =  -5.8290503323346E-01
(PID.TID 0000.0001) %MON dynstat_eta_sd               =   1.6974587060870E+00
(PID.TID 0000.0001) %MON dynstat_eta_del2             =   9.8540941996246E-02
(PID.TID 0000.0001) %MON dynstat_uvel_max             =   1.7322287967305E-01
(PID.TID 0000.0001) %MON dynstat_uvel_min             =  -2.6495856745658E-01
(PID.TID 0000.0001) %MON dynstat_uvel_mean            =  -5.2053986956946E-04
(PID.TID 0000.0001) %MON dynstat_uvel_sd              =   1.2982763502158E-02
(PID.TID 0000.0001) %MON dynstat_uvel_del2            =   1.7899906481392E-03
(PID.TID 0000.0001) %MON dynstat_vvel_max             =   1.9360462138478E-01
(PID.TID 0000.0001) %MON dynstat_vvel_min             =  -2.1157163960639E-01
(PID.TID 0000.0001) %MON dynstat_vvel_mean            =  -4.1727056224521E-04
(PID.TID 0000.0001) %MON dynstat_vvel_sd              =   1.3484933649587E-02
(PID.TID 0000.0001) %MON dynstat_vvel_del2            =   1.8161662497414E-03
(PID.TID 0000.0001) %MON dynstat_wvel_max             =   9.2112625684919E-05
(PID.TID 0000.0001) %MON dynstat_wvel_min             =  -1.7702392713304E-04
(PID.TID 0000.0001) %MON dynstat_wvel_mean            =  -1.0149217865594E-09
(PID.TID 0000.0001) %MON dynstat_wvel_sd              =   4.6258552002406E-06
(PID.TID 0000.0001) %MON dynstat_wvel_del2            =   1.1355492530669E-06
(PID.TID 0000.0001) %MON dynstat_theta_max            =   2.9879657127038E+01
(PID.TID 0000.0001) %MON dynstat_theta_min            =  -3.5138068131960E+00
(PID.TID 0000.0001) %MON dynstat_theta_mean           =   3.5036955735354E+00
(PID.TID 0000.0001) %MON dynstat_theta_sd             =   4.7503217280948E+00
(PID.TID 0000.0001) %MON dynstat_theta_del2           =   9.5583638938056E-02
(PID.TID 0000.0001) %MON dynstat_salt_max             =   4.0841197639623E+01
(PID.TID 0000.0001) %MON dynstat_salt_min             =   1.8095244593324E+01
(PID.TID 0000.0001) %MON dynstat_salt_mean            =   3.4756127048373E+01
(PID.TID 0000.0001) %MON dynstat_salt_sd              =   5.1174675533172E-01
(PID.TID 0000.0001) %MON dynstat_salt_del2            =   2.0024752811124E-02
(PID.TID 0000.0001) %MON extforcing_qnet_max          =   8.1866602280956E+02
(PID.TID 0000.0001) %MON extforcing_qnet_min          =  -2.3329501600486E+02
(PID.TID 0000.0001) %MON extforcing_qnet_mean         =  -4.5359774750673E+00
(PID.TID 0000.0001) %MON extforcing_qnet_sd           =   1.2041214792547E+02
(PID.TID 0000.0001) %MON extforcing_qnet_del2         =   1.2920591696629E+01
(PID.TID 0000.0001) %MON extforcing_qsw_max           =   0.0000000000000E+00
(PID.TID 0000.0001) %MON extforcing_qsw_min           =  -2.6120008132068E+01
(PID.TID 0000.0001) %MON extforcing_qsw_mean          =  -5.3634493512472E-02
(PID.TID 0000.0001) %MON extforcing_qsw_sd            =   9.6667027249988E-01
(PID.TID 0000.0001) %MON extforcing_qsw_del2          =   7.6846389700112E-02
(PID.TID 0000.0001) %MON extforcing_empmr_max         =   3.8772292413426E-07
(PID.TID 0000.0001) %MON extforcing_empmr_min         =  -3.2395438407823E-07
(PID.TID 0000.0001) %MON extforcing_empmr_mean        =   2.2218713615601E-10
(PID.TID 0000.0001) %MON extforcing_empmr_sd          =   5.1506758394960E-08
(PID.TID 0000.0001) %MON extforcing_empmr_del2        =   8.5720536232701E-09
(PID.TID 0000.0001) %MON extforcing_fu_max            =   2.4892781143428E-01
(PID.TID 0000.0001) %MON extforcing_fu_min            =  -2.1535754027523E-01
(PID.TID 0000.0001) %MON extforcing_fu_mean           =  -1.5044331853072E-03
(PID.TID 0000.0001) %MON extforcing_fu_sd             =   6.2251880471857E-02
(PID.TID 0000.0001) %MON extforcing_fu_del2           =   3.5863906188079E-03
(PID.TID 0000.0001) %MON extforcing_fv_max            =   2.9305960402537E-01
(PID.TID 0000.0001) %MON extforcing_fv_min            =  -3.3950131228473E-01
(PID.TID 0000.0001) %MON extforcing_fv_mean           =  -5.6789570197289E-03
(PID.TID 0000.0001) %MON extforcing_fv_sd             =   7.0480042793292E-02
(PID.TID 0000.0001) %MON extforcing_fv_del2           =   3.5172812437129E-03
(PID.TID 0000.0001) %MON advcfl_uvel_max              =   7.5147275646691E-02
(PID.TID 0000.0001) %MON advcfl_vvel_max              =   8.4389526918251E-02
(PID.TID 0000.0001) %MON advcfl_wvel_max              =   5.7716480393565E-02
(PID.TID 0000.0001) %MON advcfl_W_hf_max              =   1.1518770934251E-01
(PID.TID 0000.0001) %MON pe_b_mean                    =  -1.9249218878694E-03
(PID.TID 0000.0001) %MON ke_max                       =   3.4944823679524E-02
(PID.TID 0000.0001) %MON ke_mean                      =   1.6200411006038E-04
(PID.TID 0000.0001) %MON ke_vol                       =   1.3395903407012E+18
(PID.TID 0000.0001) %MON vort_r_min                   =  -1.2842596319783E-06
(PID.TID 0000.0001) %MON vort_r_max                   =   1.4152294702458E-06
(PID.TID 0000.0001) %MON vort_a_mean                  =  -2.0493733748264E-05
(PID.TID 0000.0001) %MON vort_a_sd                    =   7.5054012791180E-05
(PID.TID 0000.0001) %MON vort_p_mean                  =  -2.4719491527309E-05
(PID.TID 0000.0001) %MON vort_p_sd                    =   1.2782298923729E-04
(PID.TID 0000.0001) %MON surfExpan_theta_mean         =   8.3568841269803E-08
(PID.TID 0000.0001) %MON surfExpan_salt_mean          =   1.9608546784204E-08
(PID.TID 0000.0001) // =======================================================
(PID.TID 0000.0001) // End MONITOR dynamic field statistics
(PID.TID 0000.0001) // =======================================================
(PID.TID 0000.0001) // =======================================================
(PID.TID 0000.0001) // Begin MONITOR Therm.SeaIce statistics
(PID.TID 0000.0001) // =======================================================
(PID.TID 0000.0001) %MON thSI_time_sec                =   3.1117824000000E+09
(PID.TID 0000.0001) %MON thSI_Ice_Area_G              =   2.4621685797058E+13
(PID.TID 0000.0001) %MON thSI_Ice_Area_S              =   1.1430113724677E+13
(PID.TID 0000.0001) %MON thSI_Ice_Area_N              =   1.3191572072381E+13
(PID.TID 0000.0001) %MON thSI_IceH_ave_G              =   4.6270994024612E+00
(PID.TID 0000.0001) %MON thSI_IceH_ave_S              =   5.8861078825949E+00
(PID.TID 0000.0001) %MON thSI_IceH_ave_N              =   3.5362051535194E+00
(PID.TID 0000.0001) %MON thSI_IceH_max_S              =   1.0000000000000E+01
(PID.TID 0000.0001) %MON thSI_IceH_max_N              =   1.0000000000000E+01
(PID.TID 0000.0001) %MON thSI_SnwH_ave_G              =   1.0095502865969E+00
(PID.TID 0000.0001) %MON thSI_SnwH_ave_S              =   1.7347786368962E+00
(PID.TID 0000.0001) %MON thSI_SnwH_ave_N              =   3.8116100328803E-01
(PID.TID 0000.0001) %MON thSI_SnwH_max_S              =   4.0930708202278E+00
(PID.TID 0000.0001) %MON thSI_SnwH_max_N              =   4.1057642789059E+00
(PID.TID 0000.0001) %MON thSI_TotEnerg_G              =  -3.8140323008987E+22
(PID.TID 0000.0001) %MON thSI_Tsrf_ave_G              =  -1.7991918450475E+01
(PID.TID 0000.0001) %MON thSI_Tsrf_ave_S              =  -1.5255255125162E-01
(PID.TID 0000.0001) %MON thSI_Tsrf_ave_N              =  -3.3449210415787E+01
(PID.TID 0000.0001) %MON thSI_Tsrf_min_S              =  -5.5459877382033E+00
(PID.TID 0000.0001) %MON thSI_Tsrf_min_N              =  -4.7963096485523E+01
(PID.TID 0000.0001) %MON thSI_Tsrf_max_S              =   0.0000000000000E+00
(PID.TID 0000.0001) %MON thSI_Tsrf_max_N              =  -7.9484157014070E+00
(PID.TID 0000.0001) %MON thSI_Tic1_ave_G              =  -8.6695744843772E+00
(PID.TID 0000.0001) %MON thSI_Tic1_ave_S              =  -4.8158094031333E+00
(PID.TID 0000.0001) %MON thSI_Tic1_ave_N              =  -1.4227721106874E+01
(PID.TID 0000.0001) %MON thSI_Tic1_min_S              =  -1.4400238971299E+01
(PID.TID 0000.0001) %MON thSI_Tic1_min_N              =  -2.1666976307324E+01
(PID.TID 0000.0001) %MON thSI_Tic1_max_S              =  -1.5100604920100E-01
(PID.TID 0000.0001) %MON thSI_Tic1_max_N              =  -9.1674086823824E-01
(PID.TID 0000.0001) %MON thSI_Tic2_ave_G              =  -3.9274957335241E+00
(PID.TID 0000.0001) %MON thSI_Tic2_ave_S              =  -3.0469915716089E+00
(PID.TID 0000.0001) %MON thSI_Tic2_ave_N              =  -5.1974151838459E+00
(PID.TID 0000.0001) %MON thSI_Tic2_min_S              =  -8.3266001862834E+00
(PID.TID 0000.0001) %MON thSI_Tic2_min_N              =  -7.8948031209807E+00
(PID.TID 0000.0001) %MON thSI_Tic2_max_S              =  -1.0053961531495E+00
(PID.TID 0000.0001) %MON thSI_Tic2_max_N              =  -1.4079575403156E+00
(PID.TID 0000.0001) // =======================================================
(PID.TID 0000.0001) // End MONITOR Therm.SeaIce statistics
(PID.TID 0000.0001) // =======================================================
 cg2d: Sum(rhs),rhsMax =   3.91934702949605E+02  2.30622711770292E+02
(PID.TID 0000.0001)                    cg2d_init_res =    2.59981572742697E+00
(PID.TID 0000.0001)                       cg2d_iters =    69
(PID.TID 0000.0001)                         cg2d_res =    5.78608690469341E-07
(PID.TID 0000.0001) // =======================================================
(PID.TID 0000.0001) // Begin MONITOR dynamic field statistics
(PID.TID 0000.0001) // =======================================================
(PID.TID 0000.0001) %MON time_tsnumber                =                 36017
(PID.TID 0000.0001) %MON time_secondsf                =   3.1118688000000E+09
(PID.TID 0000.0001) %MON dynstat_eta_max              =   7.1262932044360E-01
(PID.TID 0000.0001) %MON dynstat_eta_min              =  -1.1947456142271E+01
(PID.TID 0000.0001) %MON dynstat_eta_mean             =  -5.8294134902082E-01
(PID.TID 0000.0001) %MON dynstat_eta_sd               =   1.6970568598180E+00
(PID.TID 0000.0001) %MON dynstat_eta_del2             =   9.8574233006064E-02
(PID.TID 0000.0001) %MON dynstat_uvel_max             =   1.7292307127210E-01
(PID.TID 0000.0001) %MON dynstat_uvel_min             =  -2.6444552285961E-01
(PID.TID 0000.0001) %MON dynstat_uvel_mean            =  -5.1974179255792E-04
(PID.TID 0000.0001) %MON dynstat_uvel_sd              =   1.2983258027673E-02
(PID.TID 0000.0001) %MON dynstat_uvel_del2            =   1.7902365571624E-03
(PID.TID 0000.0001) %MON dynstat_vvel_max             =   1.9316912461034E-01
(PID.TID 0000.0001) %MON dynstat_vvel_min             =  -2.1158535548281E-01
(PID.TID 0000.0001) %MON dynstat_vvel_mean            =  -4.1674676242330E-04
(PID.TID 0000.0001) %MON dynstat_vvel_sd              =   1.3482666099823E-02
(PID.TID 0000.0001) %MON dynstat_vvel_del2            =   1.8154726370191E-03
(PID.TID 0000.0001) %MON dynstat_wvel_max             =   9.2578246283279E-05
(PID.TID 0000.0001) %MON dynstat_wvel_min             =  -1.7677610409174E-04
(PID.TID 0000.0001) %MON dynstat_wvel_mean            =  -9.6575315041812E-10
(PID.TID 0000.0001) %MON dynstat_wvel_sd              =   4.6256470113108E-06
(PID.TID 0000.0001) %MON dynstat_wvel_del2            =   1.1356997541425E-06
(PID.TID 0000.0001) %MON dynstat_theta_max            =   2.9866154788614E+01
(PID.TID 0000.0001) %MON dynstat_theta_min            =  -3.5319769489419E+00
(PID.TID 0000.0001) %MON dynstat_theta_mean           =   3.5037523224286E+00
(PID.TID 0000.0001) %MON dynstat_theta_sd             =   4.7504516307177E+00
(PID.TID 0000.0001) %MON dynstat_theta_del2           =   9.5644432889382E-02
(PID.TID 0000.0001) %MON dynstat_salt_max             =   4.0841687624977E+01
(PID.TID 0000.0001) %MON dynstat_salt_min             =   1.8096662343859E+01
(PID.TID 0000.0001) %MON dynstat_salt_mean            =   3.4756128400724E+01
(PID.TID 0000.0001) %MON dynstat_salt_sd              =   5.1173774638897E-01
(PID.TID 0000.0001) %MON dynstat_salt_del2            =   2.0023497734715E-02
(PID.TID 0000.0001) %MON extforcing_qnet_max          =   8.1172255529713E+02
(PID.TID 0000.0001) %MON extforcing_qnet_min          =  -2.3175166108822E+02
(PID.TID 0000.0001) %MON extforcing_qnet_mean         =  -4.6744430979429E+00
(PID.TID 0000.0001) %MON extforcing_qnet_sd           =   1.1832124474119E+02
(PID.TID 0000.0001) %MON extforcing_qnet_del2         =   1.2796480983242E+01
(PID.TID 0000.0001) %MON extforcing_qsw_max           =   0.0000000000000E+00
(PID.TID 0000.0001) %MON extforcing_qsw_min           =  -2.6120008132068E+01
(PID.TID 0000.0001) %MON extforcing_qsw_mean          =  -5.7739164994971E-02
(PID.TID 0000.0001) %MON extforcing_qsw_sd            =   1.0161982152194E+00
(PID.TID 0000.0001) %MON extforcing_qsw_del2          =   8.2873162192746E-02
(PID.TID 0000.0001) %MON extforcing_empmr_max         =   3.8792515144775E-07
(PID.TID 0000.0001) %MON extforcing_empmr_min         =  -3.2033399013032E-07
(PID.TID 0000.0001) %MON extforcing_empmr_mean        =   4.3503286937531E-10
(PID.TID 0000.0001) %MON extforcing_empmr_sd          =   5.1418672583813E-08
(PID.TID 0000.0001) %MON extforcing_empmr_del2        =   8.5895345418245E-09
(PID.TID 0000.0001) %MON extforcing_fu_max            =   2.4586080052368E-01
(PID.TID 0000.0001) %MON extforcing_fu_min            =  -2.1357997216533E-01
(PID.TID 0000.0001) %MON extforcing_fu_mean           =  -1.5675393839021E-03
(PID.TID 0000.0001) %MON extforcing_fu_sd             =   6.2042031212961E-02
(PID.TID 0000.0001) %MON extforcing_fu_del2           =   3.5486979008902E-03
(PID.TID 0000.0001) %MON extforcing_fv_max            =   2.9225622243089E-01
(PID.TID 0000.0001) %MON extforcing_fv_min            =  -3.3606226010595E-01
(PID.TID 0000.0001) %MON extforcing_fv_mean           =  -5.5267952712714E-03
(PID.TID 0000.0001) %MON extforcing_fv_sd             =   7.0068321293517E-02
(PID.TID 0000.0001) %MON extforcing_fv_del2           =   3.4842187020941E-03
(PID.TID 0000.0001) %MON advcfl_uvel_max              =   7.5001766467210E-02
(PID.TID 0000.0001) %MON advcfl_vvel_max              =   8.4199700009645E-02
(PID.TID 0000.0001) %MON advcfl_wvel_max              =   5.7635680730288E-02
(PID.TID 0000.0001) %MON advcfl_W_hf_max              =   1.1368387808300E-01
(PID.TID 0000.0001) %MON pe_b_mean                    =  -1.9243358575420E-03
(PID.TID 0000.0001) %MON ke_max                       =   3.4801868122378E-02
(PID.TID 0000.0001) %MON ke_mean                      =   1.6198107355848E-04
(PID.TID 0000.0001) %MON ke_vol                       =   1.3395903339519E+18
(PID.TID 0000.0001) %MON vort_r_min                   =  -1.2891245509066E-06
(PID.TID 0000.0001) %MON vort_r_max                   =   1.4171609017717E-06
(PID.TID 0000.0001) %MON vort_a_mean                  =  -2.0493733748264E-05
(PID.TID 0000.0001) %MON vort_a_sd                    =   7.5054012749073E-05
(PID.TID 0000.0001) %MON vort_p_mean                  =  -2.4719491292334E-05
(PID.TID 0000.0001) %MON vort_p_sd                    =   1.2782299505587E-04
(PID.TID 0000.0001) %MON surfExpan_theta_mean         =   8.2570324664457E-08
(PID.TID 0000.0001) %MON surfExpan_salt_mean          =   1.9505414725455E-08
(PID.TID 0000.0001) // =======================================================
(PID.TID 0000.0001) // End MONITOR dynamic field statistics
(PID.TID 0000.0001) // =======================================================
(PID.TID 0000.0001) // =======================================================
(PID.TID 0000.0001) // Begin MONITOR Therm.SeaIce statistics
(PID.TID 0000.0001) // =======================================================
(PID.TID 0000.0001) %MON thSI_time_sec                =   3.1118688000000E+09
(PID.TID 0000.0001) %MON thSI_Ice_Area_G              =   2.4619106097540E+13
(PID.TID 0000.0001) %MON thSI_Ice_Area_S              =   1.1393115961846E+13
(PID.TID 0000.0001) %MON thSI_Ice_Area_N              =   1.3225990135694E+13
(PID.TID 0000.0001) %MON thSI_IceH_ave_G              =   4.6278413133356E+00
(PID.TID 0000.0001) %MON thSI_IceH_ave_S              =   5.8980695611629E+00
(PID.TID 0000.0001) %MON thSI_IceH_ave_N              =   3.5336428769967E+00
(PID.TID 0000.0001) %MON thSI_IceH_max_S              =   1.0000000000000E+01
(PID.TID 0000.0001) %MON thSI_IceH_max_N              =   1.0000000000000E+01
(PID.TID 0000.0001) %MON thSI_SnwH_ave_G              =   1.0071339595499E+00
(PID.TID 0000.0001) %MON thSI_SnwH_ave_S              =   1.7316804838864E+00
(PID.TID 0000.0001) %MON thSI_SnwH_ave_N              =   3.8299599431444E-01
(PID.TID 0000.0001) %MON thSI_SnwH_max_S              =   4.0930341776781E+00
(PID.TID 0000.0001) %MON thSI_SnwH_max_N              =   4.1061249829499E+00
(PID.TID 0000.0001) %MON thSI_TotEnerg_G              =  -3.8137550570956E+22
(PID.TID 0000.0001) %MON thSI_Tsrf_ave_G              =  -1.8016587755197E+01
(PID.TID 0000.0001) %MON thSI_Tsrf_ave_S              =  -1.4857481064473E-01
(PID.TID 0000.0001) %MON thSI_Tsrf_ave_N              =  -3.3408429227665E+01
(PID.TID 0000.0001) %MON thSI_Tsrf_min_S              =  -5.7900292616553E+00
(PID.TID 0000.0001) %MON thSI_Tsrf_min_N              =  -4.7949859732317E+01
(PID.TID 0000.0001) %MON thSI_Tsrf_max_S              =   0.0000000000000E+00
(PID.TID 0000.0001) %MON thSI_Tsrf_max_N              =  -1.7864285401645E+00
(PID.TID 0000.0001) %MON thSI_Tic1_ave_G              =  -8.6897936320415E+00
(PID.TID 0000.0001) %MON thSI_Tic1_ave_S              =  -4.7963106152785E+00
(PID.TID 0000.0001) %MON thSI_Tic1_ave_N              =  -1.4287883192953E+01
(PID.TID 0000.0001) %MON thSI_Tic1_min_S              =  -1.4272205687883E+01
(PID.TID 0000.0001) %MON thSI_Tic1_min_N              =  -2.1764879950388E+01
(PID.TID 0000.0001) %MON thSI_Tic1_max_S              =  -1.4656746375195E-01
(PID.TID 0000.0001) %MON thSI_Tic1_max_N              =  -9.4352813765387E-01
(PID.TID 0000.0001) %MON thSI_Tic2_ave_G              =  -3.9371963510741E+00
(PID.TID 0000.0001) %MON thSI_Tic2_ave_S              =  -3.0430190214180E+00
(PID.TID 0000.0001) %MON thSI_Tic2_ave_N              =  -5.2228536284271E+00
(PID.TID 0000.0001) %MON thSI_Tic2_min_S              =  -8.2917469556808E+00
(PID.TID 0000.0001) %MON thSI_Tic2_min_N              =  -7.9190508849766E+00
(PID.TID 0000.0001) %MON thSI_Tic2_max_S              =  -9.8475203566752E-01
(PID.TID 0000.0001) %MON thSI_Tic2_max_N              =  -1.4200673028820E+00
(PID.TID 0000.0001) // =======================================================
(PID.TID 0000.0001) // End MONITOR Therm.SeaIce statistics
(PID.TID 0000.0001) // =======================================================
 cg2d: Sum(rhs),rhsMax =   3.91971613805036E+02  2.30725107543878E+02
(PID.TID 0000.0001)                    cg2d_init_res =    2.63237730156589E+00
(PID.TID 0000.0001)                       cg2d_iters =    69
(PID.TID 0000.0001)                         cg2d_res =    5.69945232994382E-07
(PID.TID 0000.0001) // =======================================================
(PID.TID 0000.0001) // Begin MONITOR dynamic field statistics
(PID.TID 0000.0001) // =======================================================
(PID.TID 0000.0001) %MON time_tsnumber                =                 36018
(PID.TID 0000.0001) %MON time_secondsf                =   3.1119552000000E+09
(PID.TID 0000.0001) %MON dynstat_eta_max              =   7.1153876154709E-01
(PID.TID 0000.0001) %MON dynstat_eta_min              =  -1.1944531514699E+01
(PID.TID 0000.0001) %MON dynstat_eta_mean             =  -5.8299624812441E-01
(PID.TID 0000.0001) %MON dynstat_eta_sd               =   1.6966942699598E+00
(PID.TID 0000.0001) %MON dynstat_eta_del2             =   9.8610109658346E-02
(PID.TID 0000.0001) %MON dynstat_uvel_max             =   1.7304352664591E-01
(PID.TID 0000.0001) %MON dynstat_uvel_min             =  -2.6392133373519E-01
(PID.TID 0000.0001) %MON dynstat_uvel_mean            =  -5.1893359033966E-04
(PID.TID 0000.0001) %MON dynstat_uvel_sd              =   1.2983864949947E-02
(PID.TID 0000.0001) %MON dynstat_uvel_del2            =   1.7905342512089E-03
(PID.TID 0000.0001) %MON dynstat_vvel_max             =   1.9269371850901E-01
(PID.TID 0000.0001) %MON dynstat_vvel_min             =  -2.1159074964577E-01
(PID.TID 0000.0001) %MON dynstat_vvel_mean            =  -4.1620262581524E-04
(PID.TID 0000.0001) %MON dynstat_vvel_sd              =   1.3479916292270E-02
(PID.TID 0000.0001) %MON dynstat_vvel_del2            =   1.8148462889655E-03
(PID.TID 0000.0001) %MON dynstat_wvel_max             =   9.2986670231049E-05
(PID.TID 0000.0001) %MON dynstat_wvel_min             =  -1.7653102060367E-04
(PID.TID 0000.0001) %MON dynstat_wvel_mean            =  -9.3710736379288E-10
(PID.TID 0000.0001) %MON dynstat_wvel_sd              =   4.6252573370664E-06
(PID.TID 0000.0001) %MON dynstat_wvel_del2            =   1.1357602456624E-06
(PID.TID 0000.0001) %MON dynstat_theta_max            =   2.9852720174074E+01
(PID.TID 0000.0001) %MON dynstat_theta_min            =  -3.5501396276927E+00
(PID.TID 0000.0001) %MON dynstat_theta_mean           =   3.5038102216883E+00
(PID.TID 0000.0001) %MON dynstat_theta_sd             =   4.7505899421133E+00
(PID.TID 0000.0001) %MON dynstat_theta_del2           =   9.5705355194060E-02
(PID.TID 0000.0001) %MON dynstat_salt_max             =   4.0842068234204E+01
(PID.TID 0000.0001) %MON dynstat_salt_min             =   1.8098077625581E+01
(PID.TID 0000.0001) %MON dynstat_salt_mean            =   3.4756129937847E+01
(PID.TID 0000.0001) %MON dynstat_salt_sd              =   5.1172782300756E-01
(PID.TID 0000.0001) %MON dynstat_salt_del2            =   2.0020900066124E-02
(PID.TID 0000.0001) %MON extforcing_qnet_max          =   8.0490376401384E+02
(PID.TID 0000.0001) %MON extforcing_qnet_min          =  -2.3021627156023E+02
(PID.TID 0000.0001) %MON extforcing_qnet_mean         =  -4.8407567503624E+00
(PID.TID 0000.0001) %MON extforcing_qnet_sd           =   1.1631554495717E+02
(PID.TID 0000.0001) %MON extforcing_qnet_del2         =   1.2693616742143E+01
(PID.TID 0000.0001) %MON extforcing_qsw_max           =   0.0000000000000E+00
(PID.TID 0000.0001) %MON extforcing_qsw_min           =  -2.6277748655684E+01
(PID.TID 0000.0001) %MON extforcing_qsw_mean          =  -6.1336629109133E-02
(PID.TID 0000.0001) %MON extforcing_qsw_sd            =   1.0646731894187E+00
(PID.TID 0000.0001) %MON extforcing_qsw_del2          =   8.8204057210388E-02
(PID.TID 0000.0001) %MON extforcing_empmr_max         =   8.8211354443880E-07
(PID.TID 0000.0001) %MON extforcing_empmr_min         =  -3.1949405506732E-07
(PID.TID 0000.0001) %MON extforcing_empmr_mean        =   6.5764551177212E-10
(PID.TID 0000.0001) %MON extforcing_empmr_sd          =   5.2934280650260E-08
(PID.TID 0000.0001) %MON extforcing_empmr_del2        =   8.7127871431115E-09
(PID.TID 0000.0001) %MON extforcing_fu_max            =   2.4279378961307E-01
(PID.TID 0000.0001) %MON extforcing_fu_min            =  -2.1180240405542E-01
(PID.TID 0000.0001) %MON extforcing_fu_mean           =  -1.6306456810574E-03
(PID.TID 0000.0001) %MON extforcing_fu_sd             =   6.1844576879309E-02
(PID.TID 0000.0001) %MON extforcing_fu_del2           =   3.5133153371273E-03
(PID.TID 0000.0001) %MON extforcing_fv_max            =   2.9145284083641E-01
(PID.TID 0000.0001) %MON extforcing_fv_min            =  -3.3262320792717E-01
(PID.TID 0000.0001) %MON extforcing_fv_mean           =  -5.3746337387639E-03
(PID.TID 0000.0001) %MON extforcing_fv_sd             =   6.9665585547214E-02
(PID.TID 0000.0001) %MON extforcing_fv_del2           =   3.4527246795856E-03
(PID.TID 0000.0001) %MON advcfl_uvel_max              =   7.4853096488344E-02
(PID.TID 0000.0001) %MON advcfl_vvel_max              =   8.3992477187699E-02
(PID.TID 0000.0001) %MON advcfl_wvel_max              =   5.7555774264744E-02
(PID.TID 0000.0001) %MON advcfl_W_hf_max              =   1.1213810008127E-01
(PID.TID 0000.0001) %MON pe_b_mean                    =  -1.9239008326039E-03
(PID.TID 0000.0001) %MON ke_max                       =   3.4657891222160E-02
(PID.TID 0000.0001) %MON ke_mean                      =   1.6195333918398E-04
(PID.TID 0000.0001) %MON ke_vol                       =   1.3395903207371E+18
(PID.TID 0000.0001) %MON vort_r_min                   =  -1.2937869809065E-06
(PID.TID 0000.0001) %MON vort_r_max                   =   1.4186249270727E-06
(PID.TID 0000.0001) %MON vort_a_mean                  =  -2.0493733748264E-05
(PID.TID 0000.0001) %MON vort_a_sd                    =   7.5054012724634E-05
(PID.TID 0000.0001) %MON vort_p_mean                  =  -2.4719491149653E-05
(PID.TID 0000.0001) %MON vort_p_sd                    =   1.2782300289710E-04
(PID.TID 0000.0001) %MON surfExpan_theta_mean         =   8.1621518611321E-08
(PID.TID 0000.0001) %MON surfExpan_salt_mean          =   1.9429646116798E-08
(PID.TID 0000.0001) // =======================================================
(PID.TID 0000.0001) // End MONITOR dynamic field statistics
(PID.TID 0000.0001) // =======================================================
(PID.TID 0000.0001) // =======================================================
(PID.TID 0000.0001) // Begin MONITOR Therm.SeaIce statistics
(PID.TID 0000.0001) // =======================================================
(PID.TID 0000.0001) %MON thSI_time_sec                =   3.1119552000000E+09
(PID.TID 0000.0001) %MON thSI_Ice_Area_G              =   2.4616440680598E+13
(PID.TID 0000.0001) %MON thSI_Ice_Area_S              =   1.1342558146512E+13
(PID.TID 0000.0001) %MON thSI_Ice_Area_N              =   1.3273882534086E+13
(PID.TID 0000.0001) %MON thSI_IceH_ave_G              =   4.6287860948000E+00
(PID.TID 0000.0001) %MON thSI_IceH_ave_S              =   5.9170729833391E+00
(PID.TID 0000.0001) %MON thSI_IceH_ave_N              =   3.5279424716085E+00
(PID.TID 0000.0001) %MON thSI_IceH_max_S              =   1.0000000000000E+01
(PID.TID 0000.0001) %MON thSI_IceH_max_N              =   1.0000000000000E+01
(PID.TID 0000.0001) %MON thSI_SnwH_ave_G              =   1.0051435936871E+00
(PID.TID 0000.0001) %MON thSI_SnwH_ave_S              =   1.7315383508991E+00
(PID.TID 0000.0001) %MON thSI_SnwH_ave_N              =   3.8443787704081E-01
(PID.TID 0000.0001) %MON thSI_SnwH_max_S              =   4.0930037821823E+00
(PID.TID 0000.0001) %MON thSI_SnwH_max_N              =   4.1064817848205E+00
(PID.TID 0000.0001) %MON thSI_TotEnerg_G              =  -3.8137372825605E+22
(PID.TID 0000.0001) %MON thSI_Tsrf_ave_G              =  -1.8072002788181E+01
(PID.TID 0000.0001) %MON thSI_Tsrf_ave_S              =  -1.8678426664747E-01
(PID.TID 0000.0001) %MON thSI_Tsrf_ave_N              =  -3.3354956401989E+01
(PID.TID 0000.0001) %MON thSI_Tsrf_min_S              =  -6.0831078421449E+00
(PID.TID 0000.0001) %MON thSI_Tsrf_min_N              =  -4.7936337791581E+01
(PID.TID 0000.0001) %MON thSI_Tsrf_max_S              =   0.0000000000000E+00
(PID.TID 0000.0001) %MON thSI_Tsrf_max_N              =  -1.7145222980359E+00
(PID.TID 0000.0001) %MON thSI_Tic1_ave_G              =  -8.7076283846166E+00
(PID.TID 0000.0001) %MON thSI_Tic1_ave_S              =  -4.7740862878203E+00
(PID.TID 0000.0001) %MON thSI_Tic1_ave_N              =  -1.4345072866734E+01
(PID.TID 0000.0001) %MON thSI_Tic1_min_S              =  -1.3834475934833E+01
(PID.TID 0000.0001) %MON thSI_Tic1_min_N              =  -2.1860507824855E+01
(PID.TID 0000.0001) %MON thSI_Tic1_max_S              =  -1.4239779086517E-01
(PID.TID 0000.0001) %MON thSI_Tic1_max_N              =  -9.7151767143076E-01
(PID.TID 0000.0001) %MON thSI_Tic2_ave_G              =  -3.9467274641702E+00
(PID.TID 0000.0001) %MON thSI_Tic2_ave_S              =  -3.0390422564490E+00
(PID.TID 0000.0001) %MON thSI_Tic2_ave_N              =  -5.2475969705459E+00
(PID.TID 0000.0001) %MON thSI_Tic2_min_S              =  -8.2569431588368E+00
(PID.TID 0000.0001) %MON thSI_Tic2_min_N              =  -7.9425117648003E+00
(PID.TID 0000.0001) %MON thSI_Tic2_max_S              =  -9.5977427005011E-01
(PID.TID 0000.0001) %MON thSI_Tic2_max_N              =  -1.4319309492527E+00
(PID.TID 0000.0001) // =======================================================
(PID.TID 0000.0001) // End MONITOR Therm.SeaIce statistics
(PID.TID 0000.0001) // =======================================================
 cg2d: Sum(rhs),rhsMax =   3.92016544242847E+02  2.30820946798455E+02
(PID.TID 0000.0001)                    cg2d_init_res =    2.56962760828447E+00
(PID.TID 0000.0001)                       cg2d_iters =    69
(PID.TID 0000.0001)                         cg2d_res =    5.52442174399080E-07
(PID.TID 0000.0001) // =======================================================
(PID.TID 0000.0001) // Begin MONITOR dynamic field statistics
(PID.TID 0000.0001) // =======================================================
(PID.TID 0000.0001) %MON time_tsnumber                =                 36019
(PID.TID 0000.0001) %MON time_secondsf                =   3.1120416000000E+09
(PID.TID 0000.0001) %MON dynstat_eta_max              =   7.1048688787332E-01
(PID.TID 0000.0001) %MON dynstat_eta_min              =  -1.1941801694692E+01
(PID.TID 0000.0001) %MON dynstat_eta_mean             =  -5.8306307509796E-01
(PID.TID 0000.0001) %MON dynstat_eta_sd               =   1.6963780964344E+00
(PID.TID 0000.0001) %MON dynstat_eta_del2             =   9.8640665578971E-02
(PID.TID 0000.0001) %MON dynstat_uvel_max             =   1.7310511493863E-01
(PID.TID 0000.0001) %MON dynstat_uvel_min             =  -2.6338576024105E-01
(PID.TID 0000.0001) %MON dynstat_uvel_mean            =  -5.1813351347919E-04
(PID.TID 0000.0001) %MON dynstat_uvel_sd              =   1.2984542372267E-02
(PID.TID 0000.0001) %MON dynstat_uvel_del2            =   1.7907363070862E-03
(PID.TID 0000.0001) %MON dynstat_vvel_max             =   1.9218124665273E-01
(PID.TID 0000.0001) %MON dynstat_vvel_min             =  -2.1158816461576E-01
(PID.TID 0000.0001) %MON dynstat_vvel_mean            =  -4.1561737722647E-04
(PID.TID 0000.0001) %MON dynstat_vvel_sd              =   1.3476749861758E-02
(PID.TID 0000.0001) %MON dynstat_vvel_del2            =   1.8141937196861E-03
(PID.TID 0000.0001) %MON dynstat_wvel_max             =   9.3330260226579E-05
(PID.TID 0000.0001) %MON dynstat_wvel_min             =  -1.7629460967763E-04
(PID.TID 0000.0001) %MON dynstat_wvel_mean            =  -8.5457381379224E-10
(PID.TID 0000.0001) %MON dynstat_wvel_sd              =   4.6246840239715E-06
(PID.TID 0000.0001) %MON dynstat_wvel_del2            =   1.1357113655099E-06
(PID.TID 0000.0001) %MON dynstat_theta_max            =   2.9839380988358E+01
(PID.TID 0000.0001) %MON dynstat_theta_min            =  -3.5682995469866E+00
(PID.TID 0000.0001) %MON dynstat_theta_mean           =   3.5038688678729E+00
(PID.TID 0000.0001) %MON dynstat_theta_sd             =   4.7507368836849E+00
(PID.TID 0000.0001) %MON dynstat_theta_del2           =   9.5801319232259E-02
(PID.TID 0000.0001) %MON dynstat_salt_max             =   4.0842345463342E+01
(PID.TID 0000.0001) %MON dynstat_salt_min             =   1.8099494783378E+01
(PID.TID 0000.0001) %MON dynstat_salt_mean            =   3.4756131611472E+01
(PID.TID 0000.0001) %MON dynstat_salt_sd              =   5.1171776136112E-01
(PID.TID 0000.0001) %MON dynstat_salt_del2            =   2.0040353402310E-02
(PID.TID 0000.0001) %MON extforcing_qnet_max          =   7.9820271257889E+02
(PID.TID 0000.0001) %MON extforcing_qnet_min          =  -2.2866501206733E+02
(PID.TID 0000.0001) %MON extforcing_qnet_mean         =  -4.9430468432596E+00
(PID.TID 0000.0001) %MON extforcing_qnet_sd           =   1.1448766204316E+02
(PID.TID 0000.0001) %MON extforcing_qnet_del2         =   1.2596236204612E+01
(PID.TID 0000.0001) %MON extforcing_qsw_max           =   0.0000000000000E+00
(PID.TID 0000.0001) %MON extforcing_qsw_min           =  -2.6277748655684E+01
(PID.TID 0000.0001) %MON extforcing_qsw_mean          =  -6.4271964626125E-02
(PID.TID 0000.0001) %MON extforcing_qsw_sd            =   1.0961080366613E+00
(PID.TID 0000.0001) %MON extforcing_qsw_del2          =   9.2808788274150E-02
(PID.TID 0000.0001) %MON extforcing_empmr_max         =   6.5723163605997E-07
(PID.TID 0000.0001) %MON extforcing_empmr_min         =  -3.2028760549592E-07
(PID.TID 0000.0001) %MON extforcing_empmr_mean        =   8.0053145404915E-10
(PID.TID 0000.0001) %MON extforcing_empmr_sd          =   5.1796018000754E-08
(PID.TID 0000.0001) %MON extforcing_empmr_del2        =   8.6046601176551E-09
(PID.TID 0000.0001) %MON extforcing_fu_max            =   2.3972677870247E-01
(PID.TID 0000.0001) %MON extforcing_fu_min            =  -2.1002483594552E-01
(PID.TID 0000.0001) %MON extforcing_fu_mean           =  -1.6937520690119E-03
(PID.TID 0000.0001) %MON extforcing_fu_sd             =   6.1659636545780E-02
(PID.TID 0000.0001) %MON extforcing_fu_del2           =   3.4804689803162E-03
(PID.TID 0000.0001) %MON extforcing_fv_max            =   2.9064945924193E-01
(PID.TID 0000.0001) %MON extforcing_fv_min            =  -3.2918415574839E-01
(PID.TID 0000.0001) %MON extforcing_fv_mean           =  -5.2224723436324E-03
(PID.TID 0000.0001) %MON extforcing_fv_sd             =   6.9271992380824E-02
(PID.TID 0000.0001) %MON extforcing_fv_del2           =   3.4226173805692E-03
(PID.TID 0000.0001) %MON advcfl_uvel_max              =   7.4701197686279E-02
(PID.TID 0000.0001) %MON advcfl_vvel_max              =   8.3769097925359E-02
(PID.TID 0000.0001) %MON advcfl_wvel_max              =   5.7478695381689E-02
(PID.TID 0000.0001) %MON advcfl_W_hf_max              =   1.1055171589702E-01
(PID.TID 0000.0001) %MON pe_b_mean                    =  -1.9236022815026E-03
(PID.TID 0000.0001) %MON ke_max                       =   3.4512843984445E-02
(PID.TID 0000.0001) %MON ke_mean                      =   1.6192123252779E-04
(PID.TID 0000.0001) %MON ke_vol                       =   1.3395903007601E+18
(PID.TID 0000.0001) %MON vort_r_min                   =  -1.2982327632837E-06
(PID.TID 0000.0001) %MON vort_r_max                   =   1.4196081924942E-06
(PID.TID 0000.0001) %MON vort_a_mean                  =  -2.0493733748264E-05
(PID.TID 0000.0001) %MON vort_a_sd                    =   7.5054012719590E-05
(PID.TID 0000.0001) %MON vort_p_mean                  =  -2.4719491077197E-05
(PID.TID 0000.0001) %MON vort_p_sd                    =   1.2782301314786E-04
(PID.TID 0000.0001) %MON surfExpan_theta_mean         =   8.1082138334326E-08
(PID.TID 0000.0001) %MON surfExpan_salt_mean          =   1.9135665219769E-08
(PID.TID 0000.0001) // =======================================================
(PID.TID 0000.0001) // End MONITOR dynamic field statistics
(PID.TID 0000.0001) // =======================================================
(PID.TID 0000.0001) // =======================================================
(PID.TID 0000.0001) // Begin MONITOR Therm.SeaIce statistics
(PID.TID 0000.0001) // =======================================================
(PID.TID 0000.0001) %MON thSI_time_sec                =   3.1120416000000E+09
(PID.TID 0000.0001) %MON thSI_Ice_Area_G              =   2.4618413421361E+13
(PID.TID 0000.0001) %MON thSI_Ice_Area_S              =   1.1303934015947E+13
(PID.TID 0000.0001) %MON thSI_Ice_Area_N              =   1.3314479405414E+13
(PID.TID 0000.0001) %MON thSI_IceH_ave_G              =   4.6289592133492E+00
(PID.TID 0000.0001) %MON thSI_IceH_ave_S              =   5.9302833067950E+00
(PID.TID 0000.0001) %MON thSI_IceH_ave_N              =   3.5241408244535E+00
(PID.TID 0000.0001) %MON thSI_IceH_max_S              =   1.0000000000000E+01
(PID.TID 0000.0001) %MON thSI_IceH_max_N              =   1.0000000000000E+01
(PID.TID 0000.0001) %MON thSI_SnwH_ave_G              =   1.0032904262269E+00
(PID.TID 0000.0001) %MON thSI_SnwH_ave_S              =   1.7302560029594E+00
(PID.TID 0000.0001) %MON thSI_SnwH_ave_N              =   3.8609987291784E-01
(PID.TID 0000.0001) %MON thSI_SnwH_max_S              =   4.0929749808009E+00
(PID.TID 0000.0001) %MON thSI_SnwH_max_N              =   4.1068304812421E+00
(PID.TID 0000.0001) %MON thSI_TotEnerg_G              =  -3.8138346520683E+22
(PID.TID 0000.0001) %MON thSI_Tsrf_ave_G              =  -1.8117969614037E+01
(PID.TID 0000.0001) %MON thSI_Tsrf_ave_S              =  -2.2504257846197E-01
(PID.TID 0000.0001) %MON thSI_Tsrf_ave_N              =  -3.3308985379929E+01
(PID.TID 0000.0001) %MON thSI_Tsrf_min_S              =  -6.3852919779047E+00
(PID.TID 0000.0001) %MON thSI_Tsrf_min_N              =  -4.7922591337593E+01
(PID.TID 0000.0001) %MON thSI_Tsrf_max_S              =   0.0000000000000E+00
(PID.TID 0000.0001) %MON thSI_Tsrf_max_N              =  -4.9342722119634E+00
(PID.TID 0000.0001) %MON thSI_Tic1_ave_G              =  -8.7238027447590E+00
(PID.TID 0000.0001) %MON thSI_Tic1_ave_S              =  -4.7508783291574E+00
(PID.TID 0000.0001) %MON thSI_Tic1_ave_N              =  -1.4399744276919E+01
(PID.TID 0000.0001) %MON thSI_Tic1_min_S              =  -1.3714811747288E+01
(PID.TID 0000.0001) %MON thSI_Tic1_min_N              =  -2.1953921893151E+01
(PID.TID 0000.0001) %MON thSI_Tic1_max_S              =  -1.3847603378824E-01
(PID.TID 0000.0001) %MON thSI_Tic1_max_N              =  -1.0007664403040E+00
(PID.TID 0000.0001) %MON thSI_Tic2_ave_G              =  -3.9559375420028E+00
(PID.TID 0000.0001) %MON thSI_Tic2_ave_S              =  -3.0349795635129E+00
(PID.TID 0000.0001) %MON thSI_Tic2_ave_N              =  -5.2716695048254E+00
(PID.TID 0000.0001) %MON thSI_Tic2_min_S              =  -8.2205508745458E+00
(PID.TID 0000.0001) %MON thSI_Tic2_min_N              =  -7.9652018638775E+00
(PID.TID 0000.0001) %MON thSI_Tic2_max_S              =  -9.3490118657096E-01
(PID.TID 0000.0001) %MON thSI_Tic2_max_N              =  -1.4436014019755E+00
(PID.TID 0000.0001) // =======================================================
(PID.TID 0000.0001) // End MONITOR Therm.SeaIce statistics
(PID.TID 0000.0001) // =======================================================
 Computing Diagnostic #  23  ETAN         Counter:       1   Parms: SM      M1      
 Computing Diagnostic #  76  oceFWflx     Counter:       1   Parms: SM      U1      
 Computing Diagnostic #  26  THETA        Counter:       1   Parms: SM      MR      
 Computing Diagnostic #  27  SALT         Counter:       1   Parms: SM      MR      
 Compute Stats, Diag. #  72  oceTAUX   vol(  0 ): 3.111E+15  Parms: SU      U1      
 Compute Stats, Diag. #  73  oceTAUY   vol(  0 ): 3.130E+15  Parms: SV      U1      
 Compute Stats, Diag. #  81  TRELAX    vol(  0 ): 3.275E+15  Parms: SM      U1      
 Compute Stats, Diag. #  82  SRELAX    vol(  0 ): 3.275E+15  Parms: SM      U1      
 Compute Stats, Diag. #  83  surForcT  vol(  0 ): 3.275E+15  Parms: SM      U1      
 Compute Stats, Diag. #  84  surForcS  vol(  0 ): 3.275E+15  Parms: SM      U1      
 Compute Stats, Diag. #  85  TFLUX     vol(  0 ): 3.275E+15  Parms: SM      U1      
 Compute Stats, Diag. #  86  SFLUX     vol(  0 ): 3.275E+15  Parms: SM      U1      
 Compute Stats, Diag. #  78  oceQnet   vol(  0 ): 3.275E+15  Parms: SM      U1      
 Compute Stats, Diag. #  77  oceSflux  vol(  0 ): 3.275E+15  Parms: SM      U1      
 Compute Stats, Diag. #  76  oceFWflx  vol(  0 ): 3.275E+15  Parms: SM      U1      
 cg2d: Sum(rhs),rhsMax =   3.92054815345991E+02  2.30908046816566E+02
(PID.TID 0000.0001)                    cg2d_init_res =    2.54107376934132E+00
(PID.TID 0000.0001)                       cg2d_iters =    69
(PID.TID 0000.0001)                         cg2d_res =    5.40755472149397E-07
(PID.TID 0000.0001) // =======================================================
(PID.TID 0000.0001) // Begin MONITOR dynamic field statistics
(PID.TID 0000.0001) // =======================================================
(PID.TID 0000.0001) %MON time_tsnumber                =                 36020
(PID.TID 0000.0001) %MON time_secondsf                =   3.1121280000000E+09
(PID.TID 0000.0001) %MON dynstat_eta_max              =   7.0947945805910E-01
(PID.TID 0000.0001) %MON dynstat_eta_min              =  -1.1939260363067E+01
(PID.TID 0000.0001) %MON dynstat_eta_mean             =  -5.8311999735651E-01
(PID.TID 0000.0001) %MON dynstat_eta_sd               =   1.6960983344545E+00
(PID.TID 0000.0001) %MON dynstat_eta_del2             =   9.8670184353200E-02
(PID.TID 0000.0001) %MON dynstat_uvel_max             =   1.7310843315199E-01
(PID.TID 0000.0001) %MON dynstat_uvel_min             =  -2.6283863890099E-01
(PID.TID 0000.0001) %MON dynstat_uvel_mean            =  -5.1735916962811E-04
(PID.TID 0000.0001) %MON dynstat_uvel_sd              =   1.2985252968968E-02
(PID.TID 0000.0001) %MON dynstat_uvel_del2            =   1.7908689181431E-03
(PID.TID 0000.0001) %MON dynstat_vvel_max             =   1.9163436167036E-01
(PID.TID 0000.0001) %MON dynstat_vvel_min             =  -2.1157791536440E-01
(PID.TID 0000.0001) %MON dynstat_vvel_mean            =  -4.1498769437654E-04
(PID.TID 0000.0001) %MON dynstat_vvel_sd              =   1.3473231682417E-02
(PID.TID 0000.0001) %MON dynstat_vvel_del2            =   1.8135549555454E-03
(PID.TID 0000.0001) %MON dynstat_wvel_max             =   9.3605407397879E-05
(PID.TID 0000.0001) %MON dynstat_wvel_min             =  -1.7607468597229E-04
(PID.TID 0000.0001) %MON dynstat_wvel_mean            =  -8.0801086842053E-10
(PID.TID 0000.0001) %MON dynstat_wvel_sd              =   4.6238278103856E-06
(PID.TID 0000.0001) %MON dynstat_wvel_del2            =   1.1355539457008E-06
(PID.TID 0000.0001) %MON dynstat_theta_max            =   2.9826160307801E+01
(PID.TID 0000.0001) %MON dynstat_theta_min            =  -3.5864521526189E+00
(PID.TID 0000.0001) %MON dynstat_theta_mean           =   3.5039275196421E+00
(PID.TID 0000.0001) %MON dynstat_theta_sd             =   4.7508916621696E+00
(PID.TID 0000.0001) %MON dynstat_theta_del2           =   9.5848791440377E-02
(PID.TID 0000.0001) %MON dynstat_salt_max             =   4.0842524854723E+01
(PID.TID 0000.0001) %MON dynstat_salt_min             =   1.8100918744329E+01
(PID.TID 0000.0001) %MON dynstat_salt_mean            =   3.4756133228277E+01
(PID.TID 0000.0001) %MON dynstat_salt_sd              =   5.1170855640048E-01
(PID.TID 0000.0001) %MON dynstat_salt_del2            =   2.0045954223034E-02
(PID.TID 0000.0001) %MON extforcing_qnet_max          =   7.9161659823376E+02
(PID.TID 0000.0001) %MON extforcing_qnet_min          =  -2.2676618315390E+02
(PID.TID 0000.0001) %MON extforcing_qnet_mean         =  -4.9299377026169E+00
(PID.TID 0000.0001) %MON extforcing_qnet_sd           =   1.1279584087308E+02
(PID.TID 0000.0001) %MON extforcing_qnet_del2         =   1.2523245438059E+01
(PID.TID 0000.0001) %MON extforcing_qsw_max           =   0.0000000000000E+00
(PID.TID 0000.0001) %MON extforcing_qsw_min           =  -2.6277748655684E+01
(PID.TID 0000.0001) %MON extforcing_qsw_mean          =  -6.7824595286180E-02
(PID.TID 0000.0001) %MON extforcing_qsw_sd            =   1.1266289193442E+00
(PID.TID 0000.0001) %MON extforcing_qsw_del2          =   9.8104121742507E-02
(PID.TID 0000.0001) %MON extforcing_empmr_max         =   4.7473114526677E-07
(PID.TID 0000.0001) %MON extforcing_empmr_min         =  -3.2111933515183E-07
(PID.TID 0000.0001) %MON extforcing_empmr_mean        =   6.8188122220099E-10
(PID.TID 0000.0001) %MON extforcing_empmr_sd          =   4.9954893419750E-08
(PID.TID 0000.0001) %MON extforcing_empmr_del2        =   8.4302501809037E-09
(PID.TID 0000.0001) %MON extforcing_fu_max            =   2.3665976779186E-01
(PID.TID 0000.0001) %MON extforcing_fu_min            =  -2.0824726783562E-01
(PID.TID 0000.0001) %MON extforcing_fu_mean           =  -1.7568585275457E-03
(PID.TID 0000.0001) %MON extforcing_fu_sd             =   6.1487323134866E-02
(PID.TID 0000.0001) %MON extforcing_fu_del2           =   3.4499957832840E-03
(PID.TID 0000.0001) %MON extforcing_fv_max            =   2.8984607764745E-01
(PID.TID 0000.0001) %MON extforcing_fv_min            =  -3.2574510356961E-01
(PID.TID 0000.0001) %MON extforcing_fv_mean           =  -5.0703110289727E-03
(PID.TID 0000.0001) %MON extforcing_fv_sd             =   6.8887698560403E-02
(PID.TID 0000.0001) %MON extforcing_fv_del2           =   3.3948587952260E-03
(PID.TID 0000.0001) %MON advcfl_uvel_max              =   7.4546023696067E-02
(PID.TID 0000.0001) %MON advcfl_vvel_max              =   8.3530718466176E-02
(PID.TID 0000.0001) %MON advcfl_wvel_max              =   5.7406991954740E-02
(PID.TID 0000.0001) %MON advcfl_W_hf_max              =   1.0892599169888E-01
(PID.TID 0000.0001) %MON pe_b_mean                    =  -1.9234136002981E-03
(PID.TID 0000.0001) %MON ke_max                       =   3.4366689375748E-02
(PID.TID 0000.0001) %MON ke_mean                      =   1.6188512972694E-04
(PID.TID 0000.0001) %MON ke_vol                       =   1.3395902764426E+18
(PID.TID 0000.0001) %MON vort_r_min                   =  -1.3024504986659E-06
(PID.TID 0000.0001) %MON vort_r_max                   =   1.4201266326636E-06
(PID.TID 0000.0001) %MON vort_a_mean                  =  -2.0493733748264E-05
(PID.TID 0000.0001) %MON vort_a_sd                    =   7.5054012731871E-05
(PID.TID 0000.0001) %MON vort_p_mean                  =  -2.4719491094741E-05
(PID.TID 0000.0001) %MON vort_p_sd                    =   1.2782302377760E-04
(PID.TID 0000.0001) %MON surfExpan_theta_mean         =   8.1238267081522E-08
(PID.TID 0000.0001) %MON surfExpan_salt_mean          =   1.9187705797260E-08
(PID.TID 0000.0001) // =======================================================
(PID.TID 0000.0001) // End MONITOR dynamic field statistics
(PID.TID 0000.0001) // =======================================================
(PID.TID 0000.0001) // =======================================================
(PID.TID 0000.0001) // Begin MONITOR Therm.SeaIce statistics
(PID.TID 0000.0001) // =======================================================
(PID.TID 0000.0001) %MON thSI_time_sec                =   3.1121280000000E+09
(PID.TID 0000.0001) %MON thSI_Ice_Area_G              =   2.4610445845774E+13
(PID.TID 0000.0001) %MON thSI_Ice_Area_S              =   1.1269509362352E+13
(PID.TID 0000.0001) %MON thSI_Ice_Area_N              =   1.3340936483422E+13
(PID.TID 0000.0001) %MON thSI_IceH_ave_G              =   4.6307129049690E+00
(PID.TID 0000.0001) %MON thSI_IceH_ave_S              =   5.9414974202102E+00
(PID.TID 0000.0001) %MON thSI_IceH_ave_N              =   3.5234519278335E+00
(PID.TID 0000.0001) %MON thSI_IceH_max_S              =   1.0000000000000E+01
(PID.TID 0000.0001) %MON thSI_IceH_max_N              =   1.0000000000000E+01
(PID.TID 0000.0001) %MON thSI_SnwH_ave_G              =   1.0021846731707E+00
(PID.TID 0000.0001) %MON thSI_SnwH_ave_S              =   1.7290423766732E+00
(PID.TID 0000.0001) %MON thSI_SnwH_ave_N              =   3.8818507090157E-01
(PID.TID 0000.0001) %MON thSI_SnwH_max_S              =   4.0929460732041E+00
(PID.TID 0000.0001) %MON thSI_SnwH_max_N              =   4.1071695339595E+00
(PID.TID 0000.0001) %MON thSI_TotEnerg_G              =  -3.8138349792455E+22
(PID.TID 0000.0001) %MON thSI_Tsrf_ave_G              =  -1.8150086558243E+01
(PID.TID 0000.0001) %MON thSI_Tsrf_ave_S              =  -2.3489709080148E-01
(PID.TID 0000.0001) %MON thSI_Tsrf_ave_N              =  -3.3283611530986E+01
(PID.TID 0000.0001) %MON thSI_Tsrf_min_S              =  -6.6878510177689E+00
(PID.TID 0000.0001) %MON thSI_Tsrf_min_N              =  -4.7908616387355E+01
(PID.TID 0000.0001) %MON thSI_Tsrf_max_S              =   0.0000000000000E+00
(PID.TID 0000.0001) %MON thSI_Tsrf_max_N              =  -1.7525619698258E+00
(PID.TID 0000.0001) %MON thSI_Tic1_ave_G              =  -8.7424367067664E+00
(PID.TID 0000.0001) %MON thSI_Tic1_ave_S              =  -4.7333139030532E+00
(PID.TID 0000.0001) %MON thSI_Tic1_ave_N              =  -1.4453219126131E+01
(PID.TID 0000.0001) %MON thSI_Tic1_min_S              =  -1.3599774758972E+01
(PID.TID 0000.0001) %MON thSI_Tic1_min_N              =  -2.2045182161359E+01
(PID.TID 0000.0001) %MON thSI_Tic1_max_S              =  -1.3478345708175E-01
(PID.TID 0000.0001) %MON thSI_Tic1_max_N              =  -1.0313329374237E+00
(PID.TID 0000.0001) %MON thSI_Tic2_ave_G              =  -3.9649142859801E+00
(PID.TID 0000.0001) %MON thSI_Tic2_ave_S              =  -3.0308647155556E+00
(PID.TID 0000.0001) %MON thSI_Tic2_ave_N              =  -5.2954182707059E+00
(PID.TID 0000.0001) %MON thSI_Tic2_min_S              =  -8.1847751074130E+00
(PID.TID 0000.0001) %MON thSI_Tic2_min_N              =  -7.9871377961667E+00
(PID.TID 0000.0001) %MON thSI_Tic2_max_S              =  -9.1056605653782E-01
(PID.TID 0000.0001) %MON thSI_Tic2_max_N              =  -1.4551360145012E+00
(PID.TID 0000.0001) // =======================================================
(PID.TID 0000.0001) // End MONITOR Therm.SeaIce statistics
(PID.TID 0000.0001) // =======================================================
 Computing Diagnostic #  23  ETAN         Counter:       1   Parms: SM      M1      
 Compute Stats, Diag. #  23  ETAN      vol(  0 ): 3.639E+15  Parms: SM      M1      
 Compute Stats, Diag. #  24  ETANSQ    vol(  0 ): 3.639E+15  Parms: SM      M1      
 Compute Stats, Diag. #  25  DETADT2   vol(  0 ): 3.639E+15  Parms: SM      M1      
 Compute Stats, Diag. #  26  THETA     vol(  0 ): 1.340E+19  Parms: SM      MR      
 Compute Stats, Diag. #  27  SALT      vol(  0 ): 1.340E+19  Parms: SM      MR      
 Compute Stats, Diag. #  71  CONVADJ   vol(  0 ): 1.315E+19  Parms: SM      LR      
 Compute Stats, Diag. #  23  ETAN      vol(  0 ): 3.639E+14  Parms: SM      M1      
 Compute Stats, Diag. #  26  THETA     vol(  0 ): 1.340E+18  Parms: SM      MR      
 Compute Stats, Diag. #  27  SALT      vol(  0 ): 1.340E+18  Parms: SM      MR      
 Compute Stats, Diag. # 184  SI_Fract  vol(  0 ): 3.639E+15  Parms: SM P    M1      
 Compute Stats, Diag. # 184  SI_Fract  vol(  1 ): 1.289E+15  Parms: SM P    M1      
 Compute Stats, Diag. # 184  SI_Fract  vol(  3 ): 7.935E+14  Parms: SM P    M1      
 Compute Stats, Diag. # 185  SI_Thick  vol(  0 ): 2.466E+14  Parms: SM PC184M1      
    use Counter Mate  # 184  SI_Fract  vol(  0 ): 3.639E+15 integral 2.466E+14
 Compute Stats, Diag. # 185  SI_Thick  vol(  1 ): 1.148E+14  Parms: SM PC184M1      
    use Counter Mate  # 184  SI_Fract  vol(  1 ): 1.289E+15 integral 1.148E+14
 Compute Stats, Diag. # 185  SI_Thick  vol(  3 ): 1.318E+14  Parms: SM PC184M1      
    use Counter Mate  # 184  SI_Fract  vol(  3 ): 7.935E+14 integral 1.318E+14
 Compute Stats, Diag. # 186  SI_SnowH  vol(  0 ): 2.466E+14  Parms: SM PC184M1      
    use Counter Mate  # 184  SI_Fract  vol(  0 ): 3.639E+15 integral 2.466E+14
 Compute Stats, Diag. # 186  SI_SnowH  vol(  1 ): 1.148E+14  Parms: SM PC184M1      
    use Counter Mate  # 184  SI_Fract  vol(  1 ): 1.289E+15 integral 1.148E+14
 Compute Stats, Diag. # 186  SI_SnowH  vol(  3 ): 1.318E+14  Parms: SM PC184M1      
    use Counter Mate  # 184  SI_Fract  vol(  3 ): 7.935E+14 integral 1.318E+14
 Compute Stats, Diag. # 187  SI_Tsrf   vol(  0 ): 2.466E+14  Parms: SM  C184M1      
    use Counter Mate  # 184  SI_Fract  vol(  0 ): 3.639E+15 integral 2.466E+14
 Compute Stats, Diag. # 187  SI_Tsrf   vol(  1 ): 1.148E+14  Parms: SM  C184M1      
    use Counter Mate  # 184  SI_Fract  vol(  1 ): 1.289E+15 integral 1.148E+14
 Compute Stats, Diag. # 187  SI_Tsrf   vol(  3 ): 1.318E+14  Parms: SM  C184M1      
    use Counter Mate  # 184  SI_Fract  vol(  3 ): 7.935E+14 integral 1.318E+14
 Compute Stats, Diag. # 188  SI_Tice1  vol(  0 ): 2.466E+14  Parms: SM  C184M1      
    use Counter Mate  # 184  SI_Fract  vol(  0 ): 3.639E+15 integral 2.466E+14
 Compute Stats, Diag. # 188  SI_Tice1  vol(  1 ): 1.148E+14  Parms: SM  C184M1      
    use Counter Mate  # 184  SI_Fract  vol(  1 ): 1.289E+15 integral 1.148E+14
 Compute Stats, Diag. # 188  SI_Tice1  vol(  3 ): 1.318E+14  Parms: SM  C184M1      
    use Counter Mate  # 184  SI_Fract  vol(  3 ): 7.935E+14 integral 1.318E+14
 Compute Stats, Diag. # 189  SI_Tice2  vol(  0 ): 2.466E+14  Parms: SM  C184M1      
    use Counter Mate  # 184  SI_Fract  vol(  0 ): 3.639E+15 integral 2.466E+14
 Compute Stats, Diag. # 189  SI_Tice2  vol(  1 ): 1.148E+14  Parms: SM  C184M1      
    use Counter Mate  # 184  SI_Fract  vol(  1 ): 1.289E+15 integral 1.148E+14
 Compute Stats, Diag. # 189  SI_Tice2  vol(  3 ): 1.318E+14  Parms: SM  C184M1      
    use Counter Mate  # 184  SI_Fract  vol(  3 ): 7.935E+14 integral 1.318E+14
 Compute Stats, Diag. # 190  SI_Qice1  vol(  0 ): 1.139E+15  Parms: SM  C185M1      
    use Counter Mate  # 185  SI_Thick  vol(  0 ): 2.466E+14 integral 1.139E+15
 Compute Stats, Diag. # 190  SI_Qice1  vol(  1 ): 6.740E+14  Parms: SM  C185M1      
    use Counter Mate  # 185  SI_Thick  vol(  1 ): 1.148E+14 integral 6.740E+14
 Compute Stats, Diag. # 190  SI_Qice1  vol(  3 ): 4.651E+14  Parms: SM  C185M1      
    use Counter Mate  # 185  SI_Thick  vol(  3 ): 1.318E+14 integral 4.651E+14
 Compute Stats, Diag. # 191  SI_Qice2  vol(  0 ): 1.139E+15  Parms: SM  C185M1      
    use Counter Mate  # 185  SI_Thick  vol(  0 ): 2.466E+14 integral 1.139E+15
 Compute Stats, Diag. # 191  SI_Qice2  vol(  1 ): 6.740E+14  Parms: SM  C185M1      
    use Counter Mate  # 185  SI_Thick  vol(  1 ): 1.148E+14 integral 6.740E+14
 Compute Stats, Diag. # 191  SI_Qice2  vol(  3 ): 4.651E+14  Parms: SM  C185M1      
    use Counter Mate  # 185  SI_Thick  vol(  3 ): 1.318E+14 integral 4.651E+14
 Compute Stats, Diag. # 195  SIsnwPrc  vol(  0 ): 2.466E+14  Parms: SM  C193M1      
    use Counter Mate  # 193  SI_FrcFx  vol(  0 ): 3.639E+15 integral 2.466E+14
 Compute Stats, Diag. # 195  SIsnwPrc  vol(  1 ): 1.148E+14  Parms: SM  C193M1      
    use Counter Mate  # 193  SI_FrcFx  vol(  1 ): 1.289E+15 integral 1.148E+14
 Compute Stats, Diag. # 195  SIsnwPrc  vol(  3 ): 1.318E+14  Parms: SM  C193M1      
    use Counter Mate  # 193  SI_FrcFx  vol(  3 ): 7.935E+14 integral 1.318E+14
 Compute Stats, Diag. # 194  SIalbedo  vol(  0 ): 2.466E+14  Parms: SM PC193M1      
    use Counter Mate  # 193  SI_FrcFx  vol(  0 ): 3.639E+15 integral 2.466E+14
 Compute Stats, Diag. # 194  SIalbedo  vol(  1 ): 1.148E+14  Parms: SM PC193M1      
    use Counter Mate  # 193  SI_FrcFx  vol(  1 ): 1.289E+15 integral 1.148E+14
 Compute Stats, Diag. # 194  SIalbedo  vol(  3 ): 1.318E+14  Parms: SM PC193M1      
    use Counter Mate  # 193  SI_FrcFx  vol(  3 ): 7.935E+14 integral 1.318E+14
 Compute Stats, Diag. # 192  SIsnwAge  vol(  0 ): 3.639E+15  Parms: SM P    M1      
 Compute Stats, Diag. # 192  SIsnwAge  vol(  1 ): 1.289E+15  Parms: SM P    M1      
 Compute Stats, Diag. # 192  SIsnwAge  vol(  3 ): 7.935E+14  Parms: SM P    M1      
 Compute Stats, Diag. # 198  SIflx2oc  vol(  0 ): 3.639E+15  Parms: SM      M1      
 Compute Stats, Diag. # 198  SIflx2oc  vol(  1 ): 1.289E+15  Parms: SM      M1      
 Compute Stats, Diag. # 198  SIflx2oc  vol(  3 ): 7.935E+14  Parms: SM      M1      
 Compute Stats, Diag. # 199  SIfrw2oc  vol(  0 ): 3.639E+15  Parms: SM      M1      
 Compute Stats, Diag. # 199  SIfrw2oc  vol(  1 ): 1.289E+15  Parms: SM      M1      
 Compute Stats, Diag. # 199  SIfrw2oc  vol(  3 ): 7.935E+14  Parms: SM      M1      
 Compute Stats, Diag. # 200  SIsaltFx  vol(  0 ): 3.639E+15  Parms: SM      M1      
 Compute Stats, Diag. # 200  SIsaltFx  vol(  1 ): 1.289E+15  Parms: SM      M1      
 Compute Stats, Diag. # 200  SIsaltFx  vol(  3 ): 7.935E+14  Parms: SM      M1      
 Compute Stats, Diag. # 196  SIflxAtm  vol(  0 ): 3.639E+15  Parms: SM      M1      
 Compute Stats, Diag. # 196  SIflxAtm  vol(  1 ): 1.289E+15  Parms: SM      M1      
 Compute Stats, Diag. # 196  SIflxAtm  vol(  3 ): 7.935E+14  Parms: SM      M1      
 Compute Stats, Diag. # 197  SIfrwAtm  vol(  0 ): 3.639E+15  Parms: SM      M1      
 Compute Stats, Diag. # 197  SIfrwAtm  vol(  1 ): 1.289E+15  Parms: SM      M1      
 Compute Stats, Diag. # 197  SIfrwAtm  vol(  3 ): 7.935E+14  Parms: SM      M1      
(PID.TID 0000.0001) %CHECKPOINT     36020 ckptA
(PID.TID 0000.0001) DIAGSTATS_CLOSE_IO: close file: dynStDiag.0000036000.txt , unit=     9
(PID.TID 0000.0001) DIAGSTATS_CLOSE_IO: close file: surfStDiag.0000036000.txt , unit=    10
(PID.TID 0000.0001) DIAGSTATS_CLOSE_IO: close file: instStDiag.0000036000.txt , unit=    11
(PID.TID 0000.0001) DIAGSTATS_CLOSE_IO: close file: thSIceStDiag.0000036000.txt , unit=    12
(PID.TID 0000.0001)   Seconds in section "ALL                    [THE_MODEL_MAIN]":
(PID.TID 0000.0001)           User time:  56.5124074
(PID.TID 0000.0001)         System time:  1.37579097
(PID.TID 0000.0001)     Wall clock time:  60.0729029
(PID.TID 0000.0001)          No. starts: 1
(PID.TID 0000.0001)           No. stops: 1
(PID.TID 0000.0001)   Seconds in section "INITIALISE_FIXED       [THE_MODEL_MAIN]":
(PID.TID 0000.0001)           User time:  0.581911983
(PID.TID 0000.0001)         System time:  0.214968001
(PID.TID 0000.0001)     Wall clock time:  1.15821791
(PID.TID 0000.0001)          No. starts: 1
(PID.TID 0000.0001)           No. stops: 1
(PID.TID 0000.0001)   Seconds in section "THE_MAIN_LOOP          [THE_MODEL_MAIN]":
(PID.TID 0000.0001)           User time:  55.6275436
(PID.TID 0000.0001)         System time:  0.895863041
(PID.TID 0000.0001)     Wall clock time:  57.880631
(PID.TID 0000.0001)          No. starts: 1
(PID.TID 0000.0001)           No. stops: 1
(PID.TID 0000.0001)   Seconds in section "INITIALISE_VARIA    [THE_MAIN_LOOP]":
(PID.TID 0000.0001)           User time:  1.51177013
(PID.TID 0000.0001)         System time:  0.406938002
(PID.TID 0000.0001)     Wall clock time:  2.75672412
(PID.TID 0000.0001)          No. starts: 1
(PID.TID 0000.0001)           No. stops: 1
(PID.TID 0000.0001)   Seconds in section "MAIN LOOP           [THE_MAIN_LOOP]":
(PID.TID 0000.0001)           User time:  54.1157734
(PID.TID 0000.0001)         System time:  0.48892504
(PID.TID 0000.0001)     Wall clock time:  55.1237681
(PID.TID 0000.0001)          No. starts: 1
(PID.TID 0000.0001)           No. stops: 1
(PID.TID 0000.0001)   Seconds in section "FORWARD_STEP        [THE_MAIN_LOOP]":
(PID.TID 0000.0001)           User time:  54.1147735
(PID.TID 0000.0001)         System time:  0.48892504
(PID.TID 0000.0001)     Wall clock time:  55.1228702
(PID.TID 0000.0001)          No. starts: 20
(PID.TID 0000.0001)           No. stops: 20
(PID.TID 0000.0001)   Seconds in section "DO_STATEVARS_DIAGS  [FORWARD_STEP]":
(PID.TID 0000.0001)           User time:  2.17667532
(PID.TID 0000.0001)         System time:  0.
(PID.TID 0000.0001)     Wall clock time:  2.18404341
(PID.TID 0000.0001)          No. starts: 60
(PID.TID 0000.0001)           No. stops: 60
(PID.TID 0000.0001)   Seconds in section "LOAD_FIELDS_DRIVER  [FORWARD_STEP]":
(PID.TID 0000.0001)           User time:  0.27994585
(PID.TID 0000.0001)         System time:  0.0239969492
(PID.TID 0000.0001)     Wall clock time:  0.475641727
(PID.TID 0000.0001)          No. starts: 20
(PID.TID 0000.0001)           No. stops: 20
(PID.TID 0000.0001)   Seconds in section "BULKF_FIELDS_LOAD  [LOAD_FLDS_DRIVER]":
(PID.TID 0000.0001)           User time:  0.189970493
(PID.TID 0000.0001)         System time:  0.016997993
(PID.TID 0000.0001)     Wall clock time:  0.375042915
(PID.TID 0000.0001)          No. starts: 20
(PID.TID 0000.0001)           No. stops: 20
(PID.TID 0000.0001)   Seconds in section "EXTERNAL_FLDS_LOAD [LOAD_FLDS_DRIVER]":
(PID.TID 0000.0001)           User time:  0.0889759064
(PID.TID 0000.0001)         System time:  0.00599896908
(PID.TID 0000.0001)     Wall clock time:  0.0979728699
(PID.TID 0000.0001)          No. starts: 20
(PID.TID 0000.0001)           No. stops: 20
(PID.TID 0000.0001)   Seconds in section "BULKF_FORCING       [FORWARD_STEP]":
(PID.TID 0000.0001)           User time:  1.02085543
(PID.TID 0000.0001)         System time:  0.00199902058
(PID.TID 0000.0001)     Wall clock time:  1.02394795
(PID.TID 0000.0001)          No. starts: 20
(PID.TID 0000.0001)           No. stops: 20
(PID.TID 0000.0001)   Seconds in section "DO_ATMOSPHERIC_PHYS [FORWARD_STEP]":
(PID.TID 0000.0001)           User time:  0.000999450684
(PID.TID 0000.0001)         System time:  0.
(PID.TID 0000.0001)     Wall clock time:  0.000851631165
(PID.TID 0000.0001)          No. starts: 20
(PID.TID 0000.0001)           No. stops: 20
(PID.TID 0000.0001)   Seconds in section "DO_OCEANIC_PHYS     [FORWARD_STEP]":
(PID.TID 0000.0001)           User time:  7.87679482
(PID.TID 0000.0001)         System time:  0.00599998236
(PID.TID 0000.0001)     Wall clock time:  7.88382673
(PID.TID 0000.0001)          No. starts: 20
(PID.TID 0000.0001)           No. stops: 20
(PID.TID 0000.0001)   Seconds in section "THSICE_MAIN     [DO_OCEANIC_PHYS]":
(PID.TID 0000.0001)           User time:  0.48991847
(PID.TID 0000.0001)         System time:  0.000999987125
(PID.TID 0000.0001)     Wall clock time:  0.489425182
(PID.TID 0000.0001)          No. starts: 20
(PID.TID 0000.0001)           No. stops: 20
(PID.TID 0000.0001)   Seconds in section "DYNAMICS            [FORWARD_STEP]":
(PID.TID 0000.0001)           User time:  14.1368506
(PID.TID 0000.0001)         System time:  0.00999903679
(PID.TID 0000.0001)     Wall clock time:  14.1583998
(PID.TID 0000.0001)          No. starts: 20
(PID.TID 0000.0001)           No. stops: 20
(PID.TID 0000.0001)   Seconds in section "UPDATE_R_STAR       [FORWARD_STEP]":
(PID.TID 0000.0001)           User time:  0.810878992
(PID.TID 0000.0001)         System time:  0.
(PID.TID 0000.0001)     Wall clock time:  0.814373732
(PID.TID 0000.0001)          No. starts: 20
(PID.TID 0000.0001)           No. stops: 20
(PID.TID 0000.0001)   Seconds in section "UPDATE_CG2D         [FORWARD_STEP]":
(PID.TID 0000.0001)           User time:  0.279957771
(PID.TID 0000.0001)         System time:  0.
(PID.TID 0000.0001)     Wall clock time:  0.279138565
(PID.TID 0000.0001)          No. starts: 20
(PID.TID 0000.0001)           No. stops: 20
(PID.TID 0000.0001)   Seconds in section "SOLVE_FOR_PRESSURE  [FORWARD_STEP]":
(PID.TID 0000.0001)           User time:  5.57615018
(PID.TID 0000.0001)         System time:  0.00100004673
(PID.TID 0000.0001)     Wall clock time:  5.57779884
(PID.TID 0000.0001)          No. starts: 20
(PID.TID 0000.0001)           No. stops: 20
(PID.TID 0000.0001)   Seconds in section "MOM_CORRECTION_STEP [FORWARD_STEP]":
(PID.TID 0000.0001)           User time:  1.22882009
(PID.TID 0000.0001)         System time:  0.
(PID.TID 0000.0001)     Wall clock time:  1.22821522
(PID.TID 0000.0001)          No. starts: 20
(PID.TID 0000.0001)           No. stops: 20
(PID.TID 0000.0001)   Seconds in section "UPDATE_ETAH         [FORWARD_STEP]":
(PID.TID 0000.0001)           User time:  0.00699901581
(PID.TID 0000.0001)         System time:  0.
(PID.TID 0000.0001)     Wall clock time:  0.00924086571
(PID.TID 0000.0001)          No. starts: 20
(PID.TID 0000.0001)           No. stops: 20
(PID.TID 0000.0001)   Seconds in section "CALC_R_STAR         [FORWARD_STEP]":
(PID.TID 0000.0001)           User time:  0.170969248
(PID.TID 0000.0001)         System time:  0.
(PID.TID 0000.0001)     Wall clock time:  0.169585705
(PID.TID 0000.0001)          No. starts: 20
(PID.TID 0000.0001)           No. stops: 20
(PID.TID 0000.0001)   Seconds in section "BLOCKING_EXCHANGES  [FORWARD_STEP]":
(PID.TID 0000.0001)           User time:  1.59575796
(PID.TID 0000.0001)         System time:  0.
(PID.TID 0000.0001)     Wall clock time:  1.59368968
(PID.TID 0000.0001)          No. starts: 40
(PID.TID 0000.0001)           No. stops: 40
(PID.TID 0000.0001)   Seconds in section "THERMODYNAMICS      [FORWARD_STEP]":
(PID.TID 0000.0001)           User time:  10.9623399
(PID.TID 0000.0001)         System time:  0.0129979253
(PID.TID 0000.0001)     Wall clock time:  10.9806361
(PID.TID 0000.0001)          No. starts: 20
(PID.TID 0000.0001)           No. stops: 20
(PID.TID 0000.0001)   Seconds in section "TRC_CORRECTION_STEP [FORWARD_STEP]":
(PID.TID 0000.0001)           User time:  0.188980103
(PID.TID 0000.0001)         System time:  0.000999987125
(PID.TID 0000.0001)     Wall clock time:  0.187384844
(PID.TID 0000.0001)          No. starts: 20
(PID.TID 0000.0001)           No. stops: 20
(PID.TID 0000.0001)   Seconds in section "DO_STATEVARS_TAVE   [FORWARD_STEP]":
(PID.TID 0000.0001)           User time:  3.01054335
(PID.TID 0000.0001)         System time:  0.
(PID.TID 0000.0001)     Wall clock time:  3.01571226
(PID.TID 0000.0001)          No. starts: 20
(PID.TID 0000.0001)           No. stops: 20
(PID.TID 0000.0001)   Seconds in section "MONITOR             [FORWARD_STEP]":
(PID.TID 0000.0001)           User time:  4.27034616
(PID.TID 0000.0001)         System time:  0.00699901581
(PID.TID 0000.0001)     Wall clock time:  4.27443004
(PID.TID 0000.0001)          No. starts: 20
(PID.TID 0000.0001)           No. stops: 20
(PID.TID 0000.0001)   Seconds in section "DO_THE_MODEL_IO     [FORWARD_STEP]":
(PID.TID 0000.0001)           User time:  0.49991703
(PID.TID 0000.0001)         System time:  0.421935081
(PID.TID 0000.0001)     Wall clock time:  1.2444272
(PID.TID 0000.0001)          No. starts: 20
(PID.TID 0000.0001)           No. stops: 20
(PID.TID 0000.0001)   Seconds in section "DO_WRITE_PICKUP     [FORWARD_STEP]":
(PID.TID 0000.0001)           User time:  0.000999450684
(PID.TID 0000.0001)         System time:  0.
(PID.TID 0000.0001)     Wall clock time:  0.000880241394
(PID.TID 0000.0001)          No. starts: 20
(PID.TID 0000.0001)           No. stops: 20
(PID.TID 0000.0001)   Seconds in section "DO_WRITE_PICKUP        [THE_MODEL_MAIN]":
(PID.TID 0000.0001)           User time:  0.302951813
(PID.TID 0000.0001)         System time:  0.264959931
(PID.TID 0000.0001)     Wall clock time:  1.03385806
(PID.TID 0000.0001)          No. starts: 1
(PID.TID 0000.0001)           No. stops: 1
(PID.TID 0000.0001) // ======================================================
(PID.TID 0000.0001) // Tile <-> Tile communication statistics
(PID.TID 0000.0001) // ======================================================
(PID.TID 0000.0001) // o Tile number: 000001
(PID.TID 0000.0001) //         No. X exchanges =              0
(PID.TID 0000.0001) //            Max. X spins =              0
(PID.TID 0000.0001) //            Min. X spins =     1000000000
(PID.TID 0000.0001) //          Total. X spins =              0
(PID.TID 0000.0001) //            Avg. X spins =       0.00E+00
(PID.TID 0000.0001) //         No. Y exchanges =              0
(PID.TID 0000.0001) //            Max. Y spins =              0
(PID.TID 0000.0001) //            Min. Y spins =     1000000000
(PID.TID 0000.0001) //          Total. Y spins =              0
(PID.TID 0000.0001) //            Avg. Y spins =       0.00E+00
(PID.TID 0000.0001) // o Tile number: 000002
(PID.TID 0000.0001) //         No. X exchanges =              0
(PID.TID 0000.0001) //            Max. X spins =              0
(PID.TID 0000.0001) //            Min. X spins =     1000000000
(PID.TID 0000.0001) //          Total. X spins =              0
(PID.TID 0000.0001) //            Avg. X spins =       0.00E+00
(PID.TID 0000.0001) //         No. Y exchanges =              0
(PID.TID 0000.0001) //            Max. Y spins =              0
(PID.TID 0000.0001) //            Min. Y spins =     1000000000
(PID.TID 0000.0001) //          Total. Y spins =              0
(PID.TID 0000.0001) //            Avg. Y spins =       0.00E+00
(PID.TID 0000.0001) // o Tile number: 000003
(PID.TID 0000.0001) //         No. X exchanges =              0
(PID.TID 0000.0001) //            Max. X spins =              0
(PID.TID 0000.0001) //            Min. X spins =     1000000000
(PID.TID 0000.0001) //          Total. X spins =              0
(PID.TID 0000.0001) //            Avg. X spins =       0.00E+00
(PID.TID 0000.0001) //         No. Y exchanges =              0
(PID.TID 0000.0001) //            Max. Y spins =              0
(PID.TID 0000.0001) //            Min. Y spins =     1000000000
(PID.TID 0000.0001) //          Total. Y spins =              0
(PID.TID 0000.0001) //            Avg. Y spins =       0.00E+00
(PID.TID 0000.0001) // o Tile number: 000004
(PID.TID 0000.0001) //         No. X exchanges =              0
(PID.TID 0000.0001) //            Max. X spins =              0
(PID.TID 0000.0001) //            Min. X spins =     1000000000
(PID.TID 0000.0001) //          Total. X spins =              0
(PID.TID 0000.0001) //            Avg. X spins =       0.00E+00
(PID.TID 0000.0001) //         No. Y exchanges =              0
(PID.TID 0000.0001) //            Max. Y spins =              0
(PID.TID 0000.0001) //            Min. Y spins =     1000000000
(PID.TID 0000.0001) //          Total. Y spins =              0
(PID.TID 0000.0001) //            Avg. Y spins =       0.00E+00
(PID.TID 0000.0001) // o Tile number: 000005
(PID.TID 0000.0001) //         No. X exchanges =              0
(PID.TID 0000.0001) //            Max. X spins =              0
(PID.TID 0000.0001) //            Min. X spins =     1000000000
(PID.TID 0000.0001) //          Total. X spins =              0
(PID.TID 0000.0001) //            Avg. X spins =       0.00E+00
(PID.TID 0000.0001) //         No. Y exchanges =              0
(PID.TID 0000.0001) //            Max. Y spins =              0
(PID.TID 0000.0001) //            Min. Y spins =     1000000000
(PID.TID 0000.0001) //          Total. Y spins =              0
(PID.TID 0000.0001) //            Avg. Y spins =       0.00E+00
(PID.TID 0000.0001) // o Tile number: 000006
(PID.TID 0000.0001) //         No. X exchanges =              0
(PID.TID 0000.0001) //            Max. X spins =              0
(PID.TID 0000.0001) //            Min. X spins =     1000000000
(PID.TID 0000.0001) //          Total. X spins =              0
(PID.TID 0000.0001) //            Avg. X spins =       0.00E+00
(PID.TID 0000.0001) //         No. Y exchanges =              0
(PID.TID 0000.0001) //            Max. Y spins =              0
(PID.TID 0000.0001) //            Min. Y spins =     1000000000
(PID.TID 0000.0001) //          Total. Y spins =              0
(PID.TID 0000.0001) //            Avg. Y spins =       0.00E+00
(PID.TID 0000.0001) // o Thread number: 000001
(PID.TID 0000.0001) //            No. barriers =          59101
(PID.TID 0000.0001) //      Max. barrier spins =              1
(PID.TID 0000.0001) //      Min. barrier spins =              1
(PID.TID 0000.0001) //     Total barrier spins =          59101
(PID.TID 0000.0001) //      Avg. barrier spins =       1.00E+00
