(PID.TID 0000.0001) 
(PID.TID 0000.0001) // ======================================================
(PID.TID 0000.0001) //                      MITgcm UV
(PID.TID 0000.0001) //                      =========
(PID.TID 0000.0001) // ======================================================
(PID.TID 0000.0001) // execution environment starting up...
(PID.TID 0000.0001) // Run starting Wed Apr  1 14:19:48 1998
(PID.TID 0000.0001) // on melville.lcs.mit.edu
(PID.TID 0000.0001) // account cnh
(PID.TID 0000.0001) // MITgcm UV Release: $Name:  $
(PID.TID 0000.0001) 
(PID.TID 0000.0001) // =======================================================
(PID.TID 0000.0001) // Execution Environment parameter file "eedata"
(PID.TID 0000.0001) // =======================================================
(PID.TID 0000.0001) ># Example "eedata" file
(PID.TID 0000.0001) ># Lines beginning "#" are comments
(PID.TID 0000.0001) ># nTx - No. threads per process in X
(PID.TID 0000.0001) ># nTy - No. threads per process in Y
(PID.TID 0000.0001) > &EEPARMS
(PID.TID 0000.0001) > useCubedSphereExchange=.TRUE.,
(PID.TID 0000.0001) > nTx=1,nTy=1
(PID.TID 0000.0001) > &
(PID.TID 0000.0001) ># Note: Some systems use & as the
(PID.TID 0000.0001) ># namelist terminator. Other systems
(PID.TID 0000.0001) ># use a / character (as shown here).
(PID.TID 0000.0001) 
(PID.TID 0000.0001) // =======================================================
(PID.TID 0000.0001) // Computational Grid Specification ( see files "SIZE.h" )
(PID.TID 0000.0001) //                                  ( and "eedata"       )
(PID.TID 0000.0001) // =======================================================
(PID.TID 0000.0001)      nPx =    1 ; /* No. processes in X */
(PID.TID 0000.0001)      nPy =    1 ; /* No. processes in Y */
(PID.TID 0000.0001)      nSx =    6 ; /* No. tiles in X per process */
(PID.TID 0000.0001)      nSy =    1 ; /* No. tiles in Y per process */
(PID.TID 0000.0001)      sNx =   32 ; /* Tile size in X */
(PID.TID 0000.0001)      sNy =   32 ; /* Tile size in Y */
(PID.TID 0000.0001)      OLx =    2 ; /* Tile overlap distance in X */
(PID.TID 0000.0001)      OLy =    2 ; /* Tile overlap distance in Y */
(PID.TID 0000.0001)      nTx =    1 ; /* No. threads in X per process */
(PID.TID 0000.0001)      nTy =    1 ; /* No. threads in Y per process */
(PID.TID 0000.0001)       Nr =   15 ; /* No. levels in the vertical   */
(PID.TID 0000.0001)       nX =  192 ; /* Total domain size in X ( = nPx*nSx*sNx ) */
(PID.TID 0000.0001)       nY =   32 ; /* Total domain size in Y ( = nPy*nSy*sNy ) */
(PID.TID 0000.0001)   nTiles =    6 ; /* Total no. tiles per process ( = nSx*nSy ) */
(PID.TID 0000.0001)   nProcs =    1 ; /* Total no. processes ( = nPx*nPy ) */
(PID.TID 0000.0001) nThreads =    1 ; /* Total no. threads per process ( = nTx*nTy ) */
(PID.TID 0000.0001) usingMPI =    F ; /* Flag used to control whether MPI is in use */
(PID.TID 0000.0001)                   /*  note: To execute a program with MPI calls */
(PID.TID 0000.0001)                   /*  it must be launched appropriately e.g     */
(PID.TID 0000.0001)                   /*  "mpirun -np 64 ......"                    */
(PID.TID 0000.0001) 
(PID.TID 0000.0001) // ======================================================
(PID.TID 0000.0001) // Mapping of tiles to threads
(PID.TID 0000.0001) // ======================================================
(PID.TID 0000.0001) // -o- Thread   1, tiles (   1:   6,   1:   1)
(PID.TID 0000.0001) 
(PID.TID 0000.0001) // ======================================================
(PID.TID 0000.0001) // Tile <-> Tile connectvity table
(PID.TID 0000.0001) // ======================================================
(PID.TID 0000.0001) // Tile number: 000001 (process no. = 000001)
(PID.TID 0000.0001) //        WEST: Tile = 000006, Process = 000001, Comm = put
(PID.TID 0000.0001) //                bi = 000006, bj = 000001
(PID.TID 0000.0001) //        EAST: Tile = 000002, Process = 000001, Comm = put
(PID.TID 0000.0001) //                bi = 000002, bj = 000001
(PID.TID 0000.0001) //       SOUTH: Tile = 000001, Process = 000001, Comm = put
(PID.TID 0000.0001) //                bi = 000001, bj = 000001
(PID.TID 0000.0001) //       NORTH: Tile = 000001, Process = 000001, Comm = put
(PID.TID 0000.0001) //                bi = 000001, bj = 000001
(PID.TID 0000.0001) // Tile number: 000002 (process no. = 000001)
(PID.TID 0000.0001) //        WEST: Tile = 000001, Process = 000001, Comm = put
(PID.TID 0000.0001) //                bi = 000001, bj = 000001
(PID.TID 0000.0001) //        EAST: Tile = 000003, Process = 000001, Comm = put
(PID.TID 0000.0001) //                bi = 000003, bj = 000001
(PID.TID 0000.0001) //       SOUTH: Tile = 000002, Process = 000001, Comm = put
(PID.TID 0000.0001) //                bi = 000002, bj = 000001
(PID.TID 0000.0001) //       NORTH: Tile = 000002, Process = 000001, Comm = put
(PID.TID 0000.0001) //                bi = 000002, bj = 000001
(PID.TID 0000.0001) // Tile number: 000003 (process no. = 000001)
(PID.TID 0000.0001) //        WEST: Tile = 000002, Process = 000001, Comm = put
(PID.TID 0000.0001) //                bi = 000002, bj = 000001
(PID.TID 0000.0001) //        EAST: Tile = 000004, Process = 000001, Comm = put
(PID.TID 0000.0001) //                bi = 000004, bj = 000001
(PID.TID 0000.0001) //       SOUTH: Tile = 000003, Process = 000001, Comm = put
(PID.TID 0000.0001) //                bi = 000003, bj = 000001
(PID.TID 0000.0001) //       NORTH: Tile = 000003, Process = 000001, Comm = put
(PID.TID 0000.0001) //                bi = 000003, bj = 000001
(PID.TID 0000.0001) // Tile number: 000004 (process no. = 000001)
(PID.TID 0000.0001) //        WEST: Tile = 000003, Process = 000001, Comm = put
(PID.TID 0000.0001) //                bi = 000003, bj = 000001
(PID.TID 0000.0001) //        EAST: Tile = 000005, Process = 000001, Comm = put
(PID.TID 0000.0001) //                bi = 000005, bj = 000001
(PID.TID 0000.0001) //       SOUTH: Tile = 000004, Process = 000001, Comm = put
(PID.TID 0000.0001) //                bi = 000004, bj = 000001
(PID.TID 0000.0001) //       NORTH: Tile = 000004, Process = 000001, Comm = put
(PID.TID 0000.0001) //                bi = 000004, bj = 000001
(PID.TID 0000.0001) // Tile number: 000005 (process no. = 000001)
(PID.TID 0000.0001) //        WEST: Tile = 000004, Process = 000001, Comm = put
(PID.TID 0000.0001) //                bi = 000004, bj = 000001
(PID.TID 0000.0001) //        EAST: Tile = 000006, Process = 000001, Comm = put
(PID.TID 0000.0001) //                bi = 000006, bj = 000001
(PID.TID 0000.0001) //       SOUTH: Tile = 000005, Process = 000001, Comm = put
(PID.TID 0000.0001) //                bi = 000005, bj = 000001
(PID.TID 0000.0001) //       NORTH: Tile = 000005, Process = 000001, Comm = put
(PID.TID 0000.0001) //                bi = 000005, bj = 000001
(PID.TID 0000.0001) // Tile number: 000006 (process no. = 000001)
(PID.TID 0000.0001) //        WEST: Tile = 000005, Process = 000001, Comm = put
(PID.TID 0000.0001) //                bi = 000005, bj = 000001
(PID.TID 0000.0001) //        EAST: Tile = 000001, Process = 000001, Comm = put
(PID.TID 0000.0001) //                bi = 000001, bj = 000001
(PID.TID 0000.0001) //       SOUTH: Tile = 000006, Process = 000001, Comm = put
(PID.TID 0000.0001) //                bi = 000006, bj = 000001
(PID.TID 0000.0001) //       NORTH: Tile = 000006, Process = 000001, Comm = put
(PID.TID 0000.0001) //                bi = 000006, bj = 000001
(PID.TID 0000.0001) 
(PID.TID 0000.0001) // =======================================================
(PID.TID 0000.0001) // Model parameter file "data"
(PID.TID 0000.0001) // =======================================================
(PID.TID 0000.0001) ># ====================
(PID.TID 0000.0001) ># | Model parameters |
(PID.TID 0000.0001) ># ====================
(PID.TID 0000.0001) >#
(PID.TID 0000.0001) ># Continuous equation parameters
(PID.TID 0000.0001) > &PARM01
(PID.TID 0000.0001) > tRef=15*20.,
(PID.TID 0000.0001) > sRef=15*35.,
(PID.TID 0000.0001) > viscAh =3.E5,
(PID.TID 0000.0001) > viscAr =1.E-3,
(PID.TID 0000.0001) > diffKhT=0.,
(PID.TID 0000.0001) > diffK4T=0.,
(PID.TID 0000.0001) > diffKrT=3.E-5,
(PID.TID 0000.0001) > diffKhS=0.,
(PID.TID 0000.0001) > diffK4S=0.,
(PID.TID 0000.0001) > diffKrS=3.E-5,
(PID.TID 0000.0001) > ivdc_kappa=10.,
(PID.TID 0000.0001) > implicitDiffusion=.TRUE.,
(PID.TID 0000.0001) > gravity=9.81,
(PID.TID 0000.0001) > rhonil=1035.,
(PID.TID 0000.0001) > rhoConstFresh=1000.,
(PID.TID 0000.0001) > eosType='JMD95Z',
(PID.TID 0000.0001) >#staggerTimeStep=.TRUE.,
(PID.TID 0000.0001) > vectorInvariantMomentum=.TRUE.,
(PID.TID 0000.0001) > implicitFreeSurface=.TRUE.,
(PID.TID 0000.0001) > exactConserv=.TRUE.,
(PID.TID 0000.0001) >#select_rStar=2,
(PID.TID 0000.0001) >#nonlinFreeSurf=4,
(PID.TID 0000.0001) > hFacInf=0.2,
(PID.TID 0000.0001) > hFacSup=2.0,
(PID.TID 0000.0001) >#useRealFreshWaterFlux=.TRUE.,
(PID.TID 0000.0001) >#allowFreezing=.TRUE.,
(PID.TID 0000.0001) > hFacMin=.1,
(PID.TID 0000.0001) > hFacMinDr=20.,
(PID.TID 0000.0001) > readBinaryPrec=64,
(PID.TID 0000.0001) > &
(PID.TID 0000.0001) >
(PID.TID 0000.0001) ># Elliptic solver parameters
(PID.TID 0000.0001) > &PARM02
(PID.TID 0000.0001) > cg2dMaxIters=200,
(PID.TID 0000.0001) >#cg2dTargetResidual=1.E-9,
(PID.TID 0000.0001) > cg2dTargetResWunit=1.E-14,
(PID.TID 0000.0001) > &
(PID.TID 0000.0001) >
(PID.TID 0000.0001) ># Time stepping parameters
(PID.TID 0000.0001) > &PARM03
(PID.TID 0000.0001) > nIter0=72000,
(PID.TID 0000.0001) > nTimeSteps=20,
(PID.TID 0000.0001) > deltaTmom   =1200.,
(PID.TID 0000.0001) > deltaTtracer=86400.,
(PID.TID 0000.0001) > deltaTfreesurf=86400.,
(PID.TID 0000.0001) > deltaTClock =86400.,
(PID.TID 0000.0001) > abEps = 0.1,
(PID.TID 0000.0001) > forcing_In_AB=.FALSE.,
(PID.TID 0000.0001) > pChkptFreq  =31104000.,
(PID.TID 0000.0001) > taveFreq    =31104000.,
(PID.TID 0000.0001) > dumpFreq    =31104000.,
(PID.TID 0000.0001) > monitorFreq =2592000.,
(PID.TID 0000.0001) >#tave_lastIter=0.,
(PID.TID 0000.0001) > periodicExternalForcing=.TRUE.,
(PID.TID 0000.0001) > externForcingPeriod=2592000.,
(PID.TID 0000.0001) > externForcingCycle=31104000.,
(PID.TID 0000.0001) ># 2 months restoring timescale for temperature
(PID.TID 0000.0001) > tauThetaClimRelax = 5184000.,
(PID.TID 0000.0001) ># 6 months restoring timescale for salinity
(PID.TID 0000.0001) > tauSaltClimRelax = 15552000.,
(PID.TID 0000.0001) > latBandClimRelax=50.,
(PID.TID 0000.0001) > monitorFreq =1.,
(PID.TID 0000.0001) > &
(PID.TID 0000.0001) >
(PID.TID 0000.0001) ># Gridding parameters
(PID.TID 0000.0001) > &PARM04
(PID.TID 0000.0001) > usingCartesianGrid=.FALSE.,
(PID.TID 0000.0001) > usingSphericalPolarGrid=.FALSE.,
(PID.TID 0000.0001) > usingCurvilinearGrid=.TRUE.,
(PID.TID 0000.0001) > delR= 50., 70., 100., 140., 190.,
(PID.TID 0000.0001) >       240., 290., 340., 390., 440.,
(PID.TID 0000.0001) >       490., 540., 590., 640., 690.,
(PID.TID 0000.0001) > &
(PID.TID 0000.0001) >
(PID.TID 0000.0001) ># Input datasets
(PID.TID 0000.0001) > &PARM05
(PID.TID 0000.0001) > bathyFile      ='bathy_Hmin50.bin',
(PID.TID 0000.0001) > hydrogThetaFile='lev_T_cs_15k.bin',
(PID.TID 0000.0001) > hydrogSaltFile ='lev_S_cs_15k.bin',
(PID.TID 0000.0001) > zonalWindFile  ='trenberth_taux.bin',
(PID.TID 0000.0001) > meridWindFile  ='trenberth_tauy.bin',
(PID.TID 0000.0001) > thetaClimFile  ='lev_surfT_cs_12m.bin',
(PID.TID 0000.0001) > saltClimFile   ='lev_surfS_cs_12m.bin',
(PID.TID 0000.0001) > surfQFile      ='shiQnet_cs32.bin',
(PID.TID 0000.0001) > EmPmRFile      ='shiEmPR_cs32.bin',
(PID.TID 0000.0001) > &
(PID.TID 0000.0001) 
(PID.TID 0000.0001) S/R INI_PARMS ; read PARM01 : OK
(PID.TID 0000.0001) S/R INI_PARMS ; read PARM02 : OK
(PID.TID 0000.0001) S/R INI_PARMS ; read PARM03 : OK
(PID.TID 0000.0001) S/R INI_PARMS ; read PARM04 : OK
(PID.TID 0000.0001) S/R INI_PARMS ; read PARM05 : OK
(PID.TID 0000.0001)  MDSREADFIELD: opening global file: LONC.bin
(PID.TID 0000.0001)  MDSREADFIELD: opening global file: LATC.bin
(PID.TID 0000.0001)  MDSREADFIELD: opening global file: DXF.bin
(PID.TID 0000.0001)  MDSREADFIELD: opening global file: DYF.bin
(PID.TID 0000.0001)  MDSREADFIELD: opening global file: RA.bin
(PID.TID 0000.0001)  MDSREADFIELD: opening global file: LONG.bin
(PID.TID 0000.0001)  MDSREADFIELD: opening global file: LATG.bin
(PID.TID 0000.0001)  MDSREADFIELD: opening global file: DXV.bin
(PID.TID 0000.0001)  MDSREADFIELD: opening global file: DYU.bin
(PID.TID 0000.0001)  MDSREADFIELD: opening global file: RAZ.bin
(PID.TID 0000.0001)  MDSREADFIELD: opening global file: DXC.bin
(PID.TID 0000.0001)  MDSREADFIELD: opening global file: DYC.bin
(PID.TID 0000.0001)  MDSREADFIELD: opening global file: RAW.bin
(PID.TID 0000.0001)  MDSREADFIELD: opening global file: RAS.bin
(PID.TID 0000.0001)  MDSREADFIELD: opening global file: DXG.bin
(PID.TID 0000.0001)  MDSREADFIELD: opening global file: DYG.bin
(PID.TID 0000.0001) %MON XC_max                       =   1.7854351589505E+02
(PID.TID 0000.0001) %MON XC_min                       =  -1.7854351589505E+02
(PID.TID 0000.0001) %MON XC_mean                      =   5.2180482157382E-15
(PID.TID 0000.0001) %MON XC_sd                        =   1.0355545336287E+02
(PID.TID 0000.0001) %MON XG_max                       =   1.8000000000000E+02
(PID.TID 0000.0001) %MON XG_min                       =  -1.7708797161002E+02
(PID.TID 0000.0001) %MON XG_mean                      =   1.8796250616675E+00
(PID.TID 0000.0001) %MON XG_sd                        =   1.0410625309932E+02
(PID.TID 0000.0001) %MON DXC_max                      =   3.2375185836900E+05
(PID.TID 0000.0001) %MON DXC_min                      =   1.1142031410131E+05
(PID.TID 0000.0001) %MON DXC_mean                     =   2.8605689051214E+05
(PID.TID 0000.0001) %MON DXC_sd                       =   3.4042087138252E+04
(PID.TID 0000.0001) %MON DXF_max                      =   3.2369947500827E+05
(PID.TID 0000.0001) %MON DXF_min                      =   1.2020820513318E+05
(PID.TID 0000.0001) %MON DXF_mean                     =   2.8605437324820E+05
(PID.TID 0000.0001) %MON DXF_sd                       =   3.4050524252539E+04
(PID.TID 0000.0001) %MON DXG_max                      =   3.2375195872773E+05
(PID.TID 0000.0001) %MON DXG_min                      =   1.0098378008791E+05
(PID.TID 0000.0001) %MON DXG_mean                     =   2.8603818508931E+05
(PID.TID 0000.0001) %MON DXG_sd                       =   3.4140406908005E+04
(PID.TID 0000.0001) %MON DXV_max                      =   3.2380418162750E+05
(PID.TID 0000.0001) %MON DXV_min                      =   8.0152299824136E+04
(PID.TID 0000.0001) %MON DXV_mean                     =   2.8603970633619E+05
(PID.TID 0000.0001) %MON DXV_sd                       =   3.4145142117723E+04
(PID.TID 0000.0001) %MON YC_max                       =   8.7940663871962E+01
(PID.TID 0000.0001) %MON YC_min                       =  -8.7940663871962E+01
(PID.TID 0000.0001) %MON YC_mean                      =   3.7701323544563E-16
(PID.TID 0000.0001) %MON YC_sd                        =   3.8676242969072E+01
(PID.TID 0000.0001) %MON YG_max                       =   9.0000000000000E+01
(PID.TID 0000.0001) %MON YG_min                       =  -9.0000000000000E+01
(PID.TID 0000.0001) %MON YG_mean                      =  -1.2011668255785E-15
(PID.TID 0000.0001) %MON YG_sd                        =   3.9086186579984E+01
(PID.TID 0000.0001) %MON DYC_max                      =   3.2375185836900E+05
(PID.TID 0000.0001) %MON DYC_min                      =   1.1142031410131E+05
(PID.TID 0000.0001) %MON DYC_mean                     =   2.8605689051214E+05
(PID.TID 0000.0001) %MON DYC_sd                       =   3.4042087138252E+04
(PID.TID 0000.0001) %MON DYF_max                      =   3.2369947500827E+05
(PID.TID 0000.0001) %MON DYF_min                      =   1.2020820513318E+05
(PID.TID 0000.0001) %MON DYF_mean                     =   2.8605437324820E+05
(PID.TID 0000.0001) %MON DYF_sd                       =   3.4050524252539E+04
(PID.TID 0000.0001) %MON DYG_max                      =   3.2375195872773E+05
(PID.TID 0000.0001) %MON DYG_min                      =   1.0098378008791E+05
(PID.TID 0000.0001) %MON DYG_mean                     =   2.8603818508931E+05
(PID.TID 0000.0001) %MON DYG_sd                       =   3.4140406908005E+04
(PID.TID 0000.0001) %MON DYU_max                      =   3.2380418162750E+05
(PID.TID 0000.0001) %MON DYU_min                      =   8.0152299824136E+04
(PID.TID 0000.0001) %MON DYU_mean                     =   2.8603970633619E+05
(PID.TID 0000.0001) %MON DYU_sd                       =   3.4145142117723E+04
(PID.TID 0000.0001) %MON RA_max                       =   1.0479260248419E+11
(PID.TID 0000.0001) %MON RA_min                       =   1.4019007022556E+10
(PID.TID 0000.0001) %MON RA_mean                      =   8.2992246709265E+10
(PID.TID 0000.0001) %MON RA_sd                        =   1.7509089299457E+10
(PID.TID 0000.0001) %MON RAW_max                      =   1.0480965274559E+11
(PID.TID 0000.0001) %MON RAW_min                      =   1.2166903467143E+10
(PID.TID 0000.0001) %MON RAW_mean                     =   8.2992246709235E+10
(PID.TID 0000.0001) %MON RAW_sd                       =   1.7481917919657E+10
(PID.TID 0000.0001) %MON RAS_max                      =   1.0480965274559E+11
(PID.TID 0000.0001) %MON RAS_min                      =   1.2166903467143E+10
(PID.TID 0000.0001) %MON RAS_mean                     =   8.2992246709235E+10
(PID.TID 0000.0001) %MON RAS_sd                       =   1.7481917919657E+10
(PID.TID 0000.0001) %MON RAZ_max                      =   1.0484349334619E+11
(PID.TID 0000.0001) %MON RAZ_min                      =   8.8317900612505E+09
(PID.TID 0000.0001) %MON RAZ_mean                     =   8.2992246709234E+10
(PID.TID 0000.0001) %MON RAZ_sd                       =   1.7482297311044E+10
(PID.TID 0000.0001)  MDSREADFIELD: opening global file: bathy_Hmin50.bin
(PID.TID 0000.0001) // =======================================================
(PID.TID 0000.0001) // Field Model R_low (ini_masks_etc) at iteration          1
(PID.TID 0000.0001) // CMIN =         -5.200000000000000E+03
(PID.TID 0000.0001) // CMAX =         -5.000000000000000E+01
(PID.TID 0000.0001) // CINT =          1.907407407407407E+02
(PID.TID 0000.0001) // SYMBOLS (CMIN->CMAX): -abcdefghijklmnopqrstuvwxyz+
(PID.TID 0000.0001) //                  0.0: .
(PID.TID 0000.0001) // RANGE I (Lo:Hi:Step):(  -1: 194:   1)
(PID.TID 0000.0001) // RANGE J (Lo:Hi:Step):(  34:  -1:  -1)
(PID.TID 0000.0001) // RANGE K (Lo:Hi:Step):(   1:   1:   1)
(PID.TID 0000.0001) // =======================================================
(PID.TID 0000.0001) K =   1
(PID.TID 0000.0001) //                I=8       I=18      I=28      I=34      I=44      I=54      I=64      I=70      I=80      I=90      I=96      I=106     I=116     I=126     I=132     I=142     I=152     I=162     I=168     I=178     I=188
(PID.TID 0000.0001) // |--J--|*01234567|901234567|901234567|901234123|567890123|567890123|567890123|563456789|123456789|123456789|123456785|789012345|789012345|789012345|789078901|345678901|345678901|345678901|901234567|901234567|901234567|901234
(PID.TID 0000.0001) //     34 ..a-abcehjnldcclz+........spps...................................vkqn+....cbba--aabfu+..............hcbaaa....aaccdccbaaabbddddccdffffghfeeeee....efilhfcaaaacgceei.......zomggfca....ecbbccddefilihecbaacbaajfega-aes..
(PID.TID 0000.0001) //     33 ..bbccceiomkfdbbc+.......+s......................................xsrxz....db-----adu+...............hcbaa-....-accddba--bbbddddccdfffhhgfeeddc....dfgikhfffdfgccffw........zohhgeb....baaaaaccdfhlhfefdcccaabjefbaaafo..
(PID.TID 0000.0001) //     32 bddefhhkqqlgfaakqz..v.+..+.....................................++..u+...fdba----adu+................kdcaaa-aaa-accdcb---bbbcdddddefffggfeeedccccbbdcdfgghhiihcbeiw.........+ynjgebaaebaaaa-aacccfikkhecccbbbaaabaadfklnq
(PID.TID 0000.0001) //     31 bcffijnpnqneaaat..umrr+s.z.....................................+++++.ztsfeb--dfdfu+................+lkdca--aa--abcccb---bbbbddddeffflhfeeeecbbbb-abbacbcdceffbbfw+..........++ujfbaafbaaa----aacffiljgfffcca--adfikkiihh
(PID.TID 0000.0001) //     30 adgillkkkifcadcx.ymmqzqikvnnps.................................+++++wmegifcacdlqx+++...............mligea---a---abbbb---abaaddddeedkmeddefdbbbaa---b--aaaaabaabm..............+viba-iba-------acdefinmlgiieb-chnnnmlmlgf
(PID.TID 0000.0001) //     29 cfiljigfjd--efdozy...+ximpnnuz..................................+++yqddhjhcbbchz+......++.........+mmhffc---c----aaba------acdddcbcineddgdbaaa--d--a------aa-bfz...............+qe--qe---aa---aedeegknmlgiigcdfhpokkimlf
(PID.TID 0000.0001) //     28 bgkhfcccea-bdei........t........................................++zwgfcfnhccbbhwwy.....+++........+njfeed---d-----aa-------abddcabcnfddegcaaa---f------------dk+................+ja-+ja------bffdddehfd--bedaacfhpnligii
(PID.TID 0000.0001) //     27 cghfbaaaa-achmy..........................+++....................++vnbbbcpkeeecflmqxy....++........+lhfeecc--cc------------aaadcbabcfhddccba-----d-----------irw.................++e-++e-----mhmijddda--------ahhfiokhede
(PID.TID 0000.0001) //     26 dhfca-----bfiv...........................++sy...................+tq-fdbbnqiheddefhiksz++++........zkhfdccb--cb------------aabdcaaaacfddbca------fa-abb-----vvv...................+wa.+wa---mlmkijhc----------cjjffiheb-a
(PID.TID 0000.0001) //     25 chfa------ch+..................w...........njo+................+x-----bcqqojfefiiiijmy.++.........zkhfdbaa--aa-------daa---acccaaaacccca--------udaabbb----tei...................++q.++qdeqnghiljcaaaaidaa----beedeeca--
(PID.TID 0000.0001) //     24 eifa--acbcei...................w...........likn+.....++.....++znpa----bbnlmnjhinlksssw............qhfeca------------addc--aeffaaaaaaccb-a----a--+udbbaba---ven....................++..++xywnfgllcbbabegkecba----ddddcaac
(PID.TID 0000.0001) //     23 fida-aabchjk...................zz...z.....nhhijz....tqq.....+ujgzgd---abegklkkknols..xuu..........zgfdba------------bcd---affaaadffabbb-----aa-b.+ufb-----l.gx...........s.........+...++zzkfilfccccoz..ulkcd---bccnfddd
(PID.TID 0000.0001) //     22 fhfaa---bfgi....................zz..zz..rnjffggm...nlmn+....+sffzya--aabaffdfhimrmp...yuu.++.......zudba------------adc---dda-adffe-aa--------aa..+ufc-baaqvhh..........dcfeeh..........++zggqvifefhz......zobbaccfwuffe
(PID.TID 0000.0001) //     21 bcgca----abe.....................yss.ysstlgeeeeoz..ijklt+....lfjzzf---adaadcehllotq....yy+++zzs.....+zcba---a-------cdd--aaa----df------------aa...+upjdcy.vohq.......+idcdfeeefwz..wz....+hhn.vklox.........gdccfjwrigf
(PID.TID 0000.0001) //     20 bbcgfcaa-aae+...........................lcgfdddhq.+hiilnz++.+oquxyz--adgaabcfmtooyxz......+yuiiy....++gb------------ddcca-a-----acbaa------bbaaa......ywxy.lulo.lv...kcdgddffefffilyfilyx+fffk.+xyyy.........mgeimvskjkl
(PID.TID 0000.0001) //     19 feccdghfeegcbt..........................aafifccgnrzgghjry.+++sr+lq.--edftkblwnnsp.vv......skhggt...+++t-------------bdaf---------edd-------adlaa.........vnhzy.tllqiedccdhggfggffiigfiiggfcbdgy..yz..........xigqophijkk
(PID.TID 0000.0001) //     18 wifedfkhfegbbcivlqfoz..............j...jaacfihggokeeffgt..++++..hhlfdedd.qcz+.zwxtsttz..ysrkhot++++++zig------------b--f---------egqqqaa----frb-.......+kkrhw.vqmlnieddcdehgggffgigegigedbaaceiy.............zilrddefikk
(PID.TID 0000.0001) //     17 +wfeefikhgcbbccaaacgn.............ic..icaaccfihfoedddeedy..++...nnqwgfee.z++..+zsjjllllljllpjos+++.+zhhi---------e-----ea--------foqqoqqo--hlwge.......+nk+..xiioonhfefddegihhghigfdigfdbaaabdgx..............nheddefikl
(PID.TID 0000.0001) //     16 ..wiheddeccdfhfbabdfl............jdb.jdbaddddgifkccccdccd+.++..++ynvz.tku....++zyslllllkhggkmpy++...ihhi---------ea---feb-----a-acnoohfghknvmwnu........qhu..hhhkojgffgeefghihhiieedieedbaaabcdy..............ygddeghilj
(PID.TID 0000.0001) //     15 ....ylea--acfihebcbbes..........sfcbsfcbbngfffigcaaabdbcac+.+++++zgmpx..m....++..zslwz.yhhhhnz+++...rhgc--------ab----ige----acaaalllkddfiy..ysw........thk.xgghiligfghfefhhhhiiheedheedcdbbabdmz.............zfdeghikki
(PID.TID 0000.0001) //     14 ......c---acgkhdcc--di..........ofddofddchohffikaaaaabaaa-aw+.+ysnggox++rv..........yzzzzrjil+++....qhgd---------a-----i---cccdeabkklldinqssy..x.........+y.uhghikihgfghefgihhhgeeeeeeeeeddbaadhw.............nedeghjjhf
(PID.TID 0000.0001) //     13 .....+b----cfkhec---afz.........nhfdnhfdffholghkaaaaaba-a---flkkuswyy+++r...........zzzzz++ry++......yd------------------aeecdeidfkkqnqlmqquukqq............iihiijjhfefgefhjihiffgggfgggffecaabelx...........zjecehijhfe
(PID.TID 0000.0001) //     12 .....ec----chjhec---ag..........skiqskiqddeiiiifaaabae--a---dd--iu+++.++++..........+z+++++.+++....++.s----------------a-ceccdejhlllkqlkklssiccd...........wjkkkjjjigeefffgjiiighiiihiiihhhdaabdffghtxx......mfccehjiffd
(PID.TID 0000.0001) //     11 ....pdca--achlheba--ai..........nkn.nkn.fdemijidaaaabi-------a--q+....++s...........+++++..........+yyza--------b-----a--ccccddkhieekkossssfbbbb..........njjijhhihijhgggggjjjjijkkkjkkkkjjhcaacddeegpy.....xfdccdhjgfdd
(PID.TID 0000.0001) //     10 ....wfdb--achlhea---an.........uos..os..dcemikkfdcaabi-------equ+..................................zyvuq--------cc----a---dcfhkopqjeissrnpfbbccc........zslihhigghgijjihhhhkllkkkkkkkkkkjkkkedccdeeeeipz..zwhccbcdhgfddc
(PID.TID 0000.0001) //      9 ....vgec---bfikca--cjl+.......+nnv.+nv.+ccffhkkiddaadha-----as++........z++........................zxuuk----------a---a----djmqrrnlllsoiddcccccd.......+zjijhfgfggffhjkkkiillljihhghhhghgihighdeeffgghimnnjgecbbcdgfeccb
(PID.TID 0000.0001) //      8 ...zleca---afjfca--hdfz.......vkky.jky.jceddefijffdddhb--a-afv............ss.........................+yku---u--------------ejnpqqnninnritqdccchk......wihgghgeffffeefhijkjkljiigeeffeeffefffhjhhikkklljklmhffeeeggfdcbaa
(PID.TID 0000.0001) //      7 .+zohec--abcfkhecbchbdx.......qiht.fht.faaaabdgijgfededcdcb-f+.............pz.........................+zu---u--------------edefqgqddsz+......+yu+....tiggfggfeeeefeeefiiiijkiihhedddeddddddddjjllliijhfkmmkkjjhijgdcba--
(PID.TID 0000.0001) //      6 +yomfddcaabefkifdchaadt......uqdeisceisc----dfefgifffkklldc--v.............pp.........................v.x---x---------a----fbbpqgzenx+........zdlkhhfffffffgfeeeeeeeefhhhhijihhffddcfddcbbbbdhhiihedddb-cfhhhjjjieca----
(PID.TID 0000.0001) //      5 +nhgffkghccfhkhffgdaackz....uoibcimlcimlaaacfbddfjjhijeehf-a-c.............su.........................qk.yi-.yi-------gha-fjddqs+xkrz.........q-kdccdeeeeeeedddedddddgghhhhjhhgffcbbfcbbaaaaddfegecca----dfeefhfgdb-----
(PID.TID 0000.0001) //      4 ujhgfllfhdffhkfffca-aady...llnabdopfdopfcbdgdbcdehlihgfddc--ms........................................okn.zdn.zd---eciiiicfkeeqy.ysz..........n-dcbbdeddedcdcccdddcddffggghiggfffdbafdbaa---acdcccba--abvfedeffdcca----b
(PID.TID 0000.0001) //      3 jggfcceeffffjlkjgaa---bfvheeln-aesphesphfdhgabddeflihhgfecbaaayq+++++.................................kqnz.vnz.vtpkllgdccfkkkkk..++..........+g-caaadcdddcbbbbcdddcccdffffghgffffdcafdcaa----abcaaaa-acxxmecdjmdbba----r
(PID.TID 0000.0001) //      2 feecbbccddefilihecbaacbaajfega-aesqhesqhffiea-cdeflkkljifeddcba---bry+...............................vkqn+.sn+.sghfcbcbbbdgfdek.++++.........+l-aaaaccdccbaaabbddddccdffffghfeeeeecbeecba------baaaa-euwxqdbcdkud-----sy
(PID.TID 0000.0001) //      1 bbbaaaaaccdfhlhfefdcccaabjefbaaafonhfonhglid--adfgkkkklkhffddca-----s+++.............................xsrxz.txz.tedcbbbbaaadddet.++++.........+l--a-accddba--bbbddddccdfffhhgfeeddccbdccba-------aaaabgns.qcbcchyzqngll++
(PID.TID 0000.0001) //      0 ..aaaa-aacccfikkhecccbbbaaabaadfkl....lilmgebaadfijjiiikjhffdcba-----l.............................++..u+......zmdfbd---a-aeef.xx+..........++....-accdcb---bbbcdddddefffggfeeedcc....cbba----aa--alrwwy.kcbccc+...+++..
(PID.TID 0000.0001) //     -1 ..aaa----aacffiljgfffcca--adfikkii....kimiiheccfurkiffhijjigfecb-----l.............................+++++.z....+.wqgbf-------dgzpoy+........+ys....-abcccb---bbbbddddeffflhfeeeecbb....cbbaa----a--bdflm.yuibbcc.........
(PID.TID 0000.0001) // =======================================================
(PID.TID 0000.0001) // END OF FIELD                                          =
(PID.TID 0000.0001) // =======================================================
(PID.TID 0000.0001) 
(PID.TID 0000.0001) // =======================================================
(PID.TID 0000.0001) // Field Model Ro_surf (ini_masks_etc) at iteration          1
(PID.TID 0000.0001) // CMIN =         -7.105427357601002E-15
(PID.TID 0000.0001) // CMAX =         -7.105427357601002E-15
(PID.TID 0000.0001) // CINT =          0.000000000000000E+00
(PID.TID 0000.0001) // SYMBOLS (CMIN->CMAX): -abcdefghijklmnopqrstuvwxyz+
(PID.TID 0000.0001) //                  0.0: .
(PID.TID 0000.0001) // RANGE I (Lo:Hi:Step):(  -1: 194:   1)
(PID.TID 0000.0001) // RANGE J (Lo:Hi:Step):(  34:  -1:  -1)
(PID.TID 0000.0001) // RANGE K (Lo:Hi:Step):(   1:   1:   1)
(PID.TID 0000.0001) // =======================================================
(PID.TID 0000.0001) K =   1
(PID.TID 0000.0001) //                I=8       I=18      I=28      I=34      I=44      I=54      I=64      I=70      I=80      I=90      I=96      I=106     I=116     I=126     I=132     I=142     I=152     I=162     I=168     I=178     I=188
(PID.TID 0000.0001) // |--J--|*01234567|901234567|901234567|901234123|567890123|567890123|567890123|563456789|123456789|123456789|123456785|789012345|789012345|789012345|789078901|345678901|345678901|345678901|901234567|901234567|901234567|901234
(PID.TID 0000.0001) //     34 ........................................................................................................................................................................................................................
(PID.TID 0000.0001) //     33 ........................................................................................................................................................................................................................
(PID.TID 0000.0001) //     32 ........................................................................................................................................................................................................................
(PID.TID 0000.0001) //     31 ........................................................................................................................................................................................................................
(PID.TID 0000.0001) //     30 ........................................................................................................................................................................................................................
(PID.TID 0000.0001) //     29 ................................................................................-.......................................................................................................................................
(PID.TID 0000.0001) //     28 ........................................................................................................................................................................................................................
(PID.TID 0000.0001) //     27 .................................................................-......................................................................................................................................................
(PID.TID 0000.0001) //     26 ........................................................................................................................................................................................................................
(PID.TID 0000.0001) //     25 ........................................................................................................................................................................................................................
(PID.TID 0000.0001) //     24 ........................................................................................................................................................................................................................
(PID.TID 0000.0001) //     23 ........................................................................................................................................................................................................................
(PID.TID 0000.0001) //     22 ........................................................................................................................................................................................................................
(PID.TID 0000.0001) //     21 ........................................................................................................................................................................................................................
(PID.TID 0000.0001) //     20 ............................................................-...........................................................................................................................................................
(PID.TID 0000.0001) //     19 ........................................................................................................................................................................................................................
(PID.TID 0000.0001) //     18 ........................................................................................................................................................................................................................
(PID.TID 0000.0001) //     17 ........................................................................................................................................................................................................................
(PID.TID 0000.0001) //     16 ........................................................................................................................................................................................................................
(PID.TID 0000.0001) //     15 ........................................................................................................................................................................................................................
(PID.TID 0000.0001) //     14 ........................................................................................................................................................................................................................
(PID.TID 0000.0001) //     13 ........................................................................................................................................................................................................................
(PID.TID 0000.0001) //     12 ........................................................................................................................................................................................................................
(PID.TID 0000.0001) //     11 ........................................................................................................................................................................................................................
(PID.TID 0000.0001) //     10 ........................................................................................................................................................................................................................
(PID.TID 0000.0001) //      9 ..............................-....-...-................................................................................................................................................................................
(PID.TID 0000.0001) //      8 ........................................................................................................................................................................................................................
(PID.TID 0000.0001) //      7 ........................................................................................................................................................................................................................
(PID.TID 0000.0001) //      6 ........................................................................................................................................................................................................................
(PID.TID 0000.0001) //      5 ........................................................................................................................................................................................................................
(PID.TID 0000.0001) //      4 ........................................................................................................................................................................................................................
(PID.TID 0000.0001) //      3 ........................................................................................................................................................................................................................
(PID.TID 0000.0001) //      2 ........................................................................................................................................................................................................................
(PID.TID 0000.0001) //      1 ........................................................................................................................................................................................................................
(PID.TID 0000.0001) //      0 ........................................................................................................................................................................................................................
(PID.TID 0000.0001) //     -1 ........................................................................................................................................................................................................................
(PID.TID 0000.0001) // =======================================================
(PID.TID 0000.0001) // END OF FIELD                                          =
(PID.TID 0000.0001) // =======================================================
(PID.TID 0000.0001) 
(PID.TID 0000.0001) // =======================================================
(PID.TID 0000.0001) // Field hFacC at iteration          1
(PID.TID 0000.0001) // CMIN =          1.000000000000000E+00
(PID.TID 0000.0001) // CMAX =          1.000000000000000E+00
(PID.TID 0000.0001) // CINT =          0.000000000000000E+00
(PID.TID 0000.0001) // SYMBOLS (CMIN->CMAX): -abcdefghijklmnopqrstuvwxyz+
(PID.TID 0000.0001) //                  0.0: .
(PID.TID 0000.0001) // RANGE I (Lo:Hi:Step):(  -1: 194:   1)
(PID.TID 0000.0001) // RANGE J (Lo:Hi:Step):(  34:  -1:  -1)
(PID.TID 0000.0001) // RANGE K (Lo:Hi:Step):(   1:   1:   1)
(PID.TID 0000.0001) // =======================================================
(PID.TID 0000.0001) K =   1
(PID.TID 0000.0001) //                I=8       I=18      I=28      I=34      I=44      I=54      I=64      I=70      I=80      I=90      I=96      I=106     I=116     I=126     I=132     I=142     I=152     I=162     I=168     I=178     I=188
(PID.TID 0000.0001) // |--J--|*01234567|901234567|901234567|901234123|567890123|567890123|567890123|563456789|123456789|123456789|123456785|789012345|789012345|789012345|789078901|345678901|345678901|345678901|901234567|901234567|901234567|901234
(PID.TID 0000.0001) //     34 ..----------------........----...................................-----....------------..............------....--------------------------------....-----------------.......--------....--------------------------------..
(PID.TID 0000.0001) //     33 ..----------------.......--......................................-----....-----------...............------....--------------------------------....-----------------........-------....--------------------------------..
(PID.TID 0000.0001) //     32 ------------------..-.-..-.....................................--..--...------------................--------------------------------------------------------------.........---------------------------------------------
(PID.TID 0000.0001) //     31 ----------------..------.-.....................................-----.--------------................---------------------------------------------------------------..........--------------------------------------------
(PID.TID 0000.0001) //     30 ----------------.-------------.................................---------------------...............-------------------------------------------------------------..............------------------------------------------
(PID.TID 0000.0001) //     29 ------------------...---------..................................-----------------......--.........--------------------------------------------------------------...............-----------------------------------------
(PID.TID 0000.0001) //     28 ---------------........-........................................------------------.....---........--------------------------------------------------------------................----------------------------------------
(PID.TID 0000.0001) //     27 ---------------..........................---....................--------------------....--........-------------------------------------------------------------.................----------------------------------------
(PID.TID 0000.0001) //     26 --------------...........................----...................--------------------------........------------------------------------------------------------...................---.-----------------------------------
(PID.TID 0000.0001) //     25 -------------..................-...........----................-----------------------.--.........------------------------------------------------------------...................---.-----------------------------------
(PID.TID 0000.0001) //     24 ------------...................-...........-----.....--.....--------------------------............------------------------------------------------------------....................--..----------------------------------
(PID.TID 0000.0001) //     23 ------------...................--...-.....------....---.....-----------------------..---..........----------------------------------------------.----------.--...........-.........-...---------------..----------------
(PID.TID 0000.0001) //     22 ------------....................--..--..--------...-----....-----------------------...---.--.......---------------------------------------------..------------..........------..........-------------......-------------
(PID.TID 0000.0001) //     21 ------------.....................---.------------..------....----------------------....--------.....--------------------------------------------...-------.----.......------------..--....----.-----.........-----------
(PID.TID 0000.0001) //     20 -------------...........................---------.---------.------------------------......------....--------------------------------------------......----.----.--...-------------------------.-----.........-----------
(PID.TID 0000.0001) //     19 --------------..........................-----------------.--------.--------------.--......------...---------------------------------------------.........-----.--------------------------------..--..........-----------
(PID.TID 0000.0001) //     18 ---------------------..............-...-----------------..----..--------.----.--------..--------------------------------------------------------.......------.----------------------------------.............-----------
(PID.TID 0000.0001) //     17 ---------------------.............--..-------------------..--...--------.---..--------------------.---------------------------------------------.......----..-----------------------------------..............----------
(PID.TID 0000.0001) //     16 ..-------------------............---.---------------------.--..------.---....--------------------...--------------------------------------------........---..-----------------------------------..............----------
(PID.TID 0000.0001) //     15 ....------------------..........---------------------------.----------..-....--..-----.----------...---------------------------------------..---........---.-------------------------------------.............----------
(PID.TID 0000.0001) //     14 ......----------------..........-----------------------------.------------..........------------....-----------------------------------------..-.........--.-------------------------------------.............----------
(PID.TID 0000.0001) //     13 .....------------------.........-----------------------------------------...........-----------......-------------------------------------------............--------------------------------------...........-----------
(PID.TID 0000.0001) //     12 .....-----------------..........-------------------------------------.----..........-------.---....--.------------------------------------------...........--------------------------------------------......-----------
(PID.TID 0000.0001) //     11 ....------------------..........---.---.--------------------------....---...........-----..........---------------------------------------------..........---------------------------------------------.....------------
(PID.TID 0000.0001) //     10 ....------------------.........---..--..-------------------------..................................---------------------------------------------........------------------------------------------------..--------------
(PID.TID 0000.0001) //      9 ....-------------------.......----.---.-------------------------........---........................---------------------------------------------.......-----------------------------------------------------------------
(PID.TID 0000.0001) //      8 ...--------------------.......----.---.-----------------------............--.........................-------------------------------------------......------------------------------------------------------------------
(PID.TID 0000.0001) //      7 .----------------------.......----.---.-----------------------.............--.........................---------------------------------......----....-------------------------------------------------------------------
(PID.TID 0000.0001) //      6 -----------------------......---------------------------------.............--.........................-.------------------------------........--------------------------------------------------------------------------
(PID.TID 0000.0001) //      5 ------------------------....----------------------------------.............--.........................--.---.------------------------.........--------------------------------------------------------------------------
(PID.TID 0000.0001) //      4 ------------------------...-----------------------------------........................................---.---.------------------.---..........--------------------------------------------------------------------------
(PID.TID 0000.0001) //      3 ---------------------------------------------------------------------.................................----.---.----------------..--..........---------------------------------------------------------------------------
(PID.TID 0000.0001) //      2 ----------------------------------------------------------------------...............................-----.---.----------------.----.........---------------------------------------------------------------------------
(PID.TID 0000.0001) //      1 ------------------------------------------------------------------------.............................-----.---.----------------.----.........-----------------------------------------------------------.---------------
(PID.TID 0000.0001) //      0 ..--------------------------------....--------------------------------.............................--..--......---------------.---..........--....--------------------------------....------------------.-------...---..
(PID.TID 0000.0001) //     -1 ..--------------------------------....--------------------------------.............................-----.-....-.-------------------........---....--------------------------------....-----------------.-------.........
(PID.TID 0000.0001) // =======================================================
(PID.TID 0000.0001) // END OF FIELD                                          =
(PID.TID 0000.0001) // =======================================================
(PID.TID 0000.0001) 
(PID.TID 0000.0001) // =======================================================
(PID.TID 0000.0001) // Field hFacW at iteration          1
(PID.TID 0000.0001) // CMIN =          1.000000000000000E+00
(PID.TID 0000.0001) // CMAX =          1.000000000000000E+00
(PID.TID 0000.0001) // CINT =          0.000000000000000E+00
(PID.TID 0000.0001) // SYMBOLS (CMIN->CMAX): -abcdefghijklmnopqrstuvwxyz+
(PID.TID 0000.0001) //                  0.0: .
(PID.TID 0000.0001) // RANGE I (Lo:Hi:Step):(  -1: 194:   1)
(PID.TID 0000.0001) // RANGE J (Lo:Hi:Step):(  34:  -1:  -1)
(PID.TID 0000.0001) // RANGE K (Lo:Hi:Step):(   1:   1:   1)
(PID.TID 0000.0001) // =======================================================
(PID.TID 0000.0001) K =   1
(PID.TID 0000.0001) //                I=8       I=18      I=28      I=34      I=44      I=54      I=64      I=70      I=80      I=90      I=96      I=106     I=116     I=126     I=132     I=142     I=152     I=162     I=168     I=178     I=188
(PID.TID 0000.0001) // |--J--|*01234567|901234567|901234567|901234123|567890123|567890123|567890123|563456789|123456789|123456789|123456785|789012345|789012345|789012345|789078901|345678901|345678901|345678901|901234567|901234567|901234567|901234
(PID.TID 0000.0001) //     34 ..----------------.........---....................................----....------------...............------...---------------------------------...-----------------........--------...---------------------------------.
(PID.TID 0000.0001) //     33 ..----------------........-.......................................----....-----------................------...---------------------------------...-----------------.........-------...---------------------------------.
(PID.TID 0000.0001) //     32 ------------------..............................................-...-...------------.................-------------------------------------------------------------..........--------------------------------------------
(PID.TID 0000.0001) //     31 ----------------...-----........................................----..-------------.................--------------------------------------------------------------...........-------------------------------------------
(PID.TID 0000.0001) //     30 ----------------..------------..................................--------------------................------------------------------------------------------------...............-----------------------------------------
(PID.TID 0000.0001) //     29 ------------------....--------...................................----------------.......-..........-------------------------------------------------------------................----------------------------------------
(PID.TID 0000.0001) //     28 ---------------..................................................-----------------......--.........-------------------------------------------------------------.................---.-----------------------------------
(PID.TID 0000.0001) //     27 ---------------...........................--.....................-------------------.....-.........------------------------------------------------------------..................---.-----------------------------------
(PID.TID 0000.0001) //     26 --------------............................---....................-------------------------.........-----------------------------------------------------------....................--..----------------------------------
(PID.TID 0000.0001) //     25 -------------...............................---.................----------------------..-..........-----------------------------------------------------------....................--..----------------------------------
(PID.TID 0000.0001) //     24 ------------................................----......-......-------------------------.............-----------------------------------------------------------.....................-...---------------------------------
(PID.TID 0000.0001) //     23 ------------....................-...-......-----.....--......----------------------...--...........---------------------------------------------..---------..-..........................--------------...---------------
(PID.TID 0000.0001) //     22 ------------.....................-...-...-------....----.....----------------------....--..-........--------------------------------------------...-----------...........-----...........------------.......------------
(PID.TID 0000.0001) //     21 ------------......................--..-----------...-----.....---------------------.....-------......-------------------------------------------....------..---........-----------..--.....---..----..........----------
(PID.TID 0000.0001) //     20 -------------............................--------..--------..-----------------------.......-----.....-------------------------------------------.......---..---..-....------------------------..----..........----------
(PID.TID 0000.0001) //     19 --------------...........................----------------..-------..-------------..-.......-----....--------------------------------------------..........----..-------------------------------...-...........----------
(PID.TID 0000.0001) //     18 .--------------------...................----------------...---...-------..---..-------...-------------------------------------------------------........-----..---------------------------------..............----------
(PID.TID 0000.0001) //     17 .--------------------..............-...------------------...-....-------..--...-------------------..--------------------------------------------........---...----------------------------------...............---------
(PID.TID 0000.0001) //     16 ...------------------.............--..--------------------..-...-----..--.....-------------------....-------------------------------------------.........--...----------------------------------...............---------
(PID.TID 0000.0001) //     15 .....-----------------...........---.----------------------..---------..-.....-...----..---------....--------------------------------------...--.........--..------------------------------------..............---------
(PID.TID 0000.0001) //     14 .......---------------...........---.------------------------..-----------...........-----------.....----------------------------------------.............-..------------------------------------..............---------
(PID.TID 0000.0001) //     13 ......-----------------..........---.------------------------------------............----------.......------------------------------------------.............-------------------------------------............----------
(PID.TID 0000.0001) //     12 ......----------------...........---.--------------------------------..---...........------..--.....-..-----------------------------------------............-------------------------------------------.......----------
(PID.TID 0000.0001) //     11 .....-----------------...........--..--..-------------------------.....--............----...........--------------------------------------------...........--------------------------------------------......-----------
(PID.TID 0000.0001) //     10 .....-----------------..........--..--...------------------------...................................--------------------------------------------.........-----------------------------------------------...-------------
(PID.TID 0000.0001) //      9 .....------------------........---..--..------------------------........---.........................--------------------------------------------........----------------------------------------------------------------
(PID.TID 0000.0001) //      8 ....-------------------........---..--..----------------------.............-..........................------------------------------------------.......-----------------------------------------------------------------
(PID.TID 0000.0001) //      7 ..---------------------........---..--..----------------------..............-..........................--------------------------------.......---.....------------------------------------------------------------------
(PID.TID 0000.0001) //      6 .----------------------.......--------------------------------..............-............................---.-------------------------.........-------------------------------------------------------------------------
(PID.TID 0000.0001) //      5 .-----------------------.....---------------------------------..............-..........................-..--..-----------------------..........-------------------------------------------------------------------------
(PID.TID 0000.0001) //      4 ------------------------....----------------------------------.........................................--..--..-----------------..--...........-------------------------------------------------------------------------
(PID.TID 0000.0001) //      3 ---------------------------------------------------------------------..................................---..--..---------------...-...........--------------------------------------------------------------------------
(PID.TID 0000.0001) //      2 ----------------------------------------------------------------------................................----..--..---------------..---..........--------------------------------------------------------------------------
(PID.TID 0000.0001) //      1 ------------------------------------------------------------------------..............................----..--..---------------..---..........----------------------------------------------------------..--------------
(PID.TID 0000.0001) //      0 ..---------------------------------...---------------------------------.............................-...-.......--------------..--...........--...---------------------------------...------------------..------....---.
(PID.TID 0000.0001) //     -1 ..---------------------------------...---------------------------------.............................----..-...-..------------------.........---...---------------------------------...-----------------..------.........
(PID.TID 0000.0001) // =======================================================
(PID.TID 0000.0001) // END OF FIELD                                          =
(PID.TID 0000.0001) // =======================================================
(PID.TID 0000.0001) 
(PID.TID 0000.0001) // =======================================================
(PID.TID 0000.0001) // Field hFacS at iteration          1
(PID.TID 0000.0001) // CMIN =          1.000000000000000E+00
(PID.TID 0000.0001) // CMAX =          1.000000000000000E+00
(PID.TID 0000.0001) // CINT =          0.000000000000000E+00
(PID.TID 0000.0001) // SYMBOLS (CMIN->CMAX): -abcdefghijklmnopqrstuvwxyz+
(PID.TID 0000.0001) //                  0.0: .
(PID.TID 0000.0001) // RANGE I (Lo:Hi:Step):(  -1: 194:   1)
(PID.TID 0000.0001) // RANGE J (Lo:Hi:Step):(  34:  -1:  -1)
(PID.TID 0000.0001) // RANGE K (Lo:Hi:Step):(   1:   1:   1)
(PID.TID 0000.0001) // =======================================================
(PID.TID 0000.0001) K =   1
(PID.TID 0000.0001) //                I=8       I=18      I=28      I=34      I=44      I=54      I=64      I=70      I=80      I=90      I=96      I=106     I=116     I=126     I=132     I=142     I=152     I=162     I=168     I=178     I=188
(PID.TID 0000.0001) // |--J--|*01234567|901234567|901234567|901234123|567890123|567890123|567890123|563456789|123456789|123456789|123456785|789012345|789012345|789012345|789078901|345678901|345678901|345678901|901234567|901234567|901234567|901234
(PID.TID 0000.0001) //     34 ..----------------........-......................................-----....-----------...............------....--------------------------------....-----------------........-------....--------------------------------..
(PID.TID 0000.0001) //     33 ------------------.......-.........................................--...------------................--------------------------------------------------------------.........---------------------------------------------
(PID.TID 0000.0001) //     32 ----------------....-.-..-.....................................--..-....-----------.................--------------------------------------------------------------..........--------------------------------------------
(PID.TID 0000.0001) //     31 ----------------..------.-.....................................-----.--------------................-------------------------------------------------------------..............------------------------------------------
(PID.TID 0000.0001) //     30 ----------------.-...---------..................................-----------------..................-------------------------------------------------------------...............-----------------------------------------
(PID.TID 0000.0001) //     29 ---------------........-........................................-----------------......--.........--------------------------------------------------------------................----------------------------------------
(PID.TID 0000.0001) //     28 ---------------.................................................------------------......--........-------------------------------------------------------------.................----------------------------------------
(PID.TID 0000.0001) //     27 --------------...........................---....................--------------------....--........------------------------------------------------------------...................---.-----------------------------------
(PID.TID 0000.0001) //     26 -------------..............................--...................----------------------.--.........------------------------------------------------------------...................---.-----------------------------------
(PID.TID 0000.0001) //     25 ------------...................-...........----................-----------------------............------------------------------------------------------------....................--..----------------------------------
(PID.TID 0000.0001) //     24 ------------...................-...........-----.....--.....-----------------------..-............----------------------------------------------.----------.--.....................-...---------------..----------------
(PID.TID 0000.0001) //     23 ------------....................-...-.....------....---.....-----------------------...--...........---------------------------------------------..---------.--...........-..............-------------......-------------
(PID.TID 0000.0001) //     22 ------------.....................-...-..--------...-----.....----------------------....--.--........--------------------------------------------...-------.---..........------............----.-----.........-----------
(PID.TID 0000.0001) //     21 ------------............................---------..------....----------------------.......-----.....--------------------------------------------......----.----.......------------..--....----.-----.........-----------
(PID.TID 0000.0001) //     20 -------------...........................---------.-------.-.------.--------------.--......------....--------------------------------------------.........-.---..--...-------------------------...--..........-----------
(PID.TID 0000.0001) //     19 --------------..........................----------------..----..--.-----.----.---.--......------...---------------------------------------------.........----..--------------------------------..............-----------
(PID.TID 0000.0001) //     18 ---------------------..............-...-----------------...--...--------.---..--------..----------.---------------------------------------------.......----...----------------------------------..............----------
(PID.TID 0000.0001) //     17 ..-------------------.............--..-------------------..--...-----.--......-------------------...--------------------------------------------........---..-----------------------------------..............----------
(PID.TID 0000.0001) //     16 ....-----------------............---.---------------------..-..------...-....--..-----.----------...---------------------------------------..---........---..-----------------------------------..............----------
(PID.TID 0000.0001) //     15 ......----------------..........---------------------------.-.--------..-...........--.---------....---------------------------------------....-.........--.-------------------------------------.............----------
(PID.TID 0000.0001) //     14 ......----------------..........-----------------------------.-----------...........-----------......----------------------------------------..-............-------------------------------------.............----------
(PID.TID 0000.0001) //     13 .....-----------------..........-------------------------------------.---...........-------.---.......------------------------------------------............--------------------------------------...........-----------
(PID.TID 0000.0001) //     12 .....-----------------..........---.---.--------------------------....---...........-----..........--.------------------------------------------...........--------------------------------------------......-----------
(PID.TID 0000.0001) //     11 ....------------------..........--..--..-------------------------..................................---------------------------------------------..........---------------------------------------------.....------------
(PID.TID 0000.0001) //     10 ....------------------.........---..--..------------------------...................................---------------------------------------------........------------------------------------------------..--------------
(PID.TID 0000.0001) //      9 ....-------------------.......----.---.-----------------------............-..........................-------------------------------------------.......-----------------------------------------------------------------
(PID.TID 0000.0001) //      8 ...--------------------.......----.---.-----------------------.............-..........................---------------------------------......---......------------------------------------------------------------------
(PID.TID 0000.0001) //      7 .----------------------.......----.---.-----------------------.............--.........................-.------------------------------........---....-------------------------------------------------------------------
(PID.TID 0000.0001) //      6 -----------------------......---------------------------------.............--.........................-..---.------------------------.........--------------------------------------------------------------------------
(PID.TID 0000.0001) //      5 ------------------------....----------------------------------........................................--..--..------------------.---..........--------------------------------------------------------------------------
(PID.TID 0000.0001) //      4 ------------------------...-----------------------------------........................................---..--..----------------..--...........--------------------------------------------------------------------------
(PID.TID 0000.0001) //      3 ---------------------------------------------------------------------.................................----.---.----------------..--..........---------------------------------------------------------------------------
(PID.TID 0000.0001) //      2 ----------------------------------------------------------------------...............................-----.---.----------------.----.........-----------------------------------------------------------.---------------
(PID.TID 0000.0001) //      1 ------------------------------------------------------------------------...............................--..--..---------------..--...........-----------------------------------------------------------.-------...----.
(PID.TID 0000.0001) //      0 ..--------------------------------....--------------------------------.............................--..-........--------------.---..........--....--------------------------------....-----------------..------.........
(PID.TID 0000.0001) //     -1 ..--------------------------------....--------------------------------.............................-----.-....-.-------------------........---....--------------------------------....-----------------.-------.........
(PID.TID 0000.0001) // =======================================================
(PID.TID 0000.0001) // END OF FIELD                                          =
(PID.TID 0000.0001) // =======================================================
(PID.TID 0000.0001) 
(PID.TID 0000.0001)  PACKAGES_BOOT: opening data.pkg
(PID.TID 0000.0001)  OPEN_COPY_DATA_FILE: opening file data.pkg
(PID.TID 0000.0001) // =======================================================
(PID.TID 0000.0001) // Parameter file "data.pkg"
(PID.TID 0000.0001) // =======================================================
(PID.TID 0000.0001) ># Packages
(PID.TID 0000.0001) > &PACKAGES
(PID.TID 0000.0001) > useGMRedi=.TRUE.,
(PID.TID 0000.0001) > useBulkforce=.TRUE.,
(PID.TID 0000.0001) > useThSIce=.TRUE.,
(PID.TID 0000.0001) > &
(PID.TID 0000.0001) 
(PID.TID 0000.0001)  PACKAGES_BOOT: finished reading data.pkg
(PID.TID 0000.0001)  GM_READPARMS: opening data.gmredi
(PID.TID 0000.0001)  OPEN_COPY_DATA_FILE: opening file data.gmredi
(PID.TID 0000.0001) // =======================================================
(PID.TID 0000.0001) // Parameter file "data.gmredi"
(PID.TID 0000.0001) // =======================================================
(PID.TID 0000.0001) ># GM+Redi package parameters:
(PID.TID 0000.0001) >
(PID.TID 0000.0001) >#-from MOM :
(PID.TID 0000.0001) ># GM_background_K: 	G & Mc.W  diffusion coefficient
(PID.TID 0000.0001) ># GM_maxSlope    :	max slope of isopycnals
(PID.TID 0000.0001) ># GM_Scrit       :	transition for scaling diffusion coefficient
(PID.TID 0000.0001) ># GM_Sd          :	half width scaling for diffusion coefficient
(PID.TID 0000.0001) ># GM_taper_scheme:	slope clipping or one of the tapering schemes
(PID.TID 0000.0001) ># GM_Kmin_horiz  :	horizontal diffusion minimum value
(PID.TID 0000.0001) >
(PID.TID 0000.0001) >#-Option parameters (needs to "define" options in GMREDI_OPTIONS.h")
(PID.TID 0000.0001) ># GM_isopycK     :	isopycnal diffusion coefficient (default=GM_background_K)
(PID.TID 0000.0001) ># GM_AdvForm     :	turn on GM Advective form       (default=Skew flux form)
(PID.TID 0000.0001) >
(PID.TID 0000.0001) > &GM_PARM01
(PID.TID 0000.0001) >  GM_background_K    = 800.,
(PID.TID 0000.0001) >  GM_taper_scheme    = 'gkw91',
(PID.TID 0000.0001) >  GM_maxSlope        = 1.e-2,
(PID.TID 0000.0001) >  GM_Kmin_horiz      = 50.,
(PID.TID 0000.0001) >  GM_Scrit           = 4.e-3,
(PID.TID 0000.0001) >  GM_Sd              = 1.e-3,
(PID.TID 0000.0001) ># GM_Visbeck_alpha   = 0.,
(PID.TID 0000.0001) ># GM_Visbeck_length  = 2.e+5,
(PID.TID 0000.0001) ># GM_Visbeck_depth   = 1.e+3,
(PID.TID 0000.0001) ># GM_Visbeck_maxval_K= 2.5e+3,
(PID.TID 0000.0001) > &end
(PID.TID 0000.0001) >
(PID.TID 0000.0001) >
(PID.TID 0000.0001) 
(PID.TID 0000.0001)  GM_READPARMS: finished reading data.gmredi
(PID.TID 0000.0001)  BULKF_READPARMS: opening data.blk
(PID.TID 0000.0001)  OPEN_COPY_DATA_FILE: opening file data.blk
(PID.TID 0000.0001) // =======================================================
(PID.TID 0000.0001) // Parameter file "data.blk"
(PID.TID 0000.0001) // =======================================================
(PID.TID 0000.0001) > &BULKF_CONST
(PID.TID 0000.0001) > Tf0kel = 273.15,
(PID.TID 0000.0001) > p0     = 1013.,
(PID.TID 0000.0001) > Rgas   = 287.,
(PID.TID 0000.0001) >#blk_taveFreq=1.,
(PID.TID 0000.0001) > &
(PID.TID 0000.0001) >
(PID.TID 0000.0001) > &BULKF_PARM01
(PID.TID 0000.0001) > RainFile=       'ncep_precip_cs.bin',
(PID.TID 0000.0001) > SolarFile=      'ncep_downsolar_cs.bin',
(PID.TID 0000.0001) > AirTempFile=    'ncep_tair_cs.bin',
(PID.TID 0000.0001) > AirhumidityFile='ncep_qair_cs.bin',
(PID.TID 0000.0001) > LongwaveFile=   'ncep_downlw_cs.bin',
(PID.TID 0000.0001) > UWindFile=      ' ',
(PID.TID 0000.0001) > VWindFile=      ' ',
(PID.TID 0000.0001) > WspeedFile=     'ncep_windspeed_cs.bin',
(PID.TID 0000.0001) > RunoffFile=     ' ',
(PID.TID 0000.0001) > QnetFile=       ' ',
(PID.TID 0000.0001) > EmPFile=        ' ',
(PID.TID 0000.0001) > CloudFile=      ' ',
(PID.TID 0000.0001) > &
(PID.TID 0000.0001) >
(PID.TID 0000.0001) > &BULKF_PARM02
(PID.TID 0000.0001) > qnet_off=0.0,
(PID.TID 0000.0001) > empmr_off=0.0,
(PID.TID 0000.0001) > conservcycle=311040000.,
(PID.TID 0000.0001) > &
(PID.TID 0000.0001) >
(PID.TID 0000.0001) 
(PID.TID 0000.0001)  BULKF_READPARMS: read BULKF_CONST
(PID.TID 0000.0001)  BULKF_READPARMS: read BULKF_PARM01
 BlkF: rhoa     =  1.3
 BlkF: rhofw    =  1000.
 BlkF: cpair    =  1004.
 BlkF: cpwv     =  1810.
 BlkF: Lvap     =  2500000.
 BlkF: Lfresh   =  334000.
 BlkF: Tf0kel   =  273.15
 BlkF: cdrag_1  =  0.0027
 BlkF: cdrag_2  =  0.000142
 BlkF: cdrag_3  =  7.64E-05
 BlkF: stefan   =  5.67E-08
 BlkF: xkar     =  0.4
 BlkF: Rvap     =  461.
 BlkF: p0       =  1013.
 BlkF: Qcoef    =  0.00375164857
 BlkF: humid_fac=  0.606
 BlkF: saltsat  =  0.98
 BlkF: gamma_blk=  0.01
 BlkF: Lvap_ice =  2830000.
 BlkF: Rgas     =  287.
 BlkF: Sha      =  1003.4965
 BlkF: atm_emissivity  =  0.9
 BlkF: ocean_emissivity=  0.985
 BlkF: snow_emissivity =  0.98
 BlkF: ice_emissivity  =  0.98
 BlkF: blk_taveFreq=  31104000.
(PID.TID 0000.0001)  THSICE_READPARMS: opening data.ice
(PID.TID 0000.0001)  OPEN_COPY_DATA_FILE: opening file data.ice
(PID.TID 0000.0001) // =======================================================
(PID.TID 0000.0001) // Parameter file "data.ice"
(PID.TID 0000.0001) // =======================================================
(PID.TID 0000.0001) > &THSICE_CONST
(PID.TID 0000.0001) > Tf0kel  = 273.15,
(PID.TID 0000.0001) >#- for full ice-fraction :
(PID.TID 0000.0001) >#icemaskmin = 1.,
(PID.TID 0000.0001) >#himin0     = 0.01,
(PID.TID 0000.0001) >#frac_energy= 0.,
(PID.TID 0000.0001) >#hihig      =100.,
(PID.TID 0000.0001) >#- with fractional ice:
(PID.TID 0000.0001) > icemaskmin = 0.05,
(PID.TID 0000.0001) > hiMax      = 10.,
(PID.TID 0000.0001) > hsMax      = 10.,
(PID.TID 0000.0001) > iceMaskmax = 0.90,
(PID.TID 0000.0001) > &
(PID.TID 0000.0001) >
(PID.TID 0000.0001) > &THSICE_PARM01
(PID.TID 0000.0001) > StartIceModel=1,
(PID.TID 0000.0001) > stressReduction=1.,
(PID.TID 0000.0001) >#thSIce_taveFreq=2592000.,
(PID.TID 0000.0001) >#thSIce_diagFreq=2592000.,
(PID.TID 0000.0001) >#thSIce_monFreq=864000.,
(PID.TID 0000.0001) > &
(PID.TID 0000.0001) >
(PID.TID 0000.0001) 
(PID.TID 0000.0001)  THSICE_READPARMS: read THSICE_CONST
(PID.TID 0000.0001)  THSICE_READPARMS: read THSICE_PARM01
 ThSI: rhos    =  330.
 ThSI: rhoi    =  900.
 ThSI: rhosw   =  1035.
 ThSI: rhofw   =  1000.
 ThSI: rhoiw   =  135.
 ThSI: cpice   =  2106.
 ThSI: cpwater =  3994.
 ThSI: kice    =  2.03
 ThSI: ksnow   =  0.3
 ThSI: transcoef=  0.006
 ThSI: Lfresh  =  334000.
 ThSI: qsnow   =  334000.
 ThSI: albsnodry=  0.85
 ThSI: albsnowet=  0.75
 ThSI: albicemax=  0.65
 ThSI: albicemin=  0.2
 ThSI: halb    =  0.5
 ThSI: i0      =  0.3
 ThSI: ksolar  =  1.5
 ThSI: saltice =  4.
 ThSI: S_winton=  1.
 ThSI: mu_Tf   =  0.054
 ThSI: Tf0kel  =  273.15
 ThSI: Tmlt1   = -0.054
 ThSI: himin   =  0.01
 ThSI: Terrmax =  0.5
 ThSI: nitMaxTsf= 20
 ThSI: hiMax   =  10.
 ThSI: hsMax   =  10.
 ThSI: iceMaskmax=  0.9
 ThSI: iceMaskmin=  0.05
 ThSI: himin0  =  0.2
 ThSI: frac_energy  0.4
 ThSI: hihig   =  2.5
 ThSI: stressReduction =  1.
 ThSI: thSIce_deltaT  =  86400.
 ThSI: thSIce_taveFreq=  31104000.
 ThSI: thSIce_diagFreq=  31104000.
 ThSI: thSIce_monFreq =  1.
 ThSI: startIceModel = 1
(PID.TID 0000.0001) 
(PID.TID 0000.0001) // ===================================
(PID.TID 0000.0001) // GAD parameters :
(PID.TID 0000.0001) // ===================================
(PID.TID 0000.0001) tempAdvScheme =   /* Temp. advection scheme selector */
(PID.TID 0000.0001)                       2
(PID.TID 0000.0001)     ;
(PID.TID 0000.0001) tempMultiDimAdvec =   /* use Muti-Dim Advec method for Temp */
(PID.TID 0000.0001)                   F
(PID.TID 0000.0001)     ;
(PID.TID 0000.0001) tempAdamsBashforth =   /* use Adams-Bashforth time-stepping for Temp */
(PID.TID 0000.0001)                   T
(PID.TID 0000.0001)     ;
(PID.TID 0000.0001) saltAdvScheme =   /* Salt. advection scheme selector */
(PID.TID 0000.0001)                       2
(PID.TID 0000.0001)     ;
(PID.TID 0000.0001) saltMultiDimAdvec =   /* use Muti-Dim Advec method for Salt */
(PID.TID 0000.0001)                   F
(PID.TID 0000.0001)     ;
(PID.TID 0000.0001) saltAdamsBashforth =   /* use Adams-Bashforth time-stepping for Salt */
(PID.TID 0000.0001)                   T
(PID.TID 0000.0001)     ;
(PID.TID 0000.0001) // ===================================
(PID.TID 0000.0001) GMREDI_CHECK: #define GMREDI
(PID.TID 0000.0001) GM_AdvForm =  /* if FALSE => use SkewFlux Form */
(PID.TID 0000.0001)                   F
(PID.TID 0000.0001)     ;
(PID.TID 0000.0001) GM_AdvSeparate = /* Calc Bolus & Euler Adv. separately */
(PID.TID 0000.0001)                   F
(PID.TID 0000.0001)     ;
(PID.TID 0000.0001) GM_ExtraDiag =  /* Tensor Extra Diag (line 1&2) non 0 */
(PID.TID 0000.0001)                   F
(PID.TID 0000.0001)     ;
(PID.TID 0000.0001) GM_isopycK =   /* Background Isopyc. Diffusivity ( m^2/s ) */
(PID.TID 0000.0001)                 8.000000000000000E+02
(PID.TID 0000.0001)     ;
(PID.TID 0000.0001)  GM_skewflx*K =   /* Background GM_SkewFlx Diffusivity ( m^2/s ) */
(PID.TID 0000.0001)                 8.000000000000000E+02
(PID.TID 0000.0001)     ;
(PID.TID 0000.0001)  GM_advec*K =   /* Backg. GM-Advec(=Bolus) Diffusivity ( m^2/s ) */
(PID.TID 0000.0001)                 0.000000000000000E+00
(PID.TID 0000.0001)     ;
(PID.TID 0000.0001)  GM_Visbeck_alpha =   /* Visbeck alpha coeff. ( ) */
(PID.TID 0000.0001)                 0.000000000000000E+00
(PID.TID 0000.0001)     ;
(PID.TID 0000.0001)  Tapering/Cliping : gkw91
(PID.TID 0000.0001)  GM_Small_Number =  /* epsilon used in slope calc */
(PID.TID 0000.0001)                 1.000000000000000E-12
(PID.TID 0000.0001)     ;
(PID.TID 0000.0001)  GM_slopeSqCutoff =  /* Slope^2 cut-off value */
(PID.TID 0000.0001)                 1.000000000000000E+48
(PID.TID 0000.0001)     ;
(PID.TID 0000.0001) %MON fCori_max                    =   1.4535016908525E-04
(PID.TID 0000.0001) %MON fCori_min                    =  -1.4535016908525E-04
(PID.TID 0000.0001) %MON fCori_mean                   =   8.5365039215472E-22
(PID.TID 0000.0001) %MON fCori_sd                     =   8.3972192788621E-05
(PID.TID 0000.0001) %MON fCoriG_max                   =   1.4544410433286E-04
(PID.TID 0000.0001) %MON fCoriG_min                   =  -1.4544410433286E-04
(PID.TID 0000.0001) %MON fCoriG_mean                  =   9.9796700966398E-22
(PID.TID 0000.0001) %MON fCoriG_sd                    =   8.4860812167727E-05
(PID.TID 0000.0001) %MON fCoriCos_max                 =   1.4540341538469E-04
(PID.TID 0000.0001) %MON fCoriCos_min                 =   5.2264550201501E-06
(PID.TID 0000.0001) %MON fCoriCos_mean                =   1.1482595466044E-04
(PID.TID 0000.0001) %MON fCoriCos_sd                  =   3.0292878037194E-05
(PID.TID 0000.0001) // CG2D normalisation factor =          0.1915656415494955346241757E-03
(PID.TID 0000.0001) 
 ini_cg2d: sumArea,cg2dTolerance =  3.63886737508162E+14  5.80901636017533E-07
(PID.TID 0000.0001) CONFIG_CHECK: OK
(PID.TID 0000.0001) // =======================================================
(PID.TID 0000.0001) // Model configuration
(PID.TID 0000.0001) // =======================================================
(PID.TID 0000.0001) //
(PID.TID 0000.0001) // "Physical" paramters ( PARM01 in namelist )
(PID.TID 0000.0001) //
(PID.TID 0000.0001) buoyancyRelation = OCEANIC
(PID.TID 0000.0001) tRef =   /* Reference temperature profile ( oC or oK ) */
(PID.TID 0000.0001)    15 @  2.000000000000000E+01              /* K =  1: 15 */
(PID.TID 0000.0001)     ;
(PID.TID 0000.0001) sRef =   /* Reference salinity profile ( ppt ) */
(PID.TID 0000.0001)    15 @  3.500000000000000E+01              /* K =  1: 15 */
(PID.TID 0000.0001)     ;
(PID.TID 0000.0001) viscAh =   /* Lateral eddy viscosity ( m^2/s ) */
(PID.TID 0000.0001)                 3.000000000000000E+05
(PID.TID 0000.0001)     ;
(PID.TID 0000.0001) viscAh =   /* Lateral biharmonic viscosity ( m^4/s ) */
(PID.TID 0000.0001)                 0.000000000000000E+00
(PID.TID 0000.0001)     ;
(PID.TID 0000.0001) no_slip_sides =  /* Viscous BCs: No-slip sides */
(PID.TID 0000.0001)                   T
(PID.TID 0000.0001)     ;
(PID.TID 0000.0001) viscAr =   /* Vertical eddy viscosity ( units of r^2/s ) */
(PID.TID 0000.0001)                 1.000000000000000E-03
(PID.TID 0000.0001)     ;
(PID.TID 0000.0001) diffKhT =   /* Laplacian diffusion of heat laterally ( m^2/s ) */
(PID.TID 0000.0001)                 0.000000000000000E+00
(PID.TID 0000.0001)     ;
(PID.TID 0000.0001) diffK4T =   /* Bihaarmonic diffusion of heat laterally ( m^4/s ) */
(PID.TID 0000.0001)                 0.000000000000000E+00
(PID.TID 0000.0001)     ;
(PID.TID 0000.0001) diffKrT =   /* Laplacian diffusion of heat vertically ( m^2/s ) */
(PID.TID 0000.0001)                 3.000000000000000E-05
(PID.TID 0000.0001)     ;
(PID.TID 0000.0001) diffKhS =   /* Laplacian diffusion of salt laterally ( m^2/s ) */
(PID.TID 0000.0001)                 0.000000000000000E+00
(PID.TID 0000.0001)     ;
(PID.TID 0000.0001) diffK4S =   /* Bihaarmonic diffusion of salt laterally ( m^4/s ) */
(PID.TID 0000.0001)                 0.000000000000000E+00
(PID.TID 0000.0001)     ;
(PID.TID 0000.0001) diffKrS =   /* Laplacian diffusion of salt vertically ( m^2/s ) */
(PID.TID 0000.0001)                 3.000000000000000E-05
(PID.TID 0000.0001)     ;
(PID.TID 0000.0001)  Equation of State : eosType = JMD95Z
(PID.TID 0000.0001) tAlpha =   /* Linear EOS thermal expansion coefficient ( 1/degree ) */
(PID.TID 0000.0001)                 1.234567000000000E+05
(PID.TID 0000.0001)     ;
(PID.TID 0000.0001) sBeta =   /* Linear EOS haline contraction coefficient ( 1/ppt ) */
(PID.TID 0000.0001)                 1.234567000000000E+05
(PID.TID 0000.0001)     ;
(PID.TID 0000.0001) rhonil =   /* Reference density ( kg/m^3 ) */
(PID.TID 0000.0001)                 1.035000000000000E+03
(PID.TID 0000.0001)     ;
(PID.TID 0000.0001) rhoConst =   /* Reference density ( kg/m^3 ) */
(PID.TID 0000.0001)                 1.035000000000000E+03
(PID.TID 0000.0001)     ;
(PID.TID 0000.0001) rhoConstFresh =   /* Reference density ( kg/m^3 ) */
(PID.TID 0000.0001)                 1.000000000000000E+03
(PID.TID 0000.0001)     ;
(PID.TID 0000.0001) gravity =   /* Gravitational acceleration ( m/s^2 ) */
(PID.TID 0000.0001)                 9.810000000000000E+00
(PID.TID 0000.0001)     ;
(PID.TID 0000.0001) gBaro =   /* Barotropic gravity ( m/s^2 ) */
(PID.TID 0000.0001)                 9.810000000000000E+00
(PID.TID 0000.0001)     ;
(PID.TID 0000.0001) rotationPeriod =   /* Rotation Period ( s ) */
(PID.TID 0000.0001)                 8.640000000000000E+04
(PID.TID 0000.0001)     ;
(PID.TID 0000.0001) omega =   /* Angular velocity ( rad/s ) */
(PID.TID 0000.0001)                 7.272205216643040E-05
(PID.TID 0000.0001)     ;
(PID.TID 0000.0001) f0 =   /* Reference coriolis parameter ( 1/s ) */
(PID.TID 0000.0001)                 1.000000000000000E-04
(PID.TID 0000.0001)     ;
(PID.TID 0000.0001) beta =   /* Beta ( 1/(m.s) ) */
(PID.TID 0000.0001)                 9.999999999999999E-12
(PID.TID 0000.0001)     ;
(PID.TID 0000.0001) freeSurfFac =   /* Implicit free surface factor */
(PID.TID 0000.0001)                 1.000000000000000E+00
(PID.TID 0000.0001)     ;
(PID.TID 0000.0001) implicitFreeSurface =   /* Implicit free surface on/off flag */
(PID.TID 0000.0001)                   T
(PID.TID 0000.0001)     ;
(PID.TID 0000.0001) rigidLid =   /* Rigid lid on/off flag */
(PID.TID 0000.0001)                   F
(PID.TID 0000.0001)     ;
(PID.TID 0000.0001) implicSurfPress =   /* Surface Pressure implicit factor (0-1)*/
(PID.TID 0000.0001)                 1.000000000000000E+00
(PID.TID 0000.0001)     ;
(PID.TID 0000.0001) implicDiv2Dflow =   /* Barot. Flow Div. implicit factor (0-1)*/
(PID.TID 0000.0001)                 1.000000000000000E+00
(PID.TID 0000.0001)     ;
(PID.TID 0000.0001) exactConserv =   /* Exact Volume Conservation on/off flag*/
(PID.TID 0000.0001)                   T
(PID.TID 0000.0001)     ;
(PID.TID 0000.0001) uniformLin_PhiSurf =   /* use uniform Bo_surf on/off flag*/
(PID.TID 0000.0001)                   T
(PID.TID 0000.0001)     ;
(PID.TID 0000.0001) nonlinFreeSurf =   /* Non-linear Free Surf. options (-1,0,1,2,3)*/
(PID.TID 0000.0001)                       0
(PID.TID 0000.0001)     ;
(PID.TID 0000.0001)      -1,0= Off ; 1,2,3= On, 2=+rescale gU,gV, 3=+update cg2d solv.
(PID.TID 0000.0001) hFacInf =   /* lower threshold for hFac (nonlinFreeSurf only)*/
(PID.TID 0000.0001)                 2.000000000000000E-01
(PID.TID 0000.0001)     ;
(PID.TID 0000.0001) hFacSup =   /* upper threshold for hFac (nonlinFreeSurf only)*/
(PID.TID 0000.0001)                 2.000000000000000E+00
(PID.TID 0000.0001)     ;
(PID.TID 0000.0001) select_rStar =   /* r* Coordinate options (not yet implemented)*/
(PID.TID 0000.0001)                       0
(PID.TID 0000.0001)     ;
(PID.TID 0000.0001) useRealFreshWaterFlux =   /* Real Fresh Water Flux on/off flag*/
(PID.TID 0000.0001)                   F
(PID.TID 0000.0001)     ;
(PID.TID 0000.0001) convertFW2Salt = /* convert F.W. Flux to Salt Flux (-1=use local S)(ppt)*/
(PID.TID 0000.0001)                 3.500000000000000E+01
(PID.TID 0000.0001)     ;
(PID.TID 0000.0001) multiDimAdvection =   /* enable/disable Multi-Dim Advection */
(PID.TID 0000.0001)                   T
(PID.TID 0000.0001)     ;
(PID.TID 0000.0001) staggerTimeStep =   /* Stagger time stepping on/off flag */
(PID.TID 0000.0001)                   F
(PID.TID 0000.0001)     ;
(PID.TID 0000.0001) momStepping =  /* Momentum equation on/off flag */
(PID.TID 0000.0001)                   T
(PID.TID 0000.0001)     ;
(PID.TID 0000.0001) momAdvection =  /* Momentum advection on/off flag */
(PID.TID 0000.0001)                   T
(PID.TID 0000.0001)     ;
(PID.TID 0000.0001) momViscosity =  /* Momentum viscosity on/off flag */
(PID.TID 0000.0001)                   T
(PID.TID 0000.0001)     ;
(PID.TID 0000.0001) useCoriolis =  /* Coriolis on/off flag */
(PID.TID 0000.0001)                   T
(PID.TID 0000.0001)     ;
(PID.TID 0000.0001) momForcing =  /* Momentum forcing on/off flag */
(PID.TID 0000.0001)                   T
(PID.TID 0000.0001)     ;
(PID.TID 0000.0001) momPressureForcing =  /* Momentum pressure term on/off flag */
(PID.TID 0000.0001)                   T
(PID.TID 0000.0001)     ;
(PID.TID 0000.0001) tempStepping =  /* Temperature equation on/off flag */
(PID.TID 0000.0001)                   T
(PID.TID 0000.0001)     ;
(PID.TID 0000.0001) tempAdvection=  /* Temperature advection on/off flag */
(PID.TID 0000.0001)                   T
(PID.TID 0000.0001)     ;
(PID.TID 0000.0001) tempForcing  =  /* Temperature forcing on/off flag */
(PID.TID 0000.0001)                   T
(PID.TID 0000.0001)     ;
(PID.TID 0000.0001) saltStepping =  /* Salinity equation on/off flag */
(PID.TID 0000.0001)                   T
(PID.TID 0000.0001)     ;
(PID.TID 0000.0001) saltAdvection=  /* Salinity advection on/off flag */
(PID.TID 0000.0001)                   T
(PID.TID 0000.0001)     ;
(PID.TID 0000.0001) saltForcing  =  /* Salinity forcing on/off flag */
(PID.TID 0000.0001)                   T
(PID.TID 0000.0001)     ;
(PID.TID 0000.0001) nonHydrostatic =  /* Non-Hydrostatic on/off flag */
(PID.TID 0000.0001)                   F
(PID.TID 0000.0001)     ;
(PID.TID 0000.0001) useCDscheme =  /* CD scheme on/off flag */
(PID.TID 0000.0001)                   F
(PID.TID 0000.0001)     ;
(PID.TID 0000.0001) useJamartWetPoints= /* Coriolis WetPoints method flag */
(PID.TID 0000.0001)                   F
(PID.TID 0000.0001)     ;
(PID.TID 0000.0001) //
(PID.TID 0000.0001) // Elliptic solver(s) paramters ( PARM02 in namelist )
(PID.TID 0000.0001) //
(PID.TID 0000.0001) cg2dMaxIters =   /* Upper limit on 2d con. grad iterations  */
(PID.TID 0000.0001)                     200
(PID.TID 0000.0001)     ;
(PID.TID 0000.0001) cg2dChkResFreq =   /* 2d con. grad convergence test frequency */
(PID.TID 0000.0001)                       1
(PID.TID 0000.0001)     ;
(PID.TID 0000.0001) cg2dTargetResidual =   /* 2d con. grad target residual  */
(PID.TID 0000.0001)                 1.000000000000000E-07
(PID.TID 0000.0001)     ;
(PID.TID 0000.0001) //
(PID.TID 0000.0001) // Time stepping paramters ( PARM03 in namelist )
(PID.TID 0000.0001) //
(PID.TID 0000.0001) nIter0 =   /* Base timestep number  */
(PID.TID 0000.0001)                   72000
(PID.TID 0000.0001)     ;
(PID.TID 0000.0001) nTimeSteps =   /* Number of timesteps */
(PID.TID 0000.0001)                      20
(PID.TID 0000.0001)     ;
(PID.TID 0000.0001) deltatTmom =   /* Momentum equation timestep ( s ) */
(PID.TID 0000.0001)                 1.200000000000000E+03
(PID.TID 0000.0001)     ;
(PID.TID 0000.0001) deltaTfreesurf =   /* FreeSurface equation timestep ( s ) */
(PID.TID 0000.0001)                 8.640000000000000E+04
(PID.TID 0000.0001)     ;
(PID.TID 0000.0001) deltatTtracer =   /* Tracer equation timestep ( s ) */
(PID.TID 0000.0001)                 8.640000000000000E+04
(PID.TID 0000.0001)     ;
(PID.TID 0000.0001) deltatTClock  =   /* Model clock timestep ( s ) */
(PID.TID 0000.0001)                 8.640000000000000E+04
(PID.TID 0000.0001)     ;
(PID.TID 0000.0001) cAdjFreq =   /* Convective adjustment interval ( s ) */
(PID.TID 0000.0001)                 0.000000000000000E+00
(PID.TID 0000.0001)     ;
(PID.TID 0000.0001) forcing_In_AB =   /* put T,S Forcing in Adams-Bash. stepping */
(PID.TID 0000.0001)                   F
(PID.TID 0000.0001)     ;
(PID.TID 0000.0001) abeps =   /* Adams-Bashforth stabilizing weight */
(PID.TID 0000.0001)                 1.000000000000000E-01
(PID.TID 0000.0001)     ;
(PID.TID 0000.0001) startTime =   /* Run start time ( s ). */
(PID.TID 0000.0001)                 6.220800000000000E+09
(PID.TID 0000.0001)     ;
(PID.TID 0000.0001) endTime =   /* Integration ending time ( s ). */
(PID.TID 0000.0001)                 6.222528000000000E+09
(PID.TID 0000.0001)     ;
(PID.TID 0000.0001) pChkPtFreq =   /* Permanent restart/checkpoint file interval ( s ). */
(PID.TID 0000.0001)                 3.110400000000000E+07
(PID.TID 0000.0001)     ;
(PID.TID 0000.0001) chkPtFreq =   /* Rolling restart/checkpoint file interval ( s ). */
(PID.TID 0000.0001)                 0.000000000000000E+00
(PID.TID 0000.0001)     ;
(PID.TID 0000.0001) dumpFreq =   /* Model state write out interval ( s ). */
(PID.TID 0000.0001)                 3.110400000000000E+07
(PID.TID 0000.0001)     ;
(PID.TID 0000.0001) externForcingPeriod =   /* forcing period (s) */
(PID.TID 0000.0001)                 2.592000000000000E+06
(PID.TID 0000.0001)     ;
(PID.TID 0000.0001) externForcingCycle =   /* period of the cyle (s). */
(PID.TID 0000.0001)                 3.110400000000000E+07
(PID.TID 0000.0001)     ;
(PID.TID 0000.0001) tauThetaClimRelax =   /* relaxation time scale (s) */
(PID.TID 0000.0001)                 5.184000000000000E+06
(PID.TID 0000.0001)     ;
(PID.TID 0000.0001) tauSaltClimRelax =   /* relaxation time scale (s) */
(PID.TID 0000.0001)                 1.555200000000000E+07
(PID.TID 0000.0001)     ;
(PID.TID 0000.0001) latBandClimRelax =   /* max. Lat. where relaxation */
(PID.TID 0000.0001)                 5.000000000000000E+01
(PID.TID 0000.0001)     ;
(PID.TID 0000.0001) //
(PID.TID 0000.0001) // Gridding paramters ( PARM04 in namelist )
(PID.TID 0000.0001) //
(PID.TID 0000.0001) usingCartesianGrid =   /* Cartesian coordinates flag ( True / False ) */
(PID.TID 0000.0001)                   F
(PID.TID 0000.0001)     ;
(PID.TID 0000.0001) usingSphericalPolarGrid =   /* Spherical coordinates flag ( True / False ) */
(PID.TID 0000.0001)                   F
(PID.TID 0000.0001)     ;
(PID.TID 0000.0001) groundAtK1 =   /* Lower Boundary (ground) at the surface(k=1) ( T / F ) */
(PID.TID 0000.0001)                   F
(PID.TID 0000.0001)     ;
(PID.TID 0000.0001) Ro_SeaLevel =   /* r(1) ( units of r ) */
(PID.TID 0000.0001)                 0.000000000000000E+00
(PID.TID 0000.0001)     ;
(PID.TID 0000.0001) rkFac =   /* minus Vertical index orientation  */
(PID.TID 0000.0001)                 1.000000000000000E+00
(PID.TID 0000.0001)     ;
(PID.TID 0000.0001) horiVertRatio =   /* Ratio on units : Horiz - Vertical */
(PID.TID 0000.0001)                 1.000000000000000E+00
(PID.TID 0000.0001)     ;
(PID.TID 0000.0001) drC =   /* C spacing ( units of r ) */
(PID.TID 0000.0001)                 2.500000000000000E+01,      /* K =  1 */
(PID.TID 0000.0001)                 6.000000000000000E+01,      /* K =  2 */
(PID.TID 0000.0001)                 8.500000000000000E+01,      /* K =  3 */
(PID.TID 0000.0001)                 1.200000000000000E+02,      /* K =  4 */
(PID.TID 0000.0001)                 1.650000000000000E+02,      /* K =  5 */
(PID.TID 0000.0001)                 2.150000000000000E+02,      /* K =  6 */
(PID.TID 0000.0001)                 2.650000000000000E+02,      /* K =  7 */
(PID.TID 0000.0001)                 3.150000000000000E+02,      /* K =  8 */
(PID.TID 0000.0001)                 3.650000000000000E+02,      /* K =  9 */
(PID.TID 0000.0001)                 4.150000000000000E+02,      /* K = 10 */
(PID.TID 0000.0001)                 4.650000000000000E+02,      /* K = 11 */
(PID.TID 0000.0001)                 5.150000000000000E+02,      /* K = 12 */
(PID.TID 0000.0001)                 5.650000000000000E+02,      /* K = 13 */
(PID.TID 0000.0001)                 6.150000000000000E+02,      /* K = 14 */
(PID.TID 0000.0001)                 6.650000000000000E+02       /* K = 15 */
(PID.TID 0000.0001)     ;
(PID.TID 0000.0001) drF =   /* W spacing ( units of r ) */
(PID.TID 0000.0001)                 5.000000000000000E+01,      /* K =  1 */
(PID.TID 0000.0001)                 7.000000000000000E+01,      /* K =  2 */
(PID.TID 0000.0001)                 1.000000000000000E+02,      /* K =  3 */
(PID.TID 0000.0001)                 1.400000000000000E+02,      /* K =  4 */
(PID.TID 0000.0001)                 1.900000000000000E+02,      /* K =  5 */
(PID.TID 0000.0001)                 2.400000000000000E+02,      /* K =  6 */
(PID.TID 0000.0001)                 2.900000000000000E+02,      /* K =  7 */
(PID.TID 0000.0001)                 3.400000000000000E+02,      /* K =  8 */
(PID.TID 0000.0001)                 3.900000000000000E+02,      /* K =  9 */
(PID.TID 0000.0001)                 4.400000000000000E+02,      /* K = 10 */
(PID.TID 0000.0001)                 4.900000000000000E+02,      /* K = 11 */
(PID.TID 0000.0001)                 5.400000000000000E+02,      /* K = 12 */
(PID.TID 0000.0001)                 5.900000000000000E+02,      /* K = 13 */
(PID.TID 0000.0001)                 6.400000000000000E+02,      /* K = 14 */
(PID.TID 0000.0001)                 6.900000000000000E+02       /* K = 15 */
(PID.TID 0000.0001)     ;
(PID.TID 0000.0001) delX =   /* U spacing ( m - cartesian, degrees - spherical ) */
(PID.TID 0000.0001)   192 @  1.234567000000000E+05              /* I =  1:192 */
(PID.TID 0000.0001)     ;
(PID.TID 0000.0001) delY =   /* V spacing ( m - cartesian, degrees - spherical ) */
(PID.TID 0000.0001)    32 @  1.234567000000000E+05              /* J =  1: 32 */
(PID.TID 0000.0001)     ;
(PID.TID 0000.0001) phiMin =    /* South edge (ignored - cartesian, degrees - spherical ) */
(PID.TID 0000.0001)                 0.000000000000000E+00
(PID.TID 0000.0001)     ;
(PID.TID 0000.0001) thetaMin =    /* West edge ( ignored - cartesian, degrees - spherical ) */
(PID.TID 0000.0001)                 0.000000000000000E+00
(PID.TID 0000.0001)     ;
(PID.TID 0000.0001) rSphere =    /* Radius ( ignored - cartesian, m - spherical ) */
(PID.TID 0000.0001)                 6.370000000000000E+06
(PID.TID 0000.0001)     ;
(PID.TID 0000.0001) xcoord =   /* P-point X coord ( m - cartesian, degrees - spherical ) */
(PID.TID 0000.0001)                -4.439521994760536E+01,      /* I =  1 */
(PID.TID 0000.0001)                -4.295641272275883E+01,      /* I =  2 */
(PID.TID 0000.0001)                -4.122055553388957E+01,      /* I =  3 */
(PID.TID 0000.0001)                -3.923446288487304E+01,      /* I =  4 */
(PID.TID 0000.0001)                -3.702585158682200E+01,      /* I =  5 */
(PID.TID 0000.0001)                -3.461179367094151E+01,      /* I =  6 */
(PID.TID 0000.0001)                -3.200434569041793E+01,      /* I =  7 */
(PID.TID 0000.0001)                -2.921355965632675E+01,      /* I =  8 */
(PID.TID 0000.0001)                -2.624932223028290E+01,      /* I =  9 */
(PID.TID 0000.0001)                -2.312261250426344E+01,      /* I = 10 */
(PID.TID 0000.0001)                -1.984640717127058E+01,      /* I = 11 */
(PID.TID 0000.0001)                -1.643630800555134E+01,      /* I = 12 */
(PID.TID 0000.0001)                -1.291089806302069E+01,      /* I = 13 */
(PID.TID 0000.0001)                -9.291807802719402E+00,      /* I = 14 */
(PID.TID 0000.0001)                -5.603475335822332E+00,      /* I = 15 */
(PID.TID 0000.0001)                -1.872608513033445E+00,      /* I = 16 */
(PID.TID 0000.0001)                 1.872608513033445E+00,      /* I = 17 */
(PID.TID 0000.0001)                 5.603475335822332E+00,      /* I = 18 */
(PID.TID 0000.0001)                 9.291807802719402E+00,      /* I = 19 */
(PID.TID 0000.0001)                 1.291089806302069E+01,      /* I = 20 */
(PID.TID 0000.0001)                 1.643630800555134E+01,      /* I = 21 */
(PID.TID 0000.0001)                 1.984640717127058E+01,      /* I = 22 */
(PID.TID 0000.0001)                 2.312261250426344E+01,      /* I = 23 */
(PID.TID 0000.0001)                 2.624932223028290E+01,      /* I = 24 */
(PID.TID 0000.0001)                 2.921355965632675E+01,      /* I = 25 */
(PID.TID 0000.0001)                 3.200434569041793E+01,      /* I = 26 */
(PID.TID 0000.0001)                 3.461179367094151E+01,      /* I = 27 */
(PID.TID 0000.0001)                 3.702585158682200E+01,      /* I = 28 */
(PID.TID 0000.0001)                 3.923446288487304E+01,      /* I = 29 */
(PID.TID 0000.0001)                 4.122055553388957E+01,      /* I = 30 */
(PID.TID 0000.0001)                 4.295641272275883E+01,      /* I = 31 */
(PID.TID 0000.0001)                 4.439521994760536E+01,      /* I = 32 */
(PID.TID 0000.0001)                 4.560478005239464E+01,      /* I = 33 */
(PID.TID 0000.0001)                 4.704358727724117E+01,      /* I = 34 */
(PID.TID 0000.0001)                 4.877944446611043E+01,      /* I = 35 */
(PID.TID 0000.0001)                 5.076553711512697E+01,      /* I = 36 */
(PID.TID 0000.0001)                 5.297414841317801E+01,      /* I = 37 */
(PID.TID 0000.0001)                 5.538820632905850E+01,      /* I = 38 */
(PID.TID 0000.0001)                 5.799565430958209E+01,      /* I = 39 */
(PID.TID 0000.0001)                 6.078644034367325E+01,      /* I = 40 */
(PID.TID 0000.0001)                 6.375067776971711E+01,      /* I = 41 */
(PID.TID 0000.0001)                 6.687738749573657E+01,      /* I = 42 */
(PID.TID 0000.0001)                 7.015359282872943E+01,      /* I = 43 */
(PID.TID 0000.0001)                 7.356369199444866E+01,      /* I = 44 */
(PID.TID 0000.0001)                 7.708910193697932E+01,      /* I = 45 */
(PID.TID 0000.0001)                 8.070819219728060E+01,      /* I = 46 */
(PID.TID 0000.0001)                 8.439652466417766E+01,      /* I = 47 */
(PID.TID 0000.0001)                 8.812739148696656E+01,      /* I = 48 */
(PID.TID 0000.0001)                 9.187260851303344E+01,      /* I = 49 */
(PID.TID 0000.0001)                 9.560347533582234E+01,      /* I = 50 */
(PID.TID 0000.0001)                 9.929180780271940E+01,      /* I = 51 */
(PID.TID 0000.0001)                 1.029108980630207E+02,      /* I = 52 */
(PID.TID 0000.0001)                 1.064363080055513E+02,      /* I = 53 */
(PID.TID 0000.0001)                 1.098464071712706E+02,      /* I = 54 */
(PID.TID 0000.0001)                 1.131226125042634E+02,      /* I = 55 */
(PID.TID 0000.0001)                 1.162493222302829E+02,      /* I = 56 */
(PID.TID 0000.0001)                 1.192135596563268E+02,      /* I = 57 */
(PID.TID 0000.0001)                 1.220043456904179E+02,      /* I = 58 */
(PID.TID 0000.0001)                 1.246117936709415E+02,      /* I = 59 */
(PID.TID 0000.0001)                 1.270258515868220E+02,      /* I = 60 */
(PID.TID 0000.0001)                 1.292344628848730E+02,      /* I = 61 */
(PID.TID 0000.0001)                 1.312205555338896E+02,      /* I = 62 */
(PID.TID 0000.0001)                 1.329564127227588E+02,      /* I = 63 */
(PID.TID 0000.0001)                 1.343952199476053E+02,      /* I = 64 */
(PID.TID 0000.0001)                 4.500000000000000E+01,      /* I = 65 */
(PID.TID 0000.0001)                 4.620805468796297E+01,      /* I = 66 */
(PID.TID 0000.0001)                 4.781369642513039E+01,      /* I = 67 */
(PID.TID 0000.0001)                 4.971767671143929E+01,      /* I = 68 */
(PID.TID 0000.0001)                 5.187738319787235E+01,      /* I = 69 */
(PID.TID 0000.0001)                 5.427004371478710E+01,      /* I = 70 */
(PID.TID 0000.0001)                 5.688128325334060E+01,      /* I = 71 */
(PID.TID 0000.0001)                 5.970018167786760E+01,      /* I = 72 */
(PID.TID 0000.0001)                 6.271654991792347E+01,      /* I = 73 */
(PID.TID 0000.0001)                 6.591914604853015E+01,      /* I = 74 */
(PID.TID 0000.0001)                 6.929439270484148E+01,      /* I = 75 */
(PID.TID 0000.0001)                 7.282545807616151E+01,      /* I = 76 */
(PID.TID 0000.0001)                 7.649168830618933E+01,      /* I = 77 */
(PID.TID 0000.0001)                 8.026842803787176E+01,      /* I = 78 */
(PID.TID 0000.0001)                 8.412726743124185E+01,      /* I = 79 */
(PID.TID 0000.0001)                 8.803672008547504E+01,      /* I = 80 */
(PID.TID 0000.0001)                 9.196327991452496E+01,      /* I = 81 */
(PID.TID 0000.0001)                 9.587273256875815E+01,      /* I = 82 */
(PID.TID 0000.0001)                 9.973157196212824E+01,      /* I = 83 */
(PID.TID 0000.0001)                 1.035083116938107E+02,      /* I = 84 */
(PID.TID 0000.0001)                 1.071745419238385E+02,      /* I = 85 */
(PID.TID 0000.0001)                 1.107056072951585E+02,      /* I = 86 */
(PID.TID 0000.0001)                 1.140808539514698E+02,      /* I = 87 */
(PID.TID 0000.0001)                 1.172834500820765E+02,      /* I = 88 */
(PID.TID 0000.0001)                 1.202998183221324E+02,      /* I = 89 */
(PID.TID 0000.0001)                 1.231187167466594E+02,      /* I = 90 */
(PID.TID 0000.0001)                 1.257299562852129E+02,      /* I = 91 */
(PID.TID 0000.0001)                 1.281226168021277E+02,      /* I = 92 */
(PID.TID 0000.0001)                 1.302823232885607E+02,      /* I = 93 */
(PID.TID 0000.0001)                 1.321863035748696E+02,      /* I = 94 */
(PID.TID 0000.0001)                 1.337919453120370E+02,      /* I = 95 */
(PID.TID 0000.0001)                 1.350000000000000E+02,      /* I = 96 */
(PID.TID 0000.0001)                 1.356047800523947E+02,      /* I = 97 */
(PID.TID 0000.0001)                 1.358367907661329E+02,      /* I = 98 */
(PID.TID 0000.0001)                 1.359720382181193E+02,      /* I = 99 */
(PID.TID 0000.0001)                 1.360654656901789E+02,      /* I =100 */
(PID.TID 0000.0001)                 1.361344533147042E+02,      /* I =101 */
(PID.TID 0000.0001)                 1.361871219420981E+02,      /* I =102 */
(PID.TID 0000.0001)                 1.362280794509603E+02,      /* I =103 */
(PID.TID 0000.0001)                 1.362602511071934E+02,      /* I =104 */
(PID.TID 0000.0001)                 1.362856280326734E+02,      /* I =105 */
(PID.TID 0000.0001)                 1.363056266270901E+02,      /* I =106 */
(PID.TID 0000.0001)                 1.363212817739446E+02,      /* I =107 */
(PID.TID 0000.0001)                 1.363333595910255E+02,      /* I =108 */
(PID.TID 0000.0001)                 1.363424272425760E+02,      /* I =109 */
(PID.TID 0000.0001)                 1.363488978790713E+02,      /* I =110 */
(PID.TID 0000.0001)                 1.363530600590580E+02,      /* I =111 */
(PID.TID 0000.0001)     2 @  1.363550967500717E+02,             /* I =112:113 */
(PID.TID 0000.0001)                 1.363530600590580E+02,      /* I =114 */
(PID.TID 0000.0001)                 1.363488978790713E+02,      /* I =115 */
(PID.TID 0000.0001)                 1.363424272425760E+02,      /* I =116 */
(PID.TID 0000.0001)                 1.363333595910255E+02,      /* I =117 */
(PID.TID 0000.0001)                 1.363212817739446E+02,      /* I =118 */
(PID.TID 0000.0001)                 1.363056266270901E+02,      /* I =119 */
(PID.TID 0000.0001)                 1.362856280326734E+02,      /* I =120 */
(PID.TID 0000.0001)                 1.362602511071934E+02,      /* I =121 */
(PID.TID 0000.0001)                 1.362280794509603E+02,      /* I =122 */
(PID.TID 0000.0001)                 1.361871219420981E+02,      /* I =123 */
(PID.TID 0000.0001)                 1.361344533147042E+02,      /* I =124 */
(PID.TID 0000.0001)                 1.360654656901789E+02,      /* I =125 */
(PID.TID 0000.0001)                 1.359720382181193E+02,      /* I =126 */
(PID.TID 0000.0001)                 1.358367907661329E+02,      /* I =127 */
(PID.TID 0000.0001)                 1.356047800523947E+02,      /* I =128 */
(PID.TID 0000.0001)                -1.343952199476053E+02,      /* I =129 */
(PID.TID 0000.0001)                -1.341632092338671E+02,      /* I =130 */
(PID.TID 0000.0001)                -1.340279617818807E+02,      /* I =131 */
(PID.TID 0000.0001)                -1.339345343098211E+02,      /* I =132 */
(PID.TID 0000.0001)                -1.338655466852958E+02,      /* I =133 */
(PID.TID 0000.0001)                -1.338128780579019E+02,      /* I =134 */
(PID.TID 0000.0001)                -1.337719205490397E+02,      /* I =135 */
(PID.TID 0000.0001)                -1.337397488928066E+02,      /* I =136 */
(PID.TID 0000.0001)                -1.337143719673266E+02,      /* I =137 */
(PID.TID 0000.0001)                -1.336943733729099E+02,      /* I =138 */
(PID.TID 0000.0001)                -1.336787182260554E+02,      /* I =139 */
(PID.TID 0000.0001)                -1.336666404089745E+02,      /* I =140 */
(PID.TID 0000.0001)                -1.336575727574240E+02,      /* I =141 */
(PID.TID 0000.0001)                -1.336511021209287E+02,      /* I =142 */
(PID.TID 0000.0001)                -1.336469399409420E+02,      /* I =143 */
(PID.TID 0000.0001)     2 @ -1.336449032499283E+02,             /* I =144:145 */
(PID.TID 0000.0001)                -1.336469399409420E+02,      /* I =146 */
(PID.TID 0000.0001)                -1.336511021209287E+02,      /* I =147 */
(PID.TID 0000.0001)                -1.336575727574240E+02,      /* I =148 */
(PID.TID 0000.0001)                -1.336666404089745E+02,      /* I =149 */
(PID.TID 0000.0001)                -1.336787182260554E+02,      /* I =150 */
(PID.TID 0000.0001)                -1.336943733729099E+02,      /* I =151 */
(PID.TID 0000.0001)                -1.337143719673266E+02,      /* I =152 */
(PID.TID 0000.0001)                -1.337397488928066E+02,      /* I =153 */
(PID.TID 0000.0001)                -1.337719205490397E+02,      /* I =154 */
(PID.TID 0000.0001)                -1.338128780579019E+02,      /* I =155 */
(PID.TID 0000.0001)                -1.338655466852958E+02,      /* I =156 */
(PID.TID 0000.0001)                -1.339345343098211E+02,      /* I =157 */
(PID.TID 0000.0001)                -1.340279617818807E+02,      /* I =158 */
(PID.TID 0000.0001)                -1.341632092338671E+02,      /* I =159 */
(PID.TID 0000.0001)                -1.343952199476053E+02,      /* I =160 */
(PID.TID 0000.0001)                -1.350000000000000E+02,      /* I =161 */
(PID.TID 0000.0001)                -1.362080546879630E+02,      /* I =162 */
(PID.TID 0000.0001)                -1.378136964251304E+02,      /* I =163 */
(PID.TID 0000.0001)                -1.397176767114393E+02,      /* I =164 */
(PID.TID 0000.0001)                -1.418773831978723E+02,      /* I =165 */
(PID.TID 0000.0001)                -1.442700437147871E+02,      /* I =166 */
(PID.TID 0000.0001)                -1.468812832533406E+02,      /* I =167 */
(PID.TID 0000.0001)                -1.497001816778676E+02,      /* I =168 */
(PID.TID 0000.0001)                -1.527165499179235E+02,      /* I =169 */
(PID.TID 0000.0001)                -1.559191460485302E+02,      /* I =170 */
(PID.TID 0000.0001)                -1.592943927048415E+02,      /* I =171 */
(PID.TID 0000.0001)                -1.628254580761615E+02,      /* I =172 */
(PID.TID 0000.0001)                -1.664916883061893E+02,      /* I =173 */
(PID.TID 0000.0001)                -1.702684280378718E+02,      /* I =174 */
(PID.TID 0000.0001)                -1.741272674312418E+02,      /* I =175 */
(PID.TID 0000.0001)                -1.780367200854751E+02,      /* I =176 */
(PID.TID 0000.0001)                 1.780367200854751E+02,      /* I =177 */
(PID.TID 0000.0001)                 1.741272674312418E+02,      /* I =178 */
(PID.TID 0000.0001)                 1.702684280378718E+02,      /* I =179 */
(PID.TID 0000.0001)                 1.664916883061893E+02,      /* I =180 */
(PID.TID 0000.0001)                 1.628254580761615E+02,      /* I =181 */
(PID.TID 0000.0001)                 1.592943927048415E+02,      /* I =182 */
(PID.TID 0000.0001)                 1.559191460485302E+02,      /* I =183 */
(PID.TID 0000.0001)                 1.527165499179235E+02,      /* I =184 */
(PID.TID 0000.0001)                 1.497001816778676E+02,      /* I =185 */
(PID.TID 0000.0001)                 1.468812832533406E+02,      /* I =186 */
(PID.TID 0000.0001)                 1.442700437147871E+02,      /* I =187 */
(PID.TID 0000.0001)                 1.418773831978723E+02,      /* I =188 */
(PID.TID 0000.0001)                 1.397176767114393E+02,      /* I =189 */
(PID.TID 0000.0001)                 1.378136964251304E+02,      /* I =190 */
(PID.TID 0000.0001)                 1.362080546879630E+02,      /* I =191 */
(PID.TID 0000.0001)                 1.350000000000000E+02       /* I =192 */
(PID.TID 0000.0001)     ;
(PID.TID 0000.0001) ycoord =   /* P-point Y coord ( m - cartesian, degrees - spherical ) */
(PID.TID 0000.0001)                -3.497677942598243E+01,      /* J =  1 */
(PID.TID 0000.0001)                -3.374005967394886E+01,      /* J =  2 */
(PID.TID 0000.0001)                -3.220655175667454E+01,      /* J =  3 */
(PID.TID 0000.0001)                -3.045756348838641E+01,      /* J =  4 */
(PID.TID 0000.0001)                -2.853728129852918E+01,      /* J =  5 */
(PID.TID 0000.0001)                -2.647426640173173E+01,      /* J =  6 */
(PID.TID 0000.0001)                -2.428936657094636E+01,      /* J =  7 */
(PID.TID 0000.0001)                -2.199915808312262E+01,      /* J =  8 */
(PID.TID 0000.0001)                -1.961768597440146E+01,      /* J =  9 */
(PID.TID 0000.0001)                -1.715743888281371E+01,      /* J = 10 */
(PID.TID 0000.0001)                -1.462993396899330E+01,      /* J = 11 */
(PID.TID 0000.0001)                -1.204608340464756E+01,      /* J = 12 */
(PID.TID 0000.0001)                -9.416429130284818E+00,      /* J = 13 */
(PID.TID 0000.0001)                -6.751293662992216E+00,      /* J = 14 */
(PID.TID 0000.0001)                -4.060875511835959E+00,      /* J = 15 */
(PID.TID 0000.0001)                -1.355307764409121E+00,      /* J = 16 */
(PID.TID 0000.0001)                 1.355307764409121E+00,      /* J = 17 */
(PID.TID 0000.0001)                 4.060875511835959E+00,      /* J = 18 */
(PID.TID 0000.0001)                 6.751293662992216E+00,      /* J = 19 */
(PID.TID 0000.0001)                 9.416429130284818E+00,      /* J = 20 */
(PID.TID 0000.0001)                 1.204608340464756E+01,      /* J = 21 */
(PID.TID 0000.0001)                 1.462993396899330E+01,      /* J = 22 */
(PID.TID 0000.0001)                 1.715743888281371E+01,      /* J = 23 */
(PID.TID 0000.0001)                 1.961768597440146E+01,      /* J = 24 */
(PID.TID 0000.0001)                 2.199915808312262E+01,      /* J = 25 */
(PID.TID 0000.0001)                 2.428936657094636E+01,      /* J = 26 */
(PID.TID 0000.0001)                 2.647426640173173E+01,      /* J = 27 */
(PID.TID 0000.0001)                 2.853728129852918E+01,      /* J = 28 */
(PID.TID 0000.0001)                 3.045756348838641E+01,      /* J = 29 */
(PID.TID 0000.0001)                 3.220655175667454E+01,      /* J = 30 */
(PID.TID 0000.0001)                 3.374005967394886E+01,      /* J = 31 */
(PID.TID 0000.0001)                 3.497677942598243E+01       /* J = 32 */
(PID.TID 0000.0001)     ;
(PID.TID 0000.0001) rcoord =   /* P-point R coordinate (  units of r ) */
(PID.TID 0000.0001)                -2.500000000000000E+01,      /* K =  1 */
(PID.TID 0000.0001)                -8.500000000000000E+01,      /* K =  2 */
(PID.TID 0000.0001)                -1.700000000000000E+02,      /* K =  3 */
(PID.TID 0000.0001)                -2.900000000000000E+02,      /* K =  4 */
(PID.TID 0000.0001)                -4.550000000000000E+02,      /* K =  5 */
(PID.TID 0000.0001)                -6.700000000000000E+02,      /* K =  6 */
(PID.TID 0000.0001)                -9.350000000000000E+02,      /* K =  7 */
(PID.TID 0000.0001)                -1.250000000000000E+03,      /* K =  8 */
(PID.TID 0000.0001)                -1.615000000000000E+03,      /* K =  9 */
(PID.TID 0000.0001)                -2.030000000000000E+03,      /* K = 10 */
(PID.TID 0000.0001)                -2.495000000000000E+03,      /* K = 11 */
(PID.TID 0000.0001)                -3.010000000000000E+03,      /* K = 12 */
(PID.TID 0000.0001)                -3.575000000000000E+03,      /* K = 13 */
(PID.TID 0000.0001)                -4.190000000000000E+03,      /* K = 14 */
(PID.TID 0000.0001)                -4.855000000000000E+03       /* K = 15 */
(PID.TID 0000.0001)     ;
(PID.TID 0000.0001) rF =   /* W-Interf. R coordinate (  units of r ) */
(PID.TID 0000.0001)                 0.000000000000000E+00,      /* K =  1 */
(PID.TID 0000.0001)                -5.000000000000000E+01,      /* K =  2 */
(PID.TID 0000.0001)                -1.200000000000000E+02,      /* K =  3 */
(PID.TID 0000.0001)                -2.200000000000000E+02,      /* K =  4 */
(PID.TID 0000.0001)                -3.600000000000000E+02,      /* K =  5 */
(PID.TID 0000.0001)                -5.500000000000000E+02,      /* K =  6 */
(PID.TID 0000.0001)                -7.900000000000000E+02,      /* K =  7 */
(PID.TID 0000.0001)                -1.080000000000000E+03,      /* K =  8 */
(PID.TID 0000.0001)                -1.420000000000000E+03,      /* K =  9 */
(PID.TID 0000.0001)                -1.810000000000000E+03,      /* K = 10 */
(PID.TID 0000.0001)                -2.250000000000000E+03,      /* K = 11 */
(PID.TID 0000.0001)                -2.740000000000000E+03,      /* K = 12 */
(PID.TID 0000.0001)                -3.280000000000000E+03,      /* K = 13 */
(PID.TID 0000.0001)                -3.870000000000000E+03,      /* K = 14 */
(PID.TID 0000.0001)                -4.510000000000000E+03,      /* K = 15 */
(PID.TID 0000.0001)                -5.200000000000000E+03       /* K = 16 */
(PID.TID 0000.0001)     ;
(PID.TID 0000.0001) dxF =  /* dxF(:,1,:,1) ( m - cartesian, degrees - spherical ) */
(PID.TID 0000.0001)                 1.202082051331828E+05,      /* I =  1 */
(PID.TID 0000.0001)                 1.563594089971120E+05,      /* I =  2 */
(PID.TID 0000.0001)                 1.835530058121492E+05,      /* I =  3 */
(PID.TID 0000.0001)                 2.045883481718707E+05,      /* I =  4 */
(PID.TID 0000.0001)                 2.218350349844185E+05,      /* I =  5 */
(PID.TID 0000.0001)                 2.364352994647058E+05,      /* I =  6 */
(PID.TID 0000.0001)                 2.490022710862746E+05,      /* I =  7 */
(PID.TID 0000.0001)                 2.598919724358304E+05,      /* I =  8 */
(PID.TID 0000.0001)                 2.693210245495156E+05,      /* I =  9 */
(PID.TID 0000.0001)                 2.774243179696503E+05,      /* I = 10 */
(PID.TID 0000.0001)                 2.842862532064524E+05,      /* I = 11 */
(PID.TID 0000.0001)                 2.899590699694043E+05,      /* I = 12 */
(PID.TID 0000.0001)                 2.944742915095688E+05,      /* I = 13 */
(PID.TID 0000.0001)                 2.978501920522794E+05,      /* I = 14 */
(PID.TID 0000.0001)                 3.000967749619962E+05,      /* I = 15 */
(PID.TID 0000.0001)     2 @  3.012190981969055E+05,             /* I = 16: 17 */
(PID.TID 0000.0001)                 3.000967749619962E+05,      /* I = 18 */
(PID.TID 0000.0001)                 2.978501920522794E+05,      /* I = 19 */
(PID.TID 0000.0001)                 2.944742915095688E+05,      /* I = 20 */
(PID.TID 0000.0001)                 2.899590699694043E+05,      /* I = 21 */
(PID.TID 0000.0001)                 2.842862532064524E+05,      /* I = 22 */
(PID.TID 0000.0001)                 2.774243179696503E+05,      /* I = 23 */
(PID.TID 0000.0001)                 2.693210245495156E+05,      /* I = 24 */
(PID.TID 0000.0001)                 2.598919724358304E+05,      /* I = 25 */
(PID.TID 0000.0001)                 2.490022710862746E+05,      /* I = 26 */
(PID.TID 0000.0001)                 2.364352994647058E+05,      /* I = 27 */
(PID.TID 0000.0001)                 2.218350349844185E+05,      /* I = 28 */
(PID.TID 0000.0001)                 2.045883481718707E+05,      /* I = 29 */
(PID.TID 0000.0001)                 1.835530058121492E+05,      /* I = 30 */
(PID.TID 0000.0001)                 1.563594089971120E+05,      /* I = 31 */
(PID.TID 0000.0001)     2 @  1.202082051331828E+05,             /* I = 32: 33 */
(PID.TID 0000.0001)                 1.563594089971120E+05,      /* I = 34 */
(PID.TID 0000.0001)                 1.835530058121492E+05,      /* I = 35 */
(PID.TID 0000.0001)                 2.045883481718707E+05,      /* I = 36 */
(PID.TID 0000.0001)                 2.218350349844185E+05,      /* I = 37 */
(PID.TID 0000.0001)                 2.364352994647058E+05,      /* I = 38 */
(PID.TID 0000.0001)                 2.490022710862746E+05,      /* I = 39 */
(PID.TID 0000.0001)                 2.598919724358304E+05,      /* I = 40 */
(PID.TID 0000.0001)                 2.693210245495156E+05,      /* I = 41 */
(PID.TID 0000.0001)                 2.774243179696503E+05,      /* I = 42 */
(PID.TID 0000.0001)                 2.842862532064524E+05,      /* I = 43 */
(PID.TID 0000.0001)                 2.899590699694043E+05,      /* I = 44 */
(PID.TID 0000.0001)                 2.944742915095688E+05,      /* I = 45 */
(PID.TID 0000.0001)                 2.978501920522794E+05,      /* I = 46 */
(PID.TID 0000.0001)                 3.000967749619962E+05,      /* I = 47 */
(PID.TID 0000.0001)     2 @  3.012190981969055E+05,             /* I = 48: 49 */
(PID.TID 0000.0001)                 3.000967749619962E+05,      /* I = 50 */
(PID.TID 0000.0001)                 2.978501920522794E+05,      /* I = 51 */
(PID.TID 0000.0001)                 2.944742915095688E+05,      /* I = 52 */
(PID.TID 0000.0001)                 2.899590699694043E+05,      /* I = 53 */
(PID.TID 0000.0001)                 2.842862532064524E+05,      /* I = 54 */
(PID.TID 0000.0001)                 2.774243179696503E+05,      /* I = 55 */
(PID.TID 0000.0001)                 2.693210245495156E+05,      /* I = 56 */
(PID.TID 0000.0001)                 2.598919724358304E+05,      /* I = 57 */
(PID.TID 0000.0001)                 2.490022710862746E+05,      /* I = 58 */
(PID.TID 0000.0001)                 2.364352994647058E+05,      /* I = 59 */
(PID.TID 0000.0001)                 2.218350349844185E+05,      /* I = 60 */
(PID.TID 0000.0001)                 2.045883481718707E+05,      /* I = 61 */
(PID.TID 0000.0001)                 1.835530058121492E+05,      /* I = 62 */
(PID.TID 0000.0001)                 1.563594089971120E+05,      /* I = 63 */
(PID.TID 0000.0001)     2 @  1.202082051331828E+05,             /* I = 64: 65 */
(PID.TID 0000.0001)                 1.563594089971120E+05,      /* I = 66 */
(PID.TID 0000.0001)                 1.835530058121492E+05,      /* I = 67 */
(PID.TID 0000.0001)                 2.045883481718707E+05,      /* I = 68 */
(PID.TID 0000.0001)                 2.218350349844185E+05,      /* I = 69 */
(PID.TID 0000.0001)                 2.364352994647058E+05,      /* I = 70 */
(PID.TID 0000.0001)                 2.490022710862746E+05,      /* I = 71 */
(PID.TID 0000.0001)                 2.598919724358304E+05,      /* I = 72 */
(PID.TID 0000.0001)                 2.693210245495156E+05,      /* I = 73 */
(PID.TID 0000.0001)                 2.774243179696503E+05,      /* I = 74 */
(PID.TID 0000.0001)                 2.842862532064524E+05,      /* I = 75 */
(PID.TID 0000.0001)                 2.899590699694043E+05,      /* I = 76 */
(PID.TID 0000.0001)                 2.944742915095688E+05,      /* I = 77 */
(PID.TID 0000.0001)                 2.978501920522794E+05,      /* I = 78 */
(PID.TID 0000.0001)                 3.000967749619962E+05,      /* I = 79 */
(PID.TID 0000.0001)     2 @  3.012190981969055E+05,             /* I = 80: 81 */
(PID.TID 0000.0001)                 3.000967749619962E+05,      /* I = 82 */
(PID.TID 0000.0001)                 2.978501920522794E+05,      /* I = 83 */
(PID.TID 0000.0001)                 2.944742915095688E+05,      /* I = 84 */
(PID.TID 0000.0001)                 2.899590699694043E+05,      /* I = 85 */
(PID.TID 0000.0001)                 2.842862532064524E+05,      /* I = 86 */
(PID.TID 0000.0001)                 2.774243179696503E+05,      /* I = 87 */
(PID.TID 0000.0001)                 2.693210245495156E+05,      /* I = 88 */
(PID.TID 0000.0001)                 2.598919724358304E+05,      /* I = 89 */
(PID.TID 0000.0001)                 2.490022710862746E+05,      /* I = 90 */
(PID.TID 0000.0001)                 2.364352994647058E+05,      /* I = 91 */
(PID.TID 0000.0001)                 2.218350349844185E+05,      /* I = 92 */
(PID.TID 0000.0001)                 2.045883481718707E+05,      /* I = 93 */
(PID.TID 0000.0001)                 1.835530058121492E+05,      /* I = 94 */
(PID.TID 0000.0001)                 1.563594089971120E+05,      /* I = 95 */
(PID.TID 0000.0001)     2 @  1.202082051331828E+05,             /* I = 96: 97 */
(PID.TID 0000.0001)                 1.563594089971120E+05,      /* I = 98 */
(PID.TID 0000.0001)                 1.835530058121492E+05,      /* I = 99 */
(PID.TID 0000.0001)                 2.045883481718707E+05,      /* I =100 */
(PID.TID 0000.0001)                 2.218350349844185E+05,      /* I =101 */
(PID.TID 0000.0001)                 2.364352994647058E+05,      /* I =102 */
(PID.TID 0000.0001)                 2.490022710862746E+05,      /* I =103 */
(PID.TID 0000.0001)                 2.598919724358304E+05,      /* I =104 */
(PID.TID 0000.0001)                 2.693210245495156E+05,      /* I =105 */
(PID.TID 0000.0001)                 2.774243179696503E+05,      /* I =106 */
(PID.TID 0000.0001)                 2.842862532064524E+05,      /* I =107 */
(PID.TID 0000.0001)                 2.899590699694043E+05,      /* I =108 */
(PID.TID 0000.0001)                 2.944742915095688E+05,      /* I =109 */
(PID.TID 0000.0001)                 2.978501920522794E+05,      /* I =110 */
(PID.TID 0000.0001)                 3.000967749619962E+05,      /* I =111 */
(PID.TID 0000.0001)     2 @  3.012190981969055E+05,             /* I =112:113 */
(PID.TID 0000.0001)                 3.000967749619962E+05,      /* I =114 */
(PID.TID 0000.0001)                 2.978501920522794E+05,      /* I =115 */
(PID.TID 0000.0001)                 2.944742915095688E+05,      /* I =116 */
(PID.TID 0000.0001)                 2.899590699694043E+05,      /* I =117 */
(PID.TID 0000.0001)                 2.842862532064524E+05,      /* I =118 */
(PID.TID 0000.0001)                 2.774243179696503E+05,      /* I =119 */
(PID.TID 0000.0001)                 2.693210245495156E+05,      /* I =120 */
(PID.TID 0000.0001)                 2.598919724358304E+05,      /* I =121 */
(PID.TID 0000.0001)                 2.490022710862746E+05,      /* I =122 */
(PID.TID 0000.0001)                 2.364352994647058E+05,      /* I =123 */
(PID.TID 0000.0001)                 2.218350349844185E+05,      /* I =124 */
(PID.TID 0000.0001)                 2.045883481718707E+05,      /* I =125 */
(PID.TID 0000.0001)                 1.835530058121492E+05,      /* I =126 */
(PID.TID 0000.0001)                 1.563594089971120E+05,      /* I =127 */
(PID.TID 0000.0001)     2 @  1.202082051331828E+05,             /* I =128:129 */
(PID.TID 0000.0001)                 1.563594089971120E+05,      /* I =130 */
(PID.TID 0000.0001)                 1.835530058121492E+05,      /* I =131 */
(PID.TID 0000.0001)                 2.045883481718707E+05,      /* I =132 */
(PID.TID 0000.0001)                 2.218350349844185E+05,      /* I =133 */
(PID.TID 0000.0001)                 2.364352994647058E+05,      /* I =134 */
(PID.TID 0000.0001)                 2.490022710862746E+05,      /* I =135 */
(PID.TID 0000.0001)                 2.598919724358304E+05,      /* I =136 */
(PID.TID 0000.0001)                 2.693210245495156E+05,      /* I =137 */
(PID.TID 0000.0001)                 2.774243179696503E+05,      /* I =138 */
(PID.TID 0000.0001)                 2.842862532064524E+05,      /* I =139 */
(PID.TID 0000.0001)                 2.899590699694043E+05,      /* I =140 */
(PID.TID 0000.0001)                 2.944742915095688E+05,      /* I =141 */
(PID.TID 0000.0001)                 2.978501920522794E+05,      /* I =142 */
(PID.TID 0000.0001)                 3.000967749619962E+05,      /* I =143 */
(PID.TID 0000.0001)     2 @  3.012190981969055E+05,             /* I =144:145 */
(PID.TID 0000.0001)                 3.000967749619962E+05,      /* I =146 */
(PID.TID 0000.0001)                 2.978501920522794E+05,      /* I =147 */
(PID.TID 0000.0001)                 2.944742915095688E+05,      /* I =148 */
(PID.TID 0000.0001)                 2.899590699694043E+05,      /* I =149 */
(PID.TID 0000.0001)                 2.842862532064524E+05,      /* I =150 */
(PID.TID 0000.0001)                 2.774243179696503E+05,      /* I =151 */
(PID.TID 0000.0001)                 2.693210245495156E+05,      /* I =152 */
(PID.TID 0000.0001)                 2.598919724358304E+05,      /* I =153 */
(PID.TID 0000.0001)                 2.490022710862746E+05,      /* I =154 */
(PID.TID 0000.0001)                 2.364352994647058E+05,      /* I =155 */
(PID.TID 0000.0001)                 2.218350349844185E+05,      /* I =156 */
(PID.TID 0000.0001)                 2.045883481718707E+05,      /* I =157 */
(PID.TID 0000.0001)                 1.835530058121492E+05,      /* I =158 */
(PID.TID 0000.0001)                 1.563594089971120E+05,      /* I =159 */
(PID.TID 0000.0001)     2 @  1.202082051331828E+05,             /* I =160:161 */
(PID.TID 0000.0001)                 1.563594089971120E+05,      /* I =162 */
(PID.TID 0000.0001)                 1.835530058121492E+05,      /* I =163 */
(PID.TID 0000.0001)                 2.045883481718707E+05,      /* I =164 */
(PID.TID 0000.0001)                 2.218350349844185E+05,      /* I =165 */
(PID.TID 0000.0001)                 2.364352994647058E+05,      /* I =166 */
(PID.TID 0000.0001)                 2.490022710862746E+05,      /* I =167 */
(PID.TID 0000.0001)                 2.598919724358304E+05,      /* I =168 */
(PID.TID 0000.0001)                 2.693210245495156E+05,      /* I =169 */
(PID.TID 0000.0001)                 2.774243179696503E+05,      /* I =170 */
(PID.TID 0000.0001)                 2.842862532064524E+05,      /* I =171 */
(PID.TID 0000.0001)                 2.899590699694043E+05,      /* I =172 */
(PID.TID 0000.0001)                 2.944742915095688E+05,      /* I =173 */
(PID.TID 0000.0001)                 2.978501920522794E+05,      /* I =174 */
(PID.TID 0000.0001)                 3.000967749619962E+05,      /* I =175 */
(PID.TID 0000.0001)     2 @  3.012190981969055E+05,             /* I =176:177 */
(PID.TID 0000.0001)                 3.000967749619962E+05,      /* I =178 */
(PID.TID 0000.0001)                 2.978501920522794E+05,      /* I =179 */
(PID.TID 0000.0001)                 2.944742915095688E+05,      /* I =180 */
(PID.TID 0000.0001)                 2.899590699694043E+05,      /* I =181 */
(PID.TID 0000.0001)                 2.842862532064524E+05,      /* I =182 */
(PID.TID 0000.0001)                 2.774243179696503E+05,      /* I =183 */
(PID.TID 0000.0001)                 2.693210245495156E+05,      /* I =184 */
(PID.TID 0000.0001)                 2.598919724358304E+05,      /* I =185 */
(PID.TID 0000.0001)                 2.490022710862746E+05,      /* I =186 */
(PID.TID 0000.0001)                 2.364352994647058E+05,      /* I =187 */
(PID.TID 0000.0001)                 2.218350349844185E+05,      /* I =188 */
(PID.TID 0000.0001)                 2.045883481718707E+05,      /* I =189 */
(PID.TID 0000.0001)                 1.835530058121492E+05,      /* I =190 */
(PID.TID 0000.0001)                 1.563594089971120E+05,      /* I =191 */
(PID.TID 0000.0001)                 1.202082051331828E+05       /* I =192 */
(PID.TID 0000.0001)     ;
(PID.TID 0000.0001) dxF =  /* dxF(1,:,1,:) ( m - cartesian, degrees - spherical ) */
(PID.TID 0000.0001)                 1.202082051331828E+05,      /* J =  1 */
(PID.TID 0000.0001)                 1.572908084538706E+05,      /* J =  2 */
(PID.TID 0000.0001)                 1.840412227747703E+05,      /* J =  3 */
(PID.TID 0000.0001)                 2.048868197919576E+05,      /* J =  4 */
(PID.TID 0000.0001)                 2.220405216043041E+05,      /* J =  5 */
(PID.TID 0000.0001)                 2.365892017348392E+05,      /* J =  6 */
(PID.TID 0000.0001)                 2.491250781852558E+05,      /* J =  7 */
(PID.TID 0000.0001)                 2.599949918261881E+05,      /* J =  8 */
(PID.TID 0000.0001)                 2.694110134598581E+05,      /* J =  9 */
(PID.TID 0000.0001)                 2.775055554645015E+05,      /* J = 10 */
(PID.TID 0000.0001)                 2.843615645344775E+05,      /* J = 11 */
(PID.TID 0000.0001)                 2.900303768613599E+05,      /* J = 12 */
(PID.TID 0000.0001)                 2.945429307892709E+05,      /* J = 13 */
(PID.TID 0000.0001)                 2.979171143158405E+05,      /* J = 14 */
(PID.TID 0000.0001)                 3.001626787528886E+05,      /* J = 15 */
(PID.TID 0000.0001)     2 @  3.012844832048790E+05,             /* J = 16: 17 */
(PID.TID 0000.0001)                 3.001626787528886E+05,      /* J = 18 */
(PID.TID 0000.0001)                 2.979171143158405E+05,      /* J = 19 */
(PID.TID 0000.0001)                 2.945429307892709E+05,      /* J = 20 */
(PID.TID 0000.0001)                 2.900303768613599E+05,      /* J = 21 */
(PID.TID 0000.0001)                 2.843615645344775E+05,      /* J = 22 */
(PID.TID 0000.0001)                 2.775055554645015E+05,      /* J = 23 */
(PID.TID 0000.0001)                 2.694110134598581E+05,      /* J = 24 */
(PID.TID 0000.0001)                 2.599949918261881E+05,      /* J = 25 */
(PID.TID 0000.0001)                 2.491250781852558E+05,      /* J = 26 */
(PID.TID 0000.0001)                 2.365892017348392E+05,      /* J = 27 */
(PID.TID 0000.0001)                 2.220405216043041E+05,      /* J = 28 */
(PID.TID 0000.0001)                 2.048868197919576E+05,      /* J = 29 */
(PID.TID 0000.0001)                 1.840412227747703E+05,      /* J = 30 */
(PID.TID 0000.0001)                 1.572908084538706E+05,      /* J = 31 */
(PID.TID 0000.0001)                 1.202082051331828E+05       /* J = 32 */
(PID.TID 0000.0001)     ;
(PID.TID 0000.0001) dyF =  /* dyF(:,1,:,1) ( m - cartesian, degrees - spherical ) */
(PID.TID 0000.0001)                 1.202082051331828E+05,      /* I =  1 */
(PID.TID 0000.0001)                 1.572908084538706E+05,      /* I =  2 */
(PID.TID 0000.0001)                 1.840412227747703E+05,      /* I =  3 */
(PID.TID 0000.0001)                 2.048868197919576E+05,      /* I =  4 */
(PID.TID 0000.0001)                 2.220405216043041E+05,      /* I =  5 */
(PID.TID 0000.0001)                 2.365892017348392E+05,      /* I =  6 */
(PID.TID 0000.0001)                 2.491250781852558E+05,      /* I =  7 */
(PID.TID 0000.0001)                 2.599949918261881E+05,      /* I =  8 */
(PID.TID 0000.0001)                 2.694110134598581E+05,      /* I =  9 */
(PID.TID 0000.0001)                 2.775055554645015E+05,      /* I = 10 */
(PID.TID 0000.0001)                 2.843615645344775E+05,      /* I = 11 */
(PID.TID 0000.0001)                 2.900303768613599E+05,      /* I = 12 */
(PID.TID 0000.0001)                 2.945429307892709E+05,      /* I = 13 */
(PID.TID 0000.0001)                 2.979171143158405E+05,      /* I = 14 */
(PID.TID 0000.0001)                 3.001626787528886E+05,      /* I = 15 */
(PID.TID 0000.0001)     2 @  3.012844832048790E+05,             /* I = 16: 17 */
(PID.TID 0000.0001)                 3.001626787528886E+05,      /* I = 18 */
(PID.TID 0000.0001)                 2.979171143158405E+05,      /* I = 19 */
(PID.TID 0000.0001)                 2.945429307892709E+05,      /* I = 20 */
(PID.TID 0000.0001)                 2.900303768613599E+05,      /* I = 21 */
(PID.TID 0000.0001)                 2.843615645344775E+05,      /* I = 22 */
(PID.TID 0000.0001)                 2.775055554645015E+05,      /* I = 23 */
(PID.TID 0000.0001)                 2.694110134598581E+05,      /* I = 24 */
(PID.TID 0000.0001)                 2.599949918261881E+05,      /* I = 25 */
(PID.TID 0000.0001)                 2.491250781852558E+05,      /* I = 26 */
(PID.TID 0000.0001)                 2.365892017348392E+05,      /* I = 27 */
(PID.TID 0000.0001)                 2.220405216043041E+05,      /* I = 28 */
(PID.TID 0000.0001)                 2.048868197919576E+05,      /* I = 29 */
(PID.TID 0000.0001)                 1.840412227747703E+05,      /* I = 30 */
(PID.TID 0000.0001)                 1.572908084538706E+05,      /* I = 31 */
(PID.TID 0000.0001)     2 @  1.202082051331828E+05,             /* I = 32: 33 */
(PID.TID 0000.0001)                 1.572908084538706E+05,      /* I = 34 */
(PID.TID 0000.0001)                 1.840412227747703E+05,      /* I = 35 */
(PID.TID 0000.0001)                 2.048868197919576E+05,      /* I = 36 */
(PID.TID 0000.0001)                 2.220405216043041E+05,      /* I = 37 */
(PID.TID 0000.0001)                 2.365892017348392E+05,      /* I = 38 */
(PID.TID 0000.0001)                 2.491250781852558E+05,      /* I = 39 */
(PID.TID 0000.0001)                 2.599949918261881E+05,      /* I = 40 */
(PID.TID 0000.0001)                 2.694110134598581E+05,      /* I = 41 */
(PID.TID 0000.0001)                 2.775055554645015E+05,      /* I = 42 */
(PID.TID 0000.0001)                 2.843615645344775E+05,      /* I = 43 */
(PID.TID 0000.0001)                 2.900303768613599E+05,      /* I = 44 */
(PID.TID 0000.0001)                 2.945429307892709E+05,      /* I = 45 */
(PID.TID 0000.0001)                 2.979171143158405E+05,      /* I = 46 */
(PID.TID 0000.0001)                 3.001626787528886E+05,      /* I = 47 */
(PID.TID 0000.0001)     2 @  3.012844832048790E+05,             /* I = 48: 49 */
(PID.TID 0000.0001)                 3.001626787528886E+05,      /* I = 50 */
(PID.TID 0000.0001)                 2.979171143158405E+05,      /* I = 51 */
(PID.TID 0000.0001)                 2.945429307892709E+05,      /* I = 52 */
(PID.TID 0000.0001)                 2.900303768613599E+05,      /* I = 53 */
(PID.TID 0000.0001)                 2.843615645344775E+05,      /* I = 54 */
(PID.TID 0000.0001)                 2.775055554645015E+05,      /* I = 55 */
(PID.TID 0000.0001)                 2.694110134598581E+05,      /* I = 56 */
(PID.TID 0000.0001)                 2.599949918261881E+05,      /* I = 57 */
(PID.TID 0000.0001)                 2.491250781852558E+05,      /* I = 58 */
(PID.TID 0000.0001)                 2.365892017348392E+05,      /* I = 59 */
(PID.TID 0000.0001)                 2.220405216043041E+05,      /* I = 60 */
(PID.TID 0000.0001)                 2.048868197919576E+05,      /* I = 61 */
(PID.TID 0000.0001)                 1.840412227747703E+05,      /* I = 62 */
(PID.TID 0000.0001)                 1.572908084538706E+05,      /* I = 63 */
(PID.TID 0000.0001)     2 @  1.202082051331828E+05,             /* I = 64: 65 */
(PID.TID 0000.0001)                 1.572908084538706E+05,      /* I = 66 */
(PID.TID 0000.0001)                 1.840412227747703E+05,      /* I = 67 */
(PID.TID 0000.0001)                 2.048868197919576E+05,      /* I = 68 */
(PID.TID 0000.0001)                 2.220405216043041E+05,      /* I = 69 */
(PID.TID 0000.0001)                 2.365892017348392E+05,      /* I = 70 */
(PID.TID 0000.0001)                 2.491250781852558E+05,      /* I = 71 */
(PID.TID 0000.0001)                 2.599949918261881E+05,      /* I = 72 */
(PID.TID 0000.0001)                 2.694110134598581E+05,      /* I = 73 */
(PID.TID 0000.0001)                 2.775055554645015E+05,      /* I = 74 */
(PID.TID 0000.0001)                 2.843615645344775E+05,      /* I = 75 */
(PID.TID 0000.0001)                 2.900303768613599E+05,      /* I = 76 */
(PID.TID 0000.0001)                 2.945429307892709E+05,      /* I = 77 */
(PID.TID 0000.0001)                 2.979171143158405E+05,      /* I = 78 */
(PID.TID 0000.0001)                 3.001626787528886E+05,      /* I = 79 */
(PID.TID 0000.0001)     2 @  3.012844832048790E+05,             /* I = 80: 81 */
(PID.TID 0000.0001)                 3.001626787528886E+05,      /* I = 82 */
(PID.TID 0000.0001)                 2.979171143158405E+05,      /* I = 83 */
(PID.TID 0000.0001)                 2.945429307892709E+05,      /* I = 84 */
(PID.TID 0000.0001)                 2.900303768613599E+05,      /* I = 85 */
(PID.TID 0000.0001)                 2.843615645344775E+05,      /* I = 86 */
(PID.TID 0000.0001)                 2.775055554645015E+05,      /* I = 87 */
(PID.TID 0000.0001)                 2.694110134598581E+05,      /* I = 88 */
(PID.TID 0000.0001)                 2.599949918261881E+05,      /* I = 89 */
(PID.TID 0000.0001)                 2.491250781852558E+05,      /* I = 90 */
(PID.TID 0000.0001)                 2.365892017348392E+05,      /* I = 91 */
(PID.TID 0000.0001)                 2.220405216043041E+05,      /* I = 92 */
(PID.TID 0000.0001)                 2.048868197919576E+05,      /* I = 93 */
(PID.TID 0000.0001)                 1.840412227747703E+05,      /* I = 94 */
(PID.TID 0000.0001)                 1.572908084538706E+05,      /* I = 95 */
(PID.TID 0000.0001)     2 @  1.202082051331828E+05,             /* I = 96: 97 */
(PID.TID 0000.0001)                 1.572908084538706E+05,      /* I = 98 */
(PID.TID 0000.0001)                 1.840412227747703E+05,      /* I = 99 */
(PID.TID 0000.0001)                 2.048868197919576E+05,      /* I =100 */
(PID.TID 0000.0001)                 2.220405216043041E+05,      /* I =101 */
(PID.TID 0000.0001)                 2.365892017348392E+05,      /* I =102 */
(PID.TID 0000.0001)                 2.491250781852558E+05,      /* I =103 */
(PID.TID 0000.0001)                 2.599949918261881E+05,      /* I =104 */
(PID.TID 0000.0001)                 2.694110134598581E+05,      /* I =105 */
(PID.TID 0000.0001)                 2.775055554645015E+05,      /* I =106 */
(PID.TID 0000.0001)                 2.843615645344775E+05,      /* I =107 */
(PID.TID 0000.0001)                 2.900303768613599E+05,      /* I =108 */
(PID.TID 0000.0001)                 2.945429307892709E+05,      /* I =109 */
(PID.TID 0000.0001)                 2.979171143158405E+05,      /* I =110 */
(PID.TID 0000.0001)                 3.001626787528886E+05,      /* I =111 */
(PID.TID 0000.0001)     2 @  3.012844832048790E+05,             /* I =112:113 */
(PID.TID 0000.0001)                 3.001626787528886E+05,      /* I =114 */
(PID.TID 0000.0001)                 2.979171143158405E+05,      /* I =115 */
(PID.TID 0000.0001)                 2.945429307892709E+05,      /* I =116 */
(PID.TID 0000.0001)                 2.900303768613599E+05,      /* I =117 */
(PID.TID 0000.0001)                 2.843615645344775E+05,      /* I =118 */
(PID.TID 0000.0001)                 2.775055554645015E+05,      /* I =119 */
(PID.TID 0000.0001)                 2.694110134598581E+05,      /* I =120 */
(PID.TID 0000.0001)                 2.599949918261881E+05,      /* I =121 */
(PID.TID 0000.0001)                 2.491250781852558E+05,      /* I =122 */
(PID.TID 0000.0001)                 2.365892017348392E+05,      /* I =123 */
(PID.TID 0000.0001)                 2.220405216043041E+05,      /* I =124 */
(PID.TID 0000.0001)                 2.048868197919576E+05,      /* I =125 */
(PID.TID 0000.0001)                 1.840412227747703E+05,      /* I =126 */
(PID.TID 0000.0001)                 1.572908084538706E+05,      /* I =127 */
(PID.TID 0000.0001)     2 @  1.202082051331828E+05,             /* I =128:129 */
(PID.TID 0000.0001)                 1.572908084538706E+05,      /* I =130 */
(PID.TID 0000.0001)                 1.840412227747703E+05,      /* I =131 */
(PID.TID 0000.0001)                 2.048868197919576E+05,      /* I =132 */
(PID.TID 0000.0001)                 2.220405216043041E+05,      /* I =133 */
(PID.TID 0000.0001)                 2.365892017348392E+05,      /* I =134 */
(PID.TID 0000.0001)                 2.491250781852558E+05,      /* I =135 */
(PID.TID 0000.0001)                 2.599949918261881E+05,      /* I =136 */
(PID.TID 0000.0001)                 2.694110134598581E+05,      /* I =137 */
(PID.TID 0000.0001)                 2.775055554645015E+05,      /* I =138 */
(PID.TID 0000.0001)                 2.843615645344775E+05,      /* I =139 */
(PID.TID 0000.0001)                 2.900303768613599E+05,      /* I =140 */
(PID.TID 0000.0001)                 2.945429307892709E+05,      /* I =141 */
(PID.TID 0000.0001)                 2.979171143158405E+05,      /* I =142 */
(PID.TID 0000.0001)                 3.001626787528886E+05,      /* I =143 */
(PID.TID 0000.0001)     2 @  3.012844832048790E+05,             /* I =144:145 */
(PID.TID 0000.0001)                 3.001626787528886E+05,      /* I =146 */
(PID.TID 0000.0001)                 2.979171143158405E+05,      /* I =147 */
(PID.TID 0000.0001)                 2.945429307892709E+05,      /* I =148 */
(PID.TID 0000.0001)                 2.900303768613599E+05,      /* I =149 */
(PID.TID 0000.0001)                 2.843615645344775E+05,      /* I =150 */
(PID.TID 0000.0001)                 2.775055554645015E+05,      /* I =151 */
(PID.TID 0000.0001)                 2.694110134598581E+05,      /* I =152 */
(PID.TID 0000.0001)                 2.599949918261881E+05,      /* I =153 */
(PID.TID 0000.0001)                 2.491250781852558E+05,      /* I =154 */
(PID.TID 0000.0001)                 2.365892017348392E+05,      /* I =155 */
(PID.TID 0000.0001)                 2.220405216043041E+05,      /* I =156 */
(PID.TID 0000.0001)                 2.048868197919576E+05,      /* I =157 */
(PID.TID 0000.0001)                 1.840412227747703E+05,      /* I =158 */
(PID.TID 0000.0001)                 1.572908084538706E+05,      /* I =159 */
(PID.TID 0000.0001)     2 @  1.202082051331828E+05,             /* I =160:161 */
(PID.TID 0000.0001)                 1.572908084538706E+05,      /* I =162 */
(PID.TID 0000.0001)                 1.840412227747703E+05,      /* I =163 */
(PID.TID 0000.0001)                 2.048868197919576E+05,      /* I =164 */
(PID.TID 0000.0001)                 2.220405216043041E+05,      /* I =165 */
(PID.TID 0000.0001)                 2.365892017348392E+05,      /* I =166 */
(PID.TID 0000.0001)                 2.491250781852558E+05,      /* I =167 */
(PID.TID 0000.0001)                 2.599949918261881E+05,      /* I =168 */
(PID.TID 0000.0001)                 2.694110134598581E+05,      /* I =169 */
(PID.TID 0000.0001)                 2.775055554645015E+05,      /* I =170 */
(PID.TID 0000.0001)                 2.843615645344775E+05,      /* I =171 */
(PID.TID 0000.0001)                 2.900303768613599E+05,      /* I =172 */
(PID.TID 0000.0001)                 2.945429307892709E+05,      /* I =173 */
(PID.TID 0000.0001)                 2.979171143158405E+05,      /* I =174 */
(PID.TID 0000.0001)                 3.001626787528886E+05,      /* I =175 */
(PID.TID 0000.0001)     2 @  3.012844832048790E+05,             /* I =176:177 */
(PID.TID 0000.0001)                 3.001626787528886E+05,      /* I =178 */
(PID.TID 0000.0001)                 2.979171143158405E+05,      /* I =179 */
(PID.TID 0000.0001)                 2.945429307892709E+05,      /* I =180 */
(PID.TID 0000.0001)                 2.900303768613599E+05,      /* I =181 */
(PID.TID 0000.0001)                 2.843615645344775E+05,      /* I =182 */
(PID.TID 0000.0001)                 2.775055554645015E+05,      /* I =183 */
(PID.TID 0000.0001)                 2.694110134598581E+05,      /* I =184 */
(PID.TID 0000.0001)                 2.599949918261881E+05,      /* I =185 */
(PID.TID 0000.0001)                 2.491250781852558E+05,      /* I =186 */
(PID.TID 0000.0001)                 2.365892017348392E+05,      /* I =187 */
(PID.TID 0000.0001)                 2.220405216043041E+05,      /* I =188 */
(PID.TID 0000.0001)                 2.048868197919576E+05,      /* I =189 */
(PID.TID 0000.0001)                 1.840412227747703E+05,      /* I =190 */
(PID.TID 0000.0001)                 1.572908084538706E+05,      /* I =191 */
(PID.TID 0000.0001)                 1.202082051331828E+05       /* I =192 */
(PID.TID 0000.0001)     ;
(PID.TID 0000.0001) dyF =  /* dyF(1,:,1,:) ( m - cartesian, degrees - spherical ) */
(PID.TID 0000.0001)                 1.202082051331828E+05,      /* J =  1 */
(PID.TID 0000.0001)                 1.563594089971120E+05,      /* J =  2 */
(PID.TID 0000.0001)                 1.835530058121492E+05,      /* J =  3 */
(PID.TID 0000.0001)                 2.045883481718707E+05,      /* J =  4 */
(PID.TID 0000.0001)                 2.218350349844185E+05,      /* J =  5 */
(PID.TID 0000.0001)                 2.364352994647058E+05,      /* J =  6 */
(PID.TID 0000.0001)                 2.490022710862746E+05,      /* J =  7 */
(PID.TID 0000.0001)                 2.598919724358304E+05,      /* J =  8 */
(PID.TID 0000.0001)                 2.693210245495156E+05,      /* J =  9 */
(PID.TID 0000.0001)                 2.774243179696503E+05,      /* J = 10 */
(PID.TID 0000.0001)                 2.842862532064524E+05,      /* J = 11 */
(PID.TID 0000.0001)                 2.899590699694043E+05,      /* J = 12 */
(PID.TID 0000.0001)                 2.944742915095688E+05,      /* J = 13 */
(PID.TID 0000.0001)                 2.978501920522794E+05,      /* J = 14 */
(PID.TID 0000.0001)                 3.000967749619962E+05,      /* J = 15 */
(PID.TID 0000.0001)     2 @  3.012190981969055E+05,             /* J = 16: 17 */
(PID.TID 0000.0001)                 3.000967749619962E+05,      /* J = 18 */
(PID.TID 0000.0001)                 2.978501920522794E+05,      /* J = 19 */
(PID.TID 0000.0001)                 2.944742915095688E+05,      /* J = 20 */
(PID.TID 0000.0001)                 2.899590699694043E+05,      /* J = 21 */
(PID.TID 0000.0001)                 2.842862532064524E+05,      /* J = 22 */
(PID.TID 0000.0001)                 2.774243179696503E+05,      /* J = 23 */
(PID.TID 0000.0001)                 2.693210245495156E+05,      /* J = 24 */
(PID.TID 0000.0001)                 2.598919724358304E+05,      /* J = 25 */
(PID.TID 0000.0001)                 2.490022710862746E+05,      /* J = 26 */
(PID.TID 0000.0001)                 2.364352994647058E+05,      /* J = 27 */
(PID.TID 0000.0001)                 2.218350349844185E+05,      /* J = 28 */
(PID.TID 0000.0001)                 2.045883481718707E+05,      /* J = 29 */
(PID.TID 0000.0001)                 1.835530058121492E+05,      /* J = 30 */
(PID.TID 0000.0001)                 1.563594089971120E+05,      /* J = 31 */
(PID.TID 0000.0001)                 1.202082051331828E+05       /* J = 32 */
(PID.TID 0000.0001)     ;
(PID.TID 0000.0001) dxG =  /* dxG(:,1,:,1) ( m - cartesian, degrees - spherical ) */
(PID.TID 0000.0001)                 1.009837800879055E+05,      /* I =  1 */
(PID.TID 0000.0001)                 1.534505834330338E+05,      /* I =  2 */
(PID.TID 0000.0001)                 1.823321598773926E+05,      /* I =  3 */
(PID.TID 0000.0001)                 2.038999045536999E+05,      /* I =  4 */
(PID.TID 0000.0001)                 2.213884732245467E+05,      /* I =  5 */
(PID.TID 0000.0001)                 2.361211699596122E+05,      /* I =  6 */
(PID.TID 0000.0001)                 2.487693460283865E+05,      /* I =  7 */
(PID.TID 0000.0001)                 2.597126963772147E+05,      /* I =  8 */
(PID.TID 0000.0001)                 2.691790288994575E+05,      /* I =  9 */
(PID.TID 0000.0001)                 2.773091043277394E+05,      /* I = 10 */
(PID.TID 0000.0001)                 2.841906470085516E+05,      /* I = 11 */
(PID.TID 0000.0001)                 2.898778860929753E+05,      /* I = 12 */
(PID.TID 0000.0001)                 2.944035815526416E+05,      /* I = 13 */
(PID.TID 0000.0001)                 2.977867909042096E+05,      /* I = 14 */
(PID.TID 0000.0001)                 3.000380090330854E+05,      /* I = 15 */
(PID.TID 0000.0001)     2 @  3.011625828699101E+05,             /* I = 16: 17 */
(PID.TID 0000.0001)                 3.000380090330854E+05,      /* I = 18 */
(PID.TID 0000.0001)                 2.977867909042096E+05,      /* I = 19 */
(PID.TID 0000.0001)                 2.944035815526416E+05,      /* I = 20 */
(PID.TID 0000.0001)                 2.898778860929753E+05,      /* I = 21 */
(PID.TID 0000.0001)                 2.841906470085516E+05,      /* I = 22 */
(PID.TID 0000.0001)                 2.773091043277394E+05,      /* I = 23 */
(PID.TID 0000.0001)                 2.691790288994575E+05,      /* I = 24 */
(PID.TID 0000.0001)                 2.597126963772147E+05,      /* I = 25 */
(PID.TID 0000.0001)                 2.487693460283865E+05,      /* I = 26 */
(PID.TID 0000.0001)                 2.361211699596122E+05,      /* I = 27 */
(PID.TID 0000.0001)                 2.213884732245467E+05,      /* I = 28 */
(PID.TID 0000.0001)                 2.038999045536999E+05,      /* I = 29 */
(PID.TID 0000.0001)                 1.823321598773926E+05,      /* I = 30 */
(PID.TID 0000.0001)                 1.534505834330338E+05,      /* I = 31 */
(PID.TID 0000.0001)     2 @  1.009837800879055E+05,             /* I = 32: 33 */
(PID.TID 0000.0001)                 1.534505834330338E+05,      /* I = 34 */
(PID.TID 0000.0001)                 1.823321598773926E+05,      /* I = 35 */
(PID.TID 0000.0001)                 2.038999045536999E+05,      /* I = 36 */
(PID.TID 0000.0001)                 2.213884732245467E+05,      /* I = 37 */
(PID.TID 0000.0001)                 2.361211699596122E+05,      /* I = 38 */
(PID.TID 0000.0001)                 2.487693460283865E+05,      /* I = 39 */
(PID.TID 0000.0001)                 2.597126963772147E+05,      /* I = 40 */
(PID.TID 0000.0001)                 2.691790288994575E+05,      /* I = 41 */
(PID.TID 0000.0001)                 2.773091043277394E+05,      /* I = 42 */
(PID.TID 0000.0001)                 2.841906470085516E+05,      /* I = 43 */
(PID.TID 0000.0001)                 2.898778860929753E+05,      /* I = 44 */
(PID.TID 0000.0001)                 2.944035815526416E+05,      /* I = 45 */
(PID.TID 0000.0001)                 2.977867909042096E+05,      /* I = 46 */
(PID.TID 0000.0001)                 3.000380090330854E+05,      /* I = 47 */
(PID.TID 0000.0001)     2 @  3.011625828699101E+05,             /* I = 48: 49 */
(PID.TID 0000.0001)                 3.000380090330854E+05,      /* I = 50 */
(PID.TID 0000.0001)                 2.977867909042096E+05,      /* I = 51 */
(PID.TID 0000.0001)                 2.944035815526416E+05,      /* I = 52 */
(PID.TID 0000.0001)                 2.898778860929753E+05,      /* I = 53 */
(PID.TID 0000.0001)                 2.841906470085516E+05,      /* I = 54 */
(PID.TID 0000.0001)                 2.773091043277394E+05,      /* I = 55 */
(PID.TID 0000.0001)                 2.691790288994575E+05,      /* I = 56 */
(PID.TID 0000.0001)                 2.597126963772147E+05,      /* I = 57 */
(PID.TID 0000.0001)                 2.487693460283865E+05,      /* I = 58 */
(PID.TID 0000.0001)                 2.361211699596122E+05,      /* I = 59 */
(PID.TID 0000.0001)                 2.213884732245467E+05,      /* I = 60 */
(PID.TID 0000.0001)                 2.038999045536999E+05,      /* I = 61 */
(PID.TID 0000.0001)                 1.823321598773926E+05,      /* I = 62 */
(PID.TID 0000.0001)                 1.534505834330338E+05,      /* I = 63 */
(PID.TID 0000.0001)     2 @  1.009837800879055E+05,             /* I = 64: 65 */
(PID.TID 0000.0001)                 1.534505834330338E+05,      /* I = 66 */
(PID.TID 0000.0001)                 1.823321598773926E+05,      /* I = 67 */
(PID.TID 0000.0001)                 2.038999045536999E+05,      /* I = 68 */
(PID.TID 0000.0001)                 2.213884732245467E+05,      /* I = 69 */
(PID.TID 0000.0001)                 2.361211699596122E+05,      /* I = 70 */
(PID.TID 0000.0001)                 2.487693460283865E+05,      /* I = 71 */
(PID.TID 0000.0001)                 2.597126963772147E+05,      /* I = 72 */
(PID.TID 0000.0001)                 2.691790288994575E+05,      /* I = 73 */
(PID.TID 0000.0001)                 2.773091043277394E+05,      /* I = 74 */
(PID.TID 0000.0001)                 2.841906470085516E+05,      /* I = 75 */
(PID.TID 0000.0001)                 2.898778860929753E+05,      /* I = 76 */
(PID.TID 0000.0001)                 2.944035815526416E+05,      /* I = 77 */
(PID.TID 0000.0001)                 2.977867909042096E+05,      /* I = 78 */
(PID.TID 0000.0001)                 3.000380090330854E+05,      /* I = 79 */
(PID.TID 0000.0001)     2 @  3.011625828699101E+05,             /* I = 80: 81 */
(PID.TID 0000.0001)                 3.000380090330854E+05,      /* I = 82 */
(PID.TID 0000.0001)                 2.977867909042096E+05,      /* I = 83 */
(PID.TID 0000.0001)                 2.944035815526416E+05,      /* I = 84 */
(PID.TID 0000.0001)                 2.898778860929753E+05,      /* I = 85 */
(PID.TID 0000.0001)                 2.841906470085516E+05,      /* I = 86 */
(PID.TID 0000.0001)                 2.773091043277394E+05,      /* I = 87 */
(PID.TID 0000.0001)                 2.691790288994575E+05,      /* I = 88 */
(PID.TID 0000.0001)                 2.597126963772147E+05,      /* I = 89 */
(PID.TID 0000.0001)                 2.487693460283865E+05,      /* I = 90 */
(PID.TID 0000.0001)                 2.361211699596122E+05,      /* I = 91 */
(PID.TID 0000.0001)                 2.213884732245467E+05,      /* I = 92 */
(PID.TID 0000.0001)                 2.038999045536999E+05,      /* I = 93 */
(PID.TID 0000.0001)                 1.823321598773926E+05,      /* I = 94 */
(PID.TID 0000.0001)                 1.534505834330338E+05,      /* I = 95 */
(PID.TID 0000.0001)     2 @  1.009837800879055E+05,             /* I = 96: 97 */
(PID.TID 0000.0001)                 1.534505834330338E+05,      /* I = 98 */
(PID.TID 0000.0001)                 1.823321598773926E+05,      /* I = 99 */
(PID.TID 0000.0001)                 2.038999045536999E+05,      /* I =100 */
(PID.TID 0000.0001)                 2.213884732245467E+05,      /* I =101 */
(PID.TID 0000.0001)                 2.361211699596122E+05,      /* I =102 */
(PID.TID 0000.0001)                 2.487693460283865E+05,      /* I =103 */
(PID.TID 0000.0001)                 2.597126963772147E+05,      /* I =104 */
(PID.TID 0000.0001)                 2.691790288994575E+05,      /* I =105 */
(PID.TID 0000.0001)                 2.773091043277394E+05,      /* I =106 */
(PID.TID 0000.0001)                 2.841906470085516E+05,      /* I =107 */
(PID.TID 0000.0001)                 2.898778860929753E+05,      /* I =108 */
(PID.TID 0000.0001)                 2.944035815526416E+05,      /* I =109 */
(PID.TID 0000.0001)                 2.977867909042096E+05,      /* I =110 */
(PID.TID 0000.0001)                 3.000380090330854E+05,      /* I =111 */
(PID.TID 0000.0001)     2 @  3.011625828699101E+05,             /* I =112:113 */
(PID.TID 0000.0001)                 3.000380090330854E+05,      /* I =114 */
(PID.TID 0000.0001)                 2.977867909042096E+05,      /* I =115 */
(PID.TID 0000.0001)                 2.944035815526416E+05,      /* I =116 */
(PID.TID 0000.0001)                 2.898778860929753E+05,      /* I =117 */
(PID.TID 0000.0001)                 2.841906470085516E+05,      /* I =118 */
(PID.TID 0000.0001)                 2.773091043277394E+05,      /* I =119 */
(PID.TID 0000.0001)                 2.691790288994575E+05,      /* I =120 */
(PID.TID 0000.0001)                 2.597126963772147E+05,      /* I =121 */
(PID.TID 0000.0001)                 2.487693460283865E+05,      /* I =122 */
(PID.TID 0000.0001)                 2.361211699596122E+05,      /* I =123 */
(PID.TID 0000.0001)                 2.213884732245467E+05,      /* I =124 */
(PID.TID 0000.0001)                 2.038999045536999E+05,      /* I =125 */
(PID.TID 0000.0001)                 1.823321598773926E+05,      /* I =126 */
(PID.TID 0000.0001)                 1.534505834330338E+05,      /* I =127 */
(PID.TID 0000.0001)     2 @  1.009837800879055E+05,             /* I =128:129 */
(PID.TID 0000.0001)                 1.534505834330338E+05,      /* I =130 */
(PID.TID 0000.0001)                 1.823321598773926E+05,      /* I =131 */
(PID.TID 0000.0001)                 2.038999045536999E+05,      /* I =132 */
(PID.TID 0000.0001)                 2.213884732245467E+05,      /* I =133 */
(PID.TID 0000.0001)                 2.361211699596122E+05,      /* I =134 */
(PID.TID 0000.0001)                 2.487693460283865E+05,      /* I =135 */
(PID.TID 0000.0001)                 2.597126963772147E+05,      /* I =136 */
(PID.TID 0000.0001)                 2.691790288994575E+05,      /* I =137 */
(PID.TID 0000.0001)                 2.773091043277394E+05,      /* I =138 */
(PID.TID 0000.0001)                 2.841906470085516E+05,      /* I =139 */
(PID.TID 0000.0001)                 2.898778860929753E+05,      /* I =140 */
(PID.TID 0000.0001)                 2.944035815526416E+05,      /* I =141 */
(PID.TID 0000.0001)                 2.977867909042096E+05,      /* I =142 */
(PID.TID 0000.0001)                 3.000380090330854E+05,      /* I =143 */
(PID.TID 0000.0001)     2 @  3.011625828699101E+05,             /* I =144:145 */
(PID.TID 0000.0001)                 3.000380090330854E+05,      /* I =146 */
(PID.TID 0000.0001)                 2.977867909042096E+05,      /* I =147 */
(PID.TID 0000.0001)                 2.944035815526416E+05,      /* I =148 */
(PID.TID 0000.0001)                 2.898778860929753E+05,      /* I =149 */
(PID.TID 0000.0001)                 2.841906470085516E+05,      /* I =150 */
(PID.TID 0000.0001)                 2.773091043277394E+05,      /* I =151 */
(PID.TID 0000.0001)                 2.691790288994575E+05,      /* I =152 */
(PID.TID 0000.0001)                 2.597126963772147E+05,      /* I =153 */
(PID.TID 0000.0001)                 2.487693460283865E+05,      /* I =154 */
(PID.TID 0000.0001)                 2.361211699596122E+05,      /* I =155 */
(PID.TID 0000.0001)                 2.213884732245467E+05,      /* I =156 */
(PID.TID 0000.0001)                 2.038999045536999E+05,      /* I =157 */
(PID.TID 0000.0001)                 1.823321598773926E+05,      /* I =158 */
(PID.TID 0000.0001)                 1.534505834330338E+05,      /* I =159 */
(PID.TID 0000.0001)     2 @  1.009837800879055E+05,             /* I =160:161 */
(PID.TID 0000.0001)                 1.534505834330338E+05,      /* I =162 */
(PID.TID 0000.0001)                 1.823321598773926E+05,      /* I =163 */
(PID.TID 0000.0001)                 2.038999045536999E+05,      /* I =164 */
(PID.TID 0000.0001)                 2.213884732245467E+05,      /* I =165 */
(PID.TID 0000.0001)                 2.361211699596122E+05,      /* I =166 */
(PID.TID 0000.0001)                 2.487693460283865E+05,      /* I =167 */
(PID.TID 0000.0001)                 2.597126963772147E+05,      /* I =168 */
(PID.TID 0000.0001)                 2.691790288994575E+05,      /* I =169 */
(PID.TID 0000.0001)                 2.773091043277394E+05,      /* I =170 */
(PID.TID 0000.0001)                 2.841906470085516E+05,      /* I =171 */
(PID.TID 0000.0001)                 2.898778860929753E+05,      /* I =172 */
(PID.TID 0000.0001)                 2.944035815526416E+05,      /* I =173 */
(PID.TID 0000.0001)                 2.977867909042096E+05,      /* I =174 */
(PID.TID 0000.0001)                 3.000380090330854E+05,      /* I =175 */
(PID.TID 0000.0001)     2 @  3.011625828699101E+05,             /* I =176:177 */
(PID.TID 0000.0001)                 3.000380090330854E+05,      /* I =178 */
(PID.TID 0000.0001)                 2.977867909042096E+05,      /* I =179 */
(PID.TID 0000.0001)                 2.944035815526416E+05,      /* I =180 */
(PID.TID 0000.0001)                 2.898778860929753E+05,      /* I =181 */
(PID.TID 0000.0001)                 2.841906470085516E+05,      /* I =182 */
(PID.TID 0000.0001)                 2.773091043277394E+05,      /* I =183 */
(PID.TID 0000.0001)                 2.691790288994575E+05,      /* I =184 */
(PID.TID 0000.0001)                 2.597126963772147E+05,      /* I =185 */
(PID.TID 0000.0001)                 2.487693460283865E+05,      /* I =186 */
(PID.TID 0000.0001)                 2.361211699596122E+05,      /* I =187 */
(PID.TID 0000.0001)                 2.213884732245467E+05,      /* I =188 */
(PID.TID 0000.0001)                 2.038999045536999E+05,      /* I =189 */
(PID.TID 0000.0001)                 1.823321598773926E+05,      /* I =190 */
(PID.TID 0000.0001)                 1.534505834330338E+05,      /* I =191 */
(PID.TID 0000.0001)                 1.009837800879055E+05       /* I =192 */
(PID.TID 0000.0001)     ;
(PID.TID 0000.0001) dxG =  /* dxG(1,:,1,:) ( m - cartesian, degrees - spherical ) */
(PID.TID 0000.0001)                 1.009837800879055E+05,      /* J =  1 */
(PID.TID 0000.0001)                 1.403701524205398E+05,      /* J =  2 */
(PID.TID 0000.0001)                 1.716197227386011E+05,      /* J =  3 */
(PID.TID 0000.0001)                 1.950254041626018E+05,      /* J =  4 */
(PID.TID 0000.0001)                 2.138410773065497E+05,      /* J =  5 */
(PID.TID 0000.0001)                 2.295958105911512E+05,      /* J =  6 */
(PID.TID 0000.0001)                 2.430829951739083E+05,      /* J =  7 */
(PID.TID 0000.0001)                 2.547526806712889E+05,      /* J =  8 */
(PID.TID 0000.0001)                 2.648750305193301E+05,      /* J =  9 */
(PID.TID 0000.0001)                 2.736173771018112E+05,      /* J = 10 */
(PID.TID 0000.0001)                 2.810845823202647E+05,      /* J = 11 */
(PID.TID 0000.0001)                 2.873420591008078E+05,      /* J = 12 */
(PID.TID 0000.0001)                 2.924298293668651E+05,      /* J = 13 */
(PID.TID 0000.0001)                 2.963715635865306E+05,      /* J = 14 */
(PID.TID 0000.0001)                 2.991805843171258E+05,      /* J = 15 */
(PID.TID 0000.0001)                 3.008638765647886E+05,      /* J = 16 */
(PID.TID 0000.0001)                 3.014246674484008E+05,      /* J = 17 */
(PID.TID 0000.0001)                 3.008638765647886E+05,      /* J = 18 */
(PID.TID 0000.0001)                 2.991805843171258E+05,      /* J = 19 */
(PID.TID 0000.0001)                 2.963715635865306E+05,      /* J = 20 */
(PID.TID 0000.0001)                 2.924298293668651E+05,      /* J = 21 */
(PID.TID 0000.0001)                 2.873420591008078E+05,      /* J = 22 */
(PID.TID 0000.0001)                 2.810845823202647E+05,      /* J = 23 */
(PID.TID 0000.0001)                 2.736173771018112E+05,      /* J = 24 */
(PID.TID 0000.0001)                 2.648750305193301E+05,      /* J = 25 */
(PID.TID 0000.0001)                 2.547526806712889E+05,      /* J = 26 */
(PID.TID 0000.0001)                 2.430829951739083E+05,      /* J = 27 */
(PID.TID 0000.0001)                 2.295958105911512E+05,      /* J = 28 */
(PID.TID 0000.0001)                 2.138410773065497E+05,      /* J = 29 */
(PID.TID 0000.0001)                 1.950254041626018E+05,      /* J = 30 */
(PID.TID 0000.0001)                 1.716197227386011E+05,      /* J = 31 */
(PID.TID 0000.0001)                 1.403701524205398E+05       /* J = 32 */
(PID.TID 0000.0001)     ;
(PID.TID 0000.0001) dyG =  /* dyG(:,1,:,1) ( m - cartesian, degrees - spherical ) */
(PID.TID 0000.0001)                 1.009837800879055E+05,      /* I =  1 */
(PID.TID 0000.0001)                 1.403701524205398E+05,      /* I =  2 */
(PID.TID 0000.0001)                 1.716197227386011E+05,      /* I =  3 */
(PID.TID 0000.0001)                 1.950254041626018E+05,      /* I =  4 */
(PID.TID 0000.0001)                 2.138410773065497E+05,      /* I =  5 */
(PID.TID 0000.0001)                 2.295958105911512E+05,      /* I =  6 */
(PID.TID 0000.0001)                 2.430829951739083E+05,      /* I =  7 */
(PID.TID 0000.0001)                 2.547526806712889E+05,      /* I =  8 */
(PID.TID 0000.0001)                 2.648750305193301E+05,      /* I =  9 */
(PID.TID 0000.0001)                 2.736173771018112E+05,      /* I = 10 */
(PID.TID 0000.0001)                 2.810845823202647E+05,      /* I = 11 */
(PID.TID 0000.0001)                 2.873420591008078E+05,      /* I = 12 */
(PID.TID 0000.0001)                 2.924298293668651E+05,      /* I = 13 */
(PID.TID 0000.0001)                 2.963715635865306E+05,      /* I = 14 */
(PID.TID 0000.0001)                 2.991805843171258E+05,      /* I = 15 */
(PID.TID 0000.0001)                 3.008638765647886E+05,      /* I = 16 */
(PID.TID 0000.0001)                 3.014246674484008E+05,      /* I = 17 */
(PID.TID 0000.0001)                 3.008638765647886E+05,      /* I = 18 */
(PID.TID 0000.0001)                 2.991805843171258E+05,      /* I = 19 */
(PID.TID 0000.0001)                 2.963715635865306E+05,      /* I = 20 */
(PID.TID 0000.0001)                 2.924298293668651E+05,      /* I = 21 */
(PID.TID 0000.0001)                 2.873420591008078E+05,      /* I = 22 */
(PID.TID 0000.0001)                 2.810845823202647E+05,      /* I = 23 */
(PID.TID 0000.0001)                 2.736173771018112E+05,      /* I = 24 */
(PID.TID 0000.0001)                 2.648750305193301E+05,      /* I = 25 */
(PID.TID 0000.0001)                 2.547526806712889E+05,      /* I = 26 */
(PID.TID 0000.0001)                 2.430829951739083E+05,      /* I = 27 */
(PID.TID 0000.0001)                 2.295958105911512E+05,      /* I = 28 */
(PID.TID 0000.0001)                 2.138410773065497E+05,      /* I = 29 */
(PID.TID 0000.0001)                 1.950254041626018E+05,      /* I = 30 */
(PID.TID 0000.0001)                 1.716197227386011E+05,      /* I = 31 */
(PID.TID 0000.0001)                 1.403701524205398E+05,      /* I = 32 */
(PID.TID 0000.0001)                 1.009837800879055E+05,      /* I = 33 */
(PID.TID 0000.0001)                 1.403701524205398E+05,      /* I = 34 */
(PID.TID 0000.0001)                 1.716197227386011E+05,      /* I = 35 */
(PID.TID 0000.0001)                 1.950254041626018E+05,      /* I = 36 */
(PID.TID 0000.0001)                 2.138410773065497E+05,      /* I = 37 */
(PID.TID 0000.0001)                 2.295958105911512E+05,      /* I = 38 */
(PID.TID 0000.0001)                 2.430829951739083E+05,      /* I = 39 */
(PID.TID 0000.0001)                 2.547526806712889E+05,      /* I = 40 */
(PID.TID 0000.0001)                 2.648750305193301E+05,      /* I = 41 */
(PID.TID 0000.0001)                 2.736173771018112E+05,      /* I = 42 */
(PID.TID 0000.0001)                 2.810845823202647E+05,      /* I = 43 */
(PID.TID 0000.0001)                 2.873420591008078E+05,      /* I = 44 */
(PID.TID 0000.0001)                 2.924298293668651E+05,      /* I = 45 */
(PID.TID 0000.0001)                 2.963715635865306E+05,      /* I = 46 */
(PID.TID 0000.0001)                 2.991805843171258E+05,      /* I = 47 */
(PID.TID 0000.0001)                 3.008638765647886E+05,      /* I = 48 */
(PID.TID 0000.0001)                 3.014246674484008E+05,      /* I = 49 */
(PID.TID 0000.0001)                 3.008638765647886E+05,      /* I = 50 */
(PID.TID 0000.0001)                 2.991805843171258E+05,      /* I = 51 */
(PID.TID 0000.0001)                 2.963715635865306E+05,      /* I = 52 */
(PID.TID 0000.0001)                 2.924298293668651E+05,      /* I = 53 */
(PID.TID 0000.0001)                 2.873420591008078E+05,      /* I = 54 */
(PID.TID 0000.0001)                 2.810845823202647E+05,      /* I = 55 */
(PID.TID 0000.0001)                 2.736173771018112E+05,      /* I = 56 */
(PID.TID 0000.0001)                 2.648750305193301E+05,      /* I = 57 */
(PID.TID 0000.0001)                 2.547526806712889E+05,      /* I = 58 */
(PID.TID 0000.0001)                 2.430829951739083E+05,      /* I = 59 */
(PID.TID 0000.0001)                 2.295958105911512E+05,      /* I = 60 */
(PID.TID 0000.0001)                 2.138410773065497E+05,      /* I = 61 */
(PID.TID 0000.0001)                 1.950254041626018E+05,      /* I = 62 */
(PID.TID 0000.0001)                 1.716197227386011E+05,      /* I = 63 */
(PID.TID 0000.0001)                 1.403701524205398E+05,      /* I = 64 */
(PID.TID 0000.0001)                 1.009837800879055E+05,      /* I = 65 */
(PID.TID 0000.0001)                 1.403701524205398E+05,      /* I = 66 */
(PID.TID 0000.0001)                 1.716197227386011E+05,      /* I = 67 */
(PID.TID 0000.0001)                 1.950254041626018E+05,      /* I = 68 */
(PID.TID 0000.0001)                 2.138410773065497E+05,      /* I = 69 */
(PID.TID 0000.0001)                 2.295958105911512E+05,      /* I = 70 */
(PID.TID 0000.0001)                 2.430829951739083E+05,      /* I = 71 */
(PID.TID 0000.0001)                 2.547526806712889E+05,      /* I = 72 */
(PID.TID 0000.0001)                 2.648750305193301E+05,      /* I = 73 */
(PID.TID 0000.0001)                 2.736173771018112E+05,      /* I = 74 */
(PID.TID 0000.0001)                 2.810845823202647E+05,      /* I = 75 */
(PID.TID 0000.0001)                 2.873420591008078E+05,      /* I = 76 */
(PID.TID 0000.0001)                 2.924298293668651E+05,      /* I = 77 */
(PID.TID 0000.0001)                 2.963715635865306E+05,      /* I = 78 */
(PID.TID 0000.0001)                 2.991805843171258E+05,      /* I = 79 */
(PID.TID 0000.0001)                 3.008638765647886E+05,      /* I = 80 */
(PID.TID 0000.0001)                 3.014246674484008E+05,      /* I = 81 */
(PID.TID 0000.0001)                 3.008638765647886E+05,      /* I = 82 */
(PID.TID 0000.0001)                 2.991805843171258E+05,      /* I = 83 */
(PID.TID 0000.0001)                 2.963715635865306E+05,      /* I = 84 */
(PID.TID 0000.0001)                 2.924298293668651E+05,      /* I = 85 */
(PID.TID 0000.0001)                 2.873420591008078E+05,      /* I = 86 */
(PID.TID 0000.0001)                 2.810845823202647E+05,      /* I = 87 */
(PID.TID 0000.0001)                 2.736173771018112E+05,      /* I = 88 */
(PID.TID 0000.0001)                 2.648750305193301E+05,      /* I = 89 */
(PID.TID 0000.0001)                 2.547526806712889E+05,      /* I = 90 */
(PID.TID 0000.0001)                 2.430829951739083E+05,      /* I = 91 */
(PID.TID 0000.0001)                 2.295958105911512E+05,      /* I = 92 */
(PID.TID 0000.0001)                 2.138410773065497E+05,      /* I = 93 */
(PID.TID 0000.0001)                 1.950254041626018E+05,      /* I = 94 */
(PID.TID 0000.0001)                 1.716197227386011E+05,      /* I = 95 */
(PID.TID 0000.0001)                 1.403701524205398E+05,      /* I = 96 */
(PID.TID 0000.0001)                 1.009837800879055E+05,      /* I = 97 */
(PID.TID 0000.0001)                 1.403701524205398E+05,      /* I = 98 */
(PID.TID 0000.0001)                 1.716197227386011E+05,      /* I = 99 */
(PID.TID 0000.0001)                 1.950254041626018E+05,      /* I =100 */
(PID.TID 0000.0001)                 2.138410773065497E+05,      /* I =101 */
(PID.TID 0000.0001)                 2.295958105911512E+05,      /* I =102 */
(PID.TID 0000.0001)                 2.430829951739083E+05,      /* I =103 */
(PID.TID 0000.0001)                 2.547526806712889E+05,      /* I =104 */
(PID.TID 0000.0001)                 2.648750305193301E+05,      /* I =105 */
(PID.TID 0000.0001)                 2.736173771018112E+05,      /* I =106 */
(PID.TID 0000.0001)                 2.810845823202647E+05,      /* I =107 */
(PID.TID 0000.0001)                 2.873420591008078E+05,      /* I =108 */
(PID.TID 0000.0001)                 2.924298293668651E+05,      /* I =109 */
(PID.TID 0000.0001)                 2.963715635865306E+05,      /* I =110 */
(PID.TID 0000.0001)                 2.991805843171258E+05,      /* I =111 */
(PID.TID 0000.0001)                 3.008638765647886E+05,      /* I =112 */
(PID.TID 0000.0001)                 3.014246674484008E+05,      /* I =113 */
(PID.TID 0000.0001)                 3.008638765647886E+05,      /* I =114 */
(PID.TID 0000.0001)                 2.991805843171258E+05,      /* I =115 */
(PID.TID 0000.0001)                 2.963715635865306E+05,      /* I =116 */
(PID.TID 0000.0001)                 2.924298293668651E+05,      /* I =117 */
(PID.TID 0000.0001)                 2.873420591008078E+05,      /* I =118 */
(PID.TID 0000.0001)                 2.810845823202647E+05,      /* I =119 */
(PID.TID 0000.0001)                 2.736173771018112E+05,      /* I =120 */
(PID.TID 0000.0001)                 2.648750305193301E+05,      /* I =121 */
(PID.TID 0000.0001)                 2.547526806712889E+05,      /* I =122 */
(PID.TID 0000.0001)                 2.430829951739083E+05,      /* I =123 */
(PID.TID 0000.0001)                 2.295958105911512E+05,      /* I =124 */
(PID.TID 0000.0001)                 2.138410773065497E+05,      /* I =125 */
(PID.TID 0000.0001)                 1.950254041626018E+05,      /* I =126 */
(PID.TID 0000.0001)                 1.716197227386011E+05,      /* I =127 */
(PID.TID 0000.0001)                 1.403701524205398E+05,      /* I =128 */
(PID.TID 0000.0001)                 1.009837800879055E+05,      /* I =129 */
(PID.TID 0000.0001)                 1.403701524205398E+05,      /* I =130 */
(PID.TID 0000.0001)                 1.716197227386011E+05,      /* I =131 */
(PID.TID 0000.0001)                 1.950254041626018E+05,      /* I =132 */
(PID.TID 0000.0001)                 2.138410773065497E+05,      /* I =133 */
(PID.TID 0000.0001)                 2.295958105911512E+05,      /* I =134 */
(PID.TID 0000.0001)                 2.430829951739083E+05,      /* I =135 */
(PID.TID 0000.0001)                 2.547526806712889E+05,      /* I =136 */
(PID.TID 0000.0001)                 2.648750305193301E+05,      /* I =137 */
(PID.TID 0000.0001)                 2.736173771018112E+05,      /* I =138 */
(PID.TID 0000.0001)                 2.810845823202647E+05,      /* I =139 */
(PID.TID 0000.0001)                 2.873420591008078E+05,      /* I =140 */
(PID.TID 0000.0001)                 2.924298293668651E+05,      /* I =141 */
(PID.TID 0000.0001)                 2.963715635865306E+05,      /* I =142 */
(PID.TID 0000.0001)                 2.991805843171258E+05,      /* I =143 */
(PID.TID 0000.0001)                 3.008638765647886E+05,      /* I =144 */
(PID.TID 0000.0001)                 3.014246674484008E+05,      /* I =145 */
(PID.TID 0000.0001)                 3.008638765647886E+05,      /* I =146 */
(PID.TID 0000.0001)                 2.991805843171258E+05,      /* I =147 */
(PID.TID 0000.0001)                 2.963715635865306E+05,      /* I =148 */
(PID.TID 0000.0001)                 2.924298293668651E+05,      /* I =149 */
(PID.TID 0000.0001)                 2.873420591008078E+05,      /* I =150 */
(PID.TID 0000.0001)                 2.810845823202647E+05,      /* I =151 */
(PID.TID 0000.0001)                 2.736173771018112E+05,      /* I =152 */
(PID.TID 0000.0001)                 2.648750305193301E+05,      /* I =153 */
(PID.TID 0000.0001)                 2.547526806712889E+05,      /* I =154 */
(PID.TID 0000.0001)                 2.430829951739083E+05,      /* I =155 */
(PID.TID 0000.0001)                 2.295958105911512E+05,      /* I =156 */
(PID.TID 0000.0001)                 2.138410773065497E+05,      /* I =157 */
(PID.TID 0000.0001)                 1.950254041626018E+05,      /* I =158 */
(PID.TID 0000.0001)                 1.716197227386011E+05,      /* I =159 */
(PID.TID 0000.0001)                 1.403701524205398E+05,      /* I =160 */
(PID.TID 0000.0001)                 1.009837800879055E+05,      /* I =161 */
(PID.TID 0000.0001)                 1.403701524205398E+05,      /* I =162 */
(PID.TID 0000.0001)                 1.716197227386011E+05,      /* I =163 */
(PID.TID 0000.0001)                 1.950254041626018E+05,      /* I =164 */
(PID.TID 0000.0001)                 2.138410773065497E+05,      /* I =165 */
(PID.TID 0000.0001)                 2.295958105911512E+05,      /* I =166 */
(PID.TID 0000.0001)                 2.430829951739083E+05,      /* I =167 */
(PID.TID 0000.0001)                 2.547526806712889E+05,      /* I =168 */
(PID.TID 0000.0001)                 2.648750305193301E+05,      /* I =169 */
(PID.TID 0000.0001)                 2.736173771018112E+05,      /* I =170 */
(PID.TID 0000.0001)                 2.810845823202647E+05,      /* I =171 */
(PID.TID 0000.0001)                 2.873420591008078E+05,      /* I =172 */
(PID.TID 0000.0001)                 2.924298293668651E+05,      /* I =173 */
(PID.TID 0000.0001)                 2.963715635865306E+05,      /* I =174 */
(PID.TID 0000.0001)                 2.991805843171258E+05,      /* I =175 */
(PID.TID 0000.0001)                 3.008638765647886E+05,      /* I =176 */
(PID.TID 0000.0001)                 3.014246674484008E+05,      /* I =177 */
(PID.TID 0000.0001)                 3.008638765647886E+05,      /* I =178 */
(PID.TID 0000.0001)                 2.991805843171258E+05,      /* I =179 */
(PID.TID 0000.0001)                 2.963715635865306E+05,      /* I =180 */
(PID.TID 0000.0001)                 2.924298293668651E+05,      /* I =181 */
(PID.TID 0000.0001)                 2.873420591008078E+05,      /* I =182 */
(PID.TID 0000.0001)                 2.810845823202647E+05,      /* I =183 */
(PID.TID 0000.0001)                 2.736173771018112E+05,      /* I =184 */
(PID.TID 0000.0001)                 2.648750305193301E+05,      /* I =185 */
(PID.TID 0000.0001)                 2.547526806712889E+05,      /* I =186 */
(PID.TID 0000.0001)                 2.430829951739083E+05,      /* I =187 */
(PID.TID 0000.0001)                 2.295958105911512E+05,      /* I =188 */
(PID.TID 0000.0001)                 2.138410773065497E+05,      /* I =189 */
(PID.TID 0000.0001)                 1.950254041626018E+05,      /* I =190 */
(PID.TID 0000.0001)                 1.716197227386011E+05,      /* I =191 */
(PID.TID 0000.0001)                 1.403701524205398E+05       /* I =192 */
(PID.TID 0000.0001)     ;
(PID.TID 0000.0001) dyG =  /* dyG(1,:,1,:) ( m - cartesian, degrees - spherical ) */
(PID.TID 0000.0001)                 1.009837800879055E+05,      /* J =  1 */
(PID.TID 0000.0001)                 1.534505834330338E+05,      /* J =  2 */
(PID.TID 0000.0001)                 1.823321598773926E+05,      /* J =  3 */
(PID.TID 0000.0001)                 2.038999045536999E+05,      /* J =  4 */
(PID.TID 0000.0001)                 2.213884732245467E+05,      /* J =  5 */
(PID.TID 0000.0001)                 2.361211699596122E+05,      /* J =  6 */
(PID.TID 0000.0001)                 2.487693460283865E+05,      /* J =  7 */
(PID.TID 0000.0001)                 2.597126963772147E+05,      /* J =  8 */
(PID.TID 0000.0001)                 2.691790288994575E+05,      /* J =  9 */
(PID.TID 0000.0001)                 2.773091043277394E+05,      /* J = 10 */
(PID.TID 0000.0001)                 2.841906470085516E+05,      /* J = 11 */
(PID.TID 0000.0001)                 2.898778860929753E+05,      /* J = 12 */
(PID.TID 0000.0001)                 2.944035815526416E+05,      /* J = 13 */
(PID.TID 0000.0001)                 2.977867909042096E+05,      /* J = 14 */
(PID.TID 0000.0001)                 3.000380090330854E+05,      /* J = 15 */
(PID.TID 0000.0001)     2 @  3.011625828699101E+05,             /* J = 16: 17 */
(PID.TID 0000.0001)                 3.000380090330854E+05,      /* J = 18 */
(PID.TID 0000.0001)                 2.977867909042096E+05,      /* J = 19 */
(PID.TID 0000.0001)                 2.944035815526416E+05,      /* J = 20 */
(PID.TID 0000.0001)                 2.898778860929753E+05,      /* J = 21 */
(PID.TID 0000.0001)                 2.841906470085516E+05,      /* J = 22 */
(PID.TID 0000.0001)                 2.773091043277394E+05,      /* J = 23 */
(PID.TID 0000.0001)                 2.691790288994575E+05,      /* J = 24 */
(PID.TID 0000.0001)                 2.597126963772147E+05,      /* J = 25 */
(PID.TID 0000.0001)                 2.487693460283865E+05,      /* J = 26 */
(PID.TID 0000.0001)                 2.361211699596122E+05,      /* J = 27 */
(PID.TID 0000.0001)                 2.213884732245467E+05,      /* J = 28 */
(PID.TID 0000.0001)                 2.038999045536999E+05,      /* J = 29 */
(PID.TID 0000.0001)                 1.823321598773926E+05,      /* J = 30 */
(PID.TID 0000.0001)                 1.534505834330338E+05,      /* J = 31 */
(PID.TID 0000.0001)                 1.009837800879055E+05       /* J = 32 */
(PID.TID 0000.0001)     ;
(PID.TID 0000.0001) dxC =  /* dxC(:,1,:,1) ( m - cartesian, degrees - spherical ) */
(PID.TID 0000.0001)                 1.114203141013064E+05,      /* I =  1 */
(PID.TID 0000.0001)                 1.391343389937106E+05,      /* I =  2 */
(PID.TID 0000.0001)                 1.709574999026266E+05,      /* I =  3 */
(PID.TID 0000.0001)                 1.946503699269892E+05,      /* I =  4 */
(PID.TID 0000.0001)                 2.135964483342134E+05,      /* I =  5 */
(PID.TID 0000.0001)                 2.294195678257306E+05,      /* I =  6 */
(PID.TID 0000.0001)                 2.429464709770498E+05,      /* I =  7 */
(PID.TID 0000.0001)                 2.546408290696998E+05,      /* I =  8 */
(PID.TID 0000.0001)                 2.647791839299727E+05,      /* I =  9 */
(PID.TID 0000.0001)                 2.735321911346108E+05,      /* I = 10 */
(PID.TID 0000.0001)                 2.810065951609633E+05,      /* I = 11 */
(PID.TID 0000.0001)                 2.872689479506990E+05,      /* I = 12 */
(PID.TID 0000.0001)                 2.923599955312932E+05,      /* I = 13 */
(PID.TID 0000.0001)                 2.963038832565530E+05,      /* I = 14 */
(PID.TID 0000.0001)                 2.991142470004740E+05,      /* I = 15 */
(PID.TID 0000.0001)                 3.007982711627968E+05,      /* I = 16 */
(PID.TID 0000.0001)                 3.013593857228136E+05,      /* I = 17 */
(PID.TID 0000.0001)                 3.007982711627968E+05,      /* I = 18 */
(PID.TID 0000.0001)                 2.991142470004740E+05,      /* I = 19 */
(PID.TID 0000.0001)                 2.963038832565530E+05,      /* I = 20 */
(PID.TID 0000.0001)                 2.923599955312932E+05,      /* I = 21 */
(PID.TID 0000.0001)                 2.872689479506990E+05,      /* I = 22 */
(PID.TID 0000.0001)                 2.810065951609633E+05,      /* I = 23 */
(PID.TID 0000.0001)                 2.735321911346108E+05,      /* I = 24 */
(PID.TID 0000.0001)                 2.647791839299727E+05,      /* I = 25 */
(PID.TID 0000.0001)                 2.546408290696998E+05,      /* I = 26 */
(PID.TID 0000.0001)                 2.429464709770498E+05,      /* I = 27 */
(PID.TID 0000.0001)                 2.294195678257306E+05,      /* I = 28 */
(PID.TID 0000.0001)                 2.135964483342134E+05,      /* I = 29 */
(PID.TID 0000.0001)                 1.946503699269892E+05,      /* I = 30 */
(PID.TID 0000.0001)                 1.709574999026266E+05,      /* I = 31 */
(PID.TID 0000.0001)                 1.391343389937106E+05,      /* I = 32 */
(PID.TID 0000.0001)                 1.114203141013064E+05,      /* I = 33 */
(PID.TID 0000.0001)                 1.391343389937106E+05,      /* I = 34 */
(PID.TID 0000.0001)                 1.709574999026266E+05,      /* I = 35 */
(PID.TID 0000.0001)                 1.946503699269892E+05,      /* I = 36 */
(PID.TID 0000.0001)                 2.135964483342134E+05,      /* I = 37 */
(PID.TID 0000.0001)                 2.294195678257306E+05,      /* I = 38 */
(PID.TID 0000.0001)                 2.429464709770498E+05,      /* I = 39 */
(PID.TID 0000.0001)                 2.546408290696998E+05,      /* I = 40 */
(PID.TID 0000.0001)                 2.647791839299727E+05,      /* I = 41 */
(PID.TID 0000.0001)                 2.735321911346108E+05,      /* I = 42 */
(PID.TID 0000.0001)                 2.810065951609633E+05,      /* I = 43 */
(PID.TID 0000.0001)                 2.872689479506990E+05,      /* I = 44 */
(PID.TID 0000.0001)                 2.923599955312932E+05,      /* I = 45 */
(PID.TID 0000.0001)                 2.963038832565530E+05,      /* I = 46 */
(PID.TID 0000.0001)                 2.991142470004740E+05,      /* I = 47 */
(PID.TID 0000.0001)                 3.007982711627968E+05,      /* I = 48 */
(PID.TID 0000.0001)                 3.013593857228136E+05,      /* I = 49 */
(PID.TID 0000.0001)                 3.007982711627968E+05,      /* I = 50 */
(PID.TID 0000.0001)                 2.991142470004740E+05,      /* I = 51 */
(PID.TID 0000.0001)                 2.963038832565530E+05,      /* I = 52 */
(PID.TID 0000.0001)                 2.923599955312932E+05,      /* I = 53 */
(PID.TID 0000.0001)                 2.872689479506990E+05,      /* I = 54 */
(PID.TID 0000.0001)                 2.810065951609633E+05,      /* I = 55 */
(PID.TID 0000.0001)                 2.735321911346108E+05,      /* I = 56 */
(PID.TID 0000.0001)                 2.647791839299727E+05,      /* I = 57 */
(PID.TID 0000.0001)                 2.546408290696998E+05,      /* I = 58 */
(PID.TID 0000.0001)                 2.429464709770498E+05,      /* I = 59 */
(PID.TID 0000.0001)                 2.294195678257306E+05,      /* I = 60 */
(PID.TID 0000.0001)                 2.135964483342134E+05,      /* I = 61 */
(PID.TID 0000.0001)                 1.946503699269892E+05,      /* I = 62 */
(PID.TID 0000.0001)                 1.709574999026266E+05,      /* I = 63 */
(PID.TID 0000.0001)                 1.391343389937106E+05,      /* I = 64 */
(PID.TID 0000.0001)                 1.114203141013064E+05,      /* I = 65 */
(PID.TID 0000.0001)                 1.391343389937106E+05,      /* I = 66 */
(PID.TID 0000.0001)                 1.709574999026266E+05,      /* I = 67 */
(PID.TID 0000.0001)                 1.946503699269892E+05,      /* I = 68 */
(PID.TID 0000.0001)                 2.135964483342134E+05,      /* I = 69 */
(PID.TID 0000.0001)                 2.294195678257306E+05,      /* I = 70 */
(PID.TID 0000.0001)                 2.429464709770498E+05,      /* I = 71 */
(PID.TID 0000.0001)                 2.546408290696998E+05,      /* I = 72 */
(PID.TID 0000.0001)                 2.647791839299727E+05,      /* I = 73 */
(PID.TID 0000.0001)                 2.735321911346108E+05,      /* I = 74 */
(PID.TID 0000.0001)                 2.810065951609633E+05,      /* I = 75 */
(PID.TID 0000.0001)                 2.872689479506990E+05,      /* I = 76 */
(PID.TID 0000.0001)                 2.923599955312932E+05,      /* I = 77 */
(PID.TID 0000.0001)                 2.963038832565530E+05,      /* I = 78 */
(PID.TID 0000.0001)                 2.991142470004740E+05,      /* I = 79 */
(PID.TID 0000.0001)                 3.007982711627968E+05,      /* I = 80 */
(PID.TID 0000.0001)                 3.013593857228136E+05,      /* I = 81 */
(PID.TID 0000.0001)                 3.007982711627968E+05,      /* I = 82 */
(PID.TID 0000.0001)                 2.991142470004740E+05,      /* I = 83 */
(PID.TID 0000.0001)                 2.963038832565530E+05,      /* I = 84 */
(PID.TID 0000.0001)                 2.923599955312932E+05,      /* I = 85 */
(PID.TID 0000.0001)                 2.872689479506990E+05,      /* I = 86 */
(PID.TID 0000.0001)                 2.810065951609633E+05,      /* I = 87 */
(PID.TID 0000.0001)                 2.735321911346108E+05,      /* I = 88 */
(PID.TID 0000.0001)                 2.647791839299727E+05,      /* I = 89 */
(PID.TID 0000.0001)                 2.546408290696998E+05,      /* I = 90 */
(PID.TID 0000.0001)                 2.429464709770498E+05,      /* I = 91 */
(PID.TID 0000.0001)                 2.294195678257306E+05,      /* I = 92 */
(PID.TID 0000.0001)                 2.135964483342134E+05,      /* I = 93 */
(PID.TID 0000.0001)                 1.946503699269892E+05,      /* I = 94 */
(PID.TID 0000.0001)                 1.709574999026266E+05,      /* I = 95 */
(PID.TID 0000.0001)                 1.391343389937106E+05,      /* I = 96 */
(PID.TID 0000.0001)                 1.114203141013064E+05,      /* I = 97 */
(PID.TID 0000.0001)                 1.391343389937106E+05,      /* I = 98 */
(PID.TID 0000.0001)                 1.709574999026266E+05,      /* I = 99 */
(PID.TID 0000.0001)                 1.946503699269892E+05,      /* I =100 */
(PID.TID 0000.0001)                 2.135964483342134E+05,      /* I =101 */
(PID.TID 0000.0001)                 2.294195678257306E+05,      /* I =102 */
(PID.TID 0000.0001)                 2.429464709770498E+05,      /* I =103 */
(PID.TID 0000.0001)                 2.546408290696998E+05,      /* I =104 */
(PID.TID 0000.0001)                 2.647791839299727E+05,      /* I =105 */
(PID.TID 0000.0001)                 2.735321911346108E+05,      /* I =106 */
(PID.TID 0000.0001)                 2.810065951609633E+05,      /* I =107 */
(PID.TID 0000.0001)                 2.872689479506990E+05,      /* I =108 */
(PID.TID 0000.0001)                 2.923599955312932E+05,      /* I =109 */
(PID.TID 0000.0001)                 2.963038832565530E+05,      /* I =110 */
(PID.TID 0000.0001)                 2.991142470004740E+05,      /* I =111 */
(PID.TID 0000.0001)                 3.007982711627968E+05,      /* I =112 */
(PID.TID 0000.0001)                 3.013593857228136E+05,      /* I =113 */
(PID.TID 0000.0001)                 3.007982711627968E+05,      /* I =114 */
(PID.TID 0000.0001)                 2.991142470004740E+05,      /* I =115 */
(PID.TID 0000.0001)                 2.963038832565530E+05,      /* I =116 */
(PID.TID 0000.0001)                 2.923599955312932E+05,      /* I =117 */
(PID.TID 0000.0001)                 2.872689479506990E+05,      /* I =118 */
(PID.TID 0000.0001)                 2.810065951609633E+05,      /* I =119 */
(PID.TID 0000.0001)                 2.735321911346108E+05,      /* I =120 */
(PID.TID 0000.0001)                 2.647791839299727E+05,      /* I =121 */
(PID.TID 0000.0001)                 2.546408290696998E+05,      /* I =122 */
(PID.TID 0000.0001)                 2.429464709770498E+05,      /* I =123 */
(PID.TID 0000.0001)                 2.294195678257306E+05,      /* I =124 */
(PID.TID 0000.0001)                 2.135964483342134E+05,      /* I =125 */
(PID.TID 0000.0001)                 1.946503699269892E+05,      /* I =126 */
(PID.TID 0000.0001)                 1.709574999026266E+05,      /* I =127 */
(PID.TID 0000.0001)                 1.391343389937106E+05,      /* I =128 */
(PID.TID 0000.0001)                 1.114203141013064E+05,      /* I =129 */
(PID.TID 0000.0001)                 1.391343389937106E+05,      /* I =130 */
(PID.TID 0000.0001)                 1.709574999026266E+05,      /* I =131 */
(PID.TID 0000.0001)                 1.946503699269892E+05,      /* I =132 */
(PID.TID 0000.0001)                 2.135964483342134E+05,      /* I =133 */
(PID.TID 0000.0001)                 2.294195678257306E+05,      /* I =134 */
(PID.TID 0000.0001)                 2.429464709770498E+05,      /* I =135 */
(PID.TID 0000.0001)                 2.546408290696998E+05,      /* I =136 */
(PID.TID 0000.0001)                 2.647791839299727E+05,      /* I =137 */
(PID.TID 0000.0001)                 2.735321911346108E+05,      /* I =138 */
(PID.TID 0000.0001)                 2.810065951609633E+05,      /* I =139 */
(PID.TID 0000.0001)                 2.872689479506990E+05,      /* I =140 */
(PID.TID 0000.0001)                 2.923599955312932E+05,      /* I =141 */
(PID.TID 0000.0001)                 2.963038832565530E+05,      /* I =142 */
(PID.TID 0000.0001)                 2.991142470004740E+05,      /* I =143 */
(PID.TID 0000.0001)                 3.007982711627968E+05,      /* I =144 */
(PID.TID 0000.0001)                 3.013593857228136E+05,      /* I =145 */
(PID.TID 0000.0001)                 3.007982711627968E+05,      /* I =146 */
(PID.TID 0000.0001)                 2.991142470004740E+05,      /* I =147 */
(PID.TID 0000.0001)                 2.963038832565530E+05,      /* I =148 */
(PID.TID 0000.0001)                 2.923599955312932E+05,      /* I =149 */
(PID.TID 0000.0001)                 2.872689479506990E+05,      /* I =150 */
(PID.TID 0000.0001)                 2.810065951609633E+05,      /* I =151 */
(PID.TID 0000.0001)                 2.735321911346108E+05,      /* I =152 */
(PID.TID 0000.0001)                 2.647791839299727E+05,      /* I =153 */
(PID.TID 0000.0001)                 2.546408290696998E+05,      /* I =154 */
(PID.TID 0000.0001)                 2.429464709770498E+05,      /* I =155 */
(PID.TID 0000.0001)                 2.294195678257306E+05,      /* I =156 */
(PID.TID 0000.0001)                 2.135964483342134E+05,      /* I =157 */
(PID.TID 0000.0001)                 1.946503699269892E+05,      /* I =158 */
(PID.TID 0000.0001)                 1.709574999026266E+05,      /* I =159 */
(PID.TID 0000.0001)                 1.391343389937106E+05,      /* I =160 */
(PID.TID 0000.0001)                 1.114203141013064E+05,      /* I =161 */
(PID.TID 0000.0001)                 1.391343389937106E+05,      /* I =162 */
(PID.TID 0000.0001)                 1.709574999026266E+05,      /* I =163 */
(PID.TID 0000.0001)                 1.946503699269892E+05,      /* I =164 */
(PID.TID 0000.0001)                 2.135964483342134E+05,      /* I =165 */
(PID.TID 0000.0001)                 2.294195678257306E+05,      /* I =166 */
(PID.TID 0000.0001)                 2.429464709770498E+05,      /* I =167 */
(PID.TID 0000.0001)                 2.546408290696998E+05,      /* I =168 */
(PID.TID 0000.0001)                 2.647791839299727E+05,      /* I =169 */
(PID.TID 0000.0001)                 2.735321911346108E+05,      /* I =170 */
(PID.TID 0000.0001)                 2.810065951609633E+05,      /* I =171 */
(PID.TID 0000.0001)                 2.872689479506990E+05,      /* I =172 */
(PID.TID 0000.0001)                 2.923599955312932E+05,      /* I =173 */
(PID.TID 0000.0001)                 2.963038832565530E+05,      /* I =174 */
(PID.TID 0000.0001)                 2.991142470004740E+05,      /* I =175 */
(PID.TID 0000.0001)                 3.007982711627968E+05,      /* I =176 */
(PID.TID 0000.0001)                 3.013593857228136E+05,      /* I =177 */
(PID.TID 0000.0001)                 3.007982711627968E+05,      /* I =178 */
(PID.TID 0000.0001)                 2.991142470004740E+05,      /* I =179 */
(PID.TID 0000.0001)                 2.963038832565530E+05,      /* I =180 */
(PID.TID 0000.0001)                 2.923599955312932E+05,      /* I =181 */
(PID.TID 0000.0001)                 2.872689479506990E+05,      /* I =182 */
(PID.TID 0000.0001)                 2.810065951609633E+05,      /* I =183 */
(PID.TID 0000.0001)                 2.735321911346108E+05,      /* I =184 */
(PID.TID 0000.0001)                 2.647791839299727E+05,      /* I =185 */
(PID.TID 0000.0001)                 2.546408290696998E+05,      /* I =186 */
(PID.TID 0000.0001)                 2.429464709770498E+05,      /* I =187 */
(PID.TID 0000.0001)                 2.294195678257306E+05,      /* I =188 */
(PID.TID 0000.0001)                 2.135964483342134E+05,      /* I =189 */
(PID.TID 0000.0001)                 1.946503699269892E+05,      /* I =190 */
(PID.TID 0000.0001)                 1.709574999026266E+05,      /* I =191 */
(PID.TID 0000.0001)                 1.391343389937106E+05       /* I =192 */
(PID.TID 0000.0001)     ;
(PID.TID 0000.0001) dxC =  /* dxC(1,:,1,:) ( m - cartesian, degrees - spherical ) */
(PID.TID 0000.0001)                 1.114203141013064E+05,      /* J =  1 */
(PID.TID 0000.0001)                 1.549545757850771E+05,      /* J =  2 */
(PID.TID 0000.0001)                 1.829777599966776E+05,      /* J =  3 */
(PID.TID 0000.0001)                 2.042717761866506E+05,      /* J =  4 */
(PID.TID 0000.0001)                 2.216367828252819E+05,      /* J =  5 */
(PID.TID 0000.0001)                 2.363029564123586E+05,      /* J =  6 */
(PID.TID 0000.0001)                 2.489113743322025E+05,      /* J =  7 */
(PID.TID 0000.0001)                 2.598293319150326E+05,      /* J =  8 */
(PID.TID 0000.0001)                 2.692787333338535E+05,      /* J =  9 */
(PID.TID 0000.0001)                 2.773972106720365E+05,      /* J = 10 */
(PID.TID 0000.0001)                 2.842706922224557E+05,      /* J = 11 */
(PID.TID 0000.0001)                 2.899523122489403E+05,      /* J = 12 */
(PID.TID 0000.0001)                 2.944741346384699E+05,      /* J = 13 */
(PID.TID 0000.0001)                 2.978547649292580E+05,      /* J = 14 */
(PID.TID 0000.0001)                 3.001044073506459E+05,      /* J = 15 */
(PID.TID 0000.0001)     2 @  3.012281885409289E+05,             /* J = 16: 17 */
(PID.TID 0000.0001)                 3.001044073506459E+05,      /* J = 18 */
(PID.TID 0000.0001)                 2.978547649292580E+05,      /* J = 19 */
(PID.TID 0000.0001)                 2.944741346384699E+05,      /* J = 20 */
(PID.TID 0000.0001)                 2.899523122489403E+05,      /* J = 21 */
(PID.TID 0000.0001)                 2.842706922224557E+05,      /* J = 22 */
(PID.TID 0000.0001)                 2.773972106720365E+05,      /* J = 23 */
(PID.TID 0000.0001)                 2.692787333338535E+05,      /* J = 24 */
(PID.TID 0000.0001)                 2.598293319150326E+05,      /* J = 25 */
(PID.TID 0000.0001)                 2.489113743322025E+05,      /* J = 26 */
(PID.TID 0000.0001)                 2.363029564123586E+05,      /* J = 27 */
(PID.TID 0000.0001)                 2.216367828252819E+05,      /* J = 28 */
(PID.TID 0000.0001)                 2.042717761866506E+05,      /* J = 29 */
(PID.TID 0000.0001)                 1.829777599966776E+05,      /* J = 30 */
(PID.TID 0000.0001)                 1.549545757850771E+05,      /* J = 31 */
(PID.TID 0000.0001)                 1.114203141013064E+05       /* J = 32 */
(PID.TID 0000.0001)     ;
(PID.TID 0000.0001) dyC =  /* dyC(:,1,:,1) ( m - cartesian, degrees - spherical ) */
(PID.TID 0000.0001)                 1.114203141013064E+05,      /* I =  1 */
(PID.TID 0000.0001)                 1.549545757850771E+05,      /* I =  2 */
(PID.TID 0000.0001)                 1.829777599966776E+05,      /* I =  3 */
(PID.TID 0000.0001)                 2.042717761866506E+05,      /* I =  4 */
(PID.TID 0000.0001)                 2.216367828252819E+05,      /* I =  5 */
(PID.TID 0000.0001)                 2.363029564123586E+05,      /* I =  6 */
(PID.TID 0000.0001)                 2.489113743322025E+05,      /* I =  7 */
(PID.TID 0000.0001)                 2.598293319150326E+05,      /* I =  8 */
(PID.TID 0000.0001)                 2.692787333338535E+05,      /* I =  9 */
(PID.TID 0000.0001)                 2.773972106720365E+05,      /* I = 10 */
(PID.TID 0000.0001)                 2.842706922224557E+05,      /* I = 11 */
(PID.TID 0000.0001)                 2.899523122489403E+05,      /* I = 12 */
(PID.TID 0000.0001)                 2.944741346384699E+05,      /* I = 13 */
(PID.TID 0000.0001)                 2.978547649292580E+05,      /* I = 14 */
(PID.TID 0000.0001)                 3.001044073506459E+05,      /* I = 15 */
(PID.TID 0000.0001)     2 @  3.012281885409289E+05,             /* I = 16: 17 */
(PID.TID 0000.0001)                 3.001044073506459E+05,      /* I = 18 */
(PID.TID 0000.0001)                 2.978547649292580E+05,      /* I = 19 */
(PID.TID 0000.0001)                 2.944741346384699E+05,      /* I = 20 */
(PID.TID 0000.0001)                 2.899523122489403E+05,      /* I = 21 */
(PID.TID 0000.0001)                 2.842706922224557E+05,      /* I = 22 */
(PID.TID 0000.0001)                 2.773972106720365E+05,      /* I = 23 */
(PID.TID 0000.0001)                 2.692787333338535E+05,      /* I = 24 */
(PID.TID 0000.0001)                 2.598293319150326E+05,      /* I = 25 */
(PID.TID 0000.0001)                 2.489113743322025E+05,      /* I = 26 */
(PID.TID 0000.0001)                 2.363029564123586E+05,      /* I = 27 */
(PID.TID 0000.0001)                 2.216367828252819E+05,      /* I = 28 */
(PID.TID 0000.0001)                 2.042717761866506E+05,      /* I = 29 */
(PID.TID 0000.0001)                 1.829777599966776E+05,      /* I = 30 */
(PID.TID 0000.0001)                 1.549545757850771E+05,      /* I = 31 */
(PID.TID 0000.0001)     2 @  1.114203141013064E+05,             /* I = 32: 33 */
(PID.TID 0000.0001)                 1.549545757850771E+05,      /* I = 34 */
(PID.TID 0000.0001)                 1.829777599966776E+05,      /* I = 35 */
(PID.TID 0000.0001)                 2.042717761866506E+05,      /* I = 36 */
(PID.TID 0000.0001)                 2.216367828252819E+05,      /* I = 37 */
(PID.TID 0000.0001)                 2.363029564123586E+05,      /* I = 38 */
(PID.TID 0000.0001)                 2.489113743322025E+05,      /* I = 39 */
(PID.TID 0000.0001)                 2.598293319150326E+05,      /* I = 40 */
(PID.TID 0000.0001)                 2.692787333338535E+05,      /* I = 41 */
(PID.TID 0000.0001)                 2.773972106720365E+05,      /* I = 42 */
(PID.TID 0000.0001)                 2.842706922224557E+05,      /* I = 43 */
(PID.TID 0000.0001)                 2.899523122489403E+05,      /* I = 44 */
(PID.TID 0000.0001)                 2.944741346384699E+05,      /* I = 45 */
(PID.TID 0000.0001)                 2.978547649292580E+05,      /* I = 46 */
(PID.TID 0000.0001)                 3.001044073506459E+05,      /* I = 47 */
(PID.TID 0000.0001)     2 @  3.012281885409289E+05,             /* I = 48: 49 */
(PID.TID 0000.0001)                 3.001044073506459E+05,      /* I = 50 */
(PID.TID 0000.0001)                 2.978547649292580E+05,      /* I = 51 */
(PID.TID 0000.0001)                 2.944741346384699E+05,      /* I = 52 */
(PID.TID 0000.0001)                 2.899523122489403E+05,      /* I = 53 */
(PID.TID 0000.0001)                 2.842706922224557E+05,      /* I = 54 */
(PID.TID 0000.0001)                 2.773972106720365E+05,      /* I = 55 */
(PID.TID 0000.0001)                 2.692787333338535E+05,      /* I = 56 */
(PID.TID 0000.0001)                 2.598293319150326E+05,      /* I = 57 */
(PID.TID 0000.0001)                 2.489113743322025E+05,      /* I = 58 */
(PID.TID 0000.0001)                 2.363029564123586E+05,      /* I = 59 */
(PID.TID 0000.0001)                 2.216367828252819E+05,      /* I = 60 */
(PID.TID 0000.0001)                 2.042717761866506E+05,      /* I = 61 */
(PID.TID 0000.0001)                 1.829777599966776E+05,      /* I = 62 */
(PID.TID 0000.0001)                 1.549545757850771E+05,      /* I = 63 */
(PID.TID 0000.0001)     2 @  1.114203141013064E+05,             /* I = 64: 65 */
(PID.TID 0000.0001)                 1.549545757850771E+05,      /* I = 66 */
(PID.TID 0000.0001)                 1.829777599966776E+05,      /* I = 67 */
(PID.TID 0000.0001)                 2.042717761866506E+05,      /* I = 68 */
(PID.TID 0000.0001)                 2.216367828252819E+05,      /* I = 69 */
(PID.TID 0000.0001)                 2.363029564123586E+05,      /* I = 70 */
(PID.TID 0000.0001)                 2.489113743322025E+05,      /* I = 71 */
(PID.TID 0000.0001)                 2.598293319150326E+05,      /* I = 72 */
(PID.TID 0000.0001)                 2.692787333338535E+05,      /* I = 73 */
(PID.TID 0000.0001)                 2.773972106720365E+05,      /* I = 74 */
(PID.TID 0000.0001)                 2.842706922224557E+05,      /* I = 75 */
(PID.TID 0000.0001)                 2.899523122489403E+05,      /* I = 76 */
(PID.TID 0000.0001)                 2.944741346384699E+05,      /* I = 77 */
(PID.TID 0000.0001)                 2.978547649292580E+05,      /* I = 78 */
(PID.TID 0000.0001)                 3.001044073506459E+05,      /* I = 79 */
(PID.TID 0000.0001)     2 @  3.012281885409289E+05,             /* I = 80: 81 */
(PID.TID 0000.0001)                 3.001044073506459E+05,      /* I = 82 */
(PID.TID 0000.0001)                 2.978547649292580E+05,      /* I = 83 */
(PID.TID 0000.0001)                 2.944741346384699E+05,      /* I = 84 */
(PID.TID 0000.0001)                 2.899523122489403E+05,      /* I = 85 */
(PID.TID 0000.0001)                 2.842706922224557E+05,      /* I = 86 */
(PID.TID 0000.0001)                 2.773972106720365E+05,      /* I = 87 */
(PID.TID 0000.0001)                 2.692787333338535E+05,      /* I = 88 */
(PID.TID 0000.0001)                 2.598293319150326E+05,      /* I = 89 */
(PID.TID 0000.0001)                 2.489113743322025E+05,      /* I = 90 */
(PID.TID 0000.0001)                 2.363029564123586E+05,      /* I = 91 */
(PID.TID 0000.0001)                 2.216367828252819E+05,      /* I = 92 */
(PID.TID 0000.0001)                 2.042717761866506E+05,      /* I = 93 */
(PID.TID 0000.0001)                 1.829777599966776E+05,      /* I = 94 */
(PID.TID 0000.0001)                 1.549545757850771E+05,      /* I = 95 */
(PID.TID 0000.0001)     2 @  1.114203141013064E+05,             /* I = 96: 97 */
(PID.TID 0000.0001)                 1.549545757850771E+05,      /* I = 98 */
(PID.TID 0000.0001)                 1.829777599966776E+05,      /* I = 99 */
(PID.TID 0000.0001)                 2.042717761866506E+05,      /* I =100 */
(PID.TID 0000.0001)                 2.216367828252819E+05,      /* I =101 */
(PID.TID 0000.0001)                 2.363029564123586E+05,      /* I =102 */
(PID.TID 0000.0001)                 2.489113743322025E+05,      /* I =103 */
(PID.TID 0000.0001)                 2.598293319150326E+05,      /* I =104 */
(PID.TID 0000.0001)                 2.692787333338535E+05,      /* I =105 */
(PID.TID 0000.0001)                 2.773972106720365E+05,      /* I =106 */
(PID.TID 0000.0001)                 2.842706922224557E+05,      /* I =107 */
(PID.TID 0000.0001)                 2.899523122489403E+05,      /* I =108 */
(PID.TID 0000.0001)                 2.944741346384699E+05,      /* I =109 */
(PID.TID 0000.0001)                 2.978547649292580E+05,      /* I =110 */
(PID.TID 0000.0001)                 3.001044073506459E+05,      /* I =111 */
(PID.TID 0000.0001)     2 @  3.012281885409289E+05,             /* I =112:113 */
(PID.TID 0000.0001)                 3.001044073506459E+05,      /* I =114 */
(PID.TID 0000.0001)                 2.978547649292580E+05,      /* I =115 */
(PID.TID 0000.0001)                 2.944741346384699E+05,      /* I =116 */
(PID.TID 0000.0001)                 2.899523122489403E+05,      /* I =117 */
(PID.TID 0000.0001)                 2.842706922224557E+05,      /* I =118 */
(PID.TID 0000.0001)                 2.773972106720365E+05,      /* I =119 */
(PID.TID 0000.0001)                 2.692787333338535E+05,      /* I =120 */
(PID.TID 0000.0001)                 2.598293319150326E+05,      /* I =121 */
(PID.TID 0000.0001)                 2.489113743322025E+05,      /* I =122 */
(PID.TID 0000.0001)                 2.363029564123586E+05,      /* I =123 */
(PID.TID 0000.0001)                 2.216367828252819E+05,      /* I =124 */
(PID.TID 0000.0001)                 2.042717761866506E+05,      /* I =125 */
(PID.TID 0000.0001)                 1.829777599966776E+05,      /* I =126 */
(PID.TID 0000.0001)                 1.549545757850771E+05,      /* I =127 */
(PID.TID 0000.0001)     2 @  1.114203141013064E+05,             /* I =128:129 */
(PID.TID 0000.0001)                 1.549545757850771E+05,      /* I =130 */
(PID.TID 0000.0001)                 1.829777599966776E+05,      /* I =131 */
(PID.TID 0000.0001)                 2.042717761866506E+05,      /* I =132 */
(PID.TID 0000.0001)                 2.216367828252819E+05,      /* I =133 */
(PID.TID 0000.0001)                 2.363029564123586E+05,      /* I =134 */
(PID.TID 0000.0001)                 2.489113743322025E+05,      /* I =135 */
(PID.TID 0000.0001)                 2.598293319150326E+05,      /* I =136 */
(PID.TID 0000.0001)                 2.692787333338535E+05,      /* I =137 */
(PID.TID 0000.0001)                 2.773972106720365E+05,      /* I =138 */
(PID.TID 0000.0001)                 2.842706922224557E+05,      /* I =139 */
(PID.TID 0000.0001)                 2.899523122489403E+05,      /* I =140 */
(PID.TID 0000.0001)                 2.944741346384699E+05,      /* I =141 */
(PID.TID 0000.0001)                 2.978547649292580E+05,      /* I =142 */
(PID.TID 0000.0001)                 3.001044073506459E+05,      /* I =143 */
(PID.TID 0000.0001)     2 @  3.012281885409289E+05,             /* I =144:145 */
(PID.TID 0000.0001)                 3.001044073506459E+05,      /* I =146 */
(PID.TID 0000.0001)                 2.978547649292580E+05,      /* I =147 */
(PID.TID 0000.0001)                 2.944741346384699E+05,      /* I =148 */
(PID.TID 0000.0001)                 2.899523122489403E+05,      /* I =149 */
(PID.TID 0000.0001)                 2.842706922224557E+05,      /* I =150 */
(PID.TID 0000.0001)                 2.773972106720365E+05,      /* I =151 */
(PID.TID 0000.0001)                 2.692787333338535E+05,      /* I =152 */
(PID.TID 0000.0001)                 2.598293319150326E+05,      /* I =153 */
(PID.TID 0000.0001)                 2.489113743322025E+05,      /* I =154 */
(PID.TID 0000.0001)                 2.363029564123586E+05,      /* I =155 */
(PID.TID 0000.0001)                 2.216367828252819E+05,      /* I =156 */
(PID.TID 0000.0001)                 2.042717761866506E+05,      /* I =157 */
(PID.TID 0000.0001)                 1.829777599966776E+05,      /* I =158 */
(PID.TID 0000.0001)                 1.549545757850771E+05,      /* I =159 */
(PID.TID 0000.0001)     2 @  1.114203141013064E+05,             /* I =160:161 */
(PID.TID 0000.0001)                 1.549545757850771E+05,      /* I =162 */
(PID.TID 0000.0001)                 1.829777599966776E+05,      /* I =163 */
(PID.TID 0000.0001)                 2.042717761866506E+05,      /* I =164 */
(PID.TID 0000.0001)                 2.216367828252819E+05,      /* I =165 */
(PID.TID 0000.0001)                 2.363029564123586E+05,      /* I =166 */
(PID.TID 0000.0001)                 2.489113743322025E+05,      /* I =167 */
(PID.TID 0000.0001)                 2.598293319150326E+05,      /* I =168 */
(PID.TID 0000.0001)                 2.692787333338535E+05,      /* I =169 */
(PID.TID 0000.0001)                 2.773972106720365E+05,      /* I =170 */
(PID.TID 0000.0001)                 2.842706922224557E+05,      /* I =171 */
(PID.TID 0000.0001)                 2.899523122489403E+05,      /* I =172 */
(PID.TID 0000.0001)                 2.944741346384699E+05,      /* I =173 */
(PID.TID 0000.0001)                 2.978547649292580E+05,      /* I =174 */
(PID.TID 0000.0001)                 3.001044073506459E+05,      /* I =175 */
(PID.TID 0000.0001)     2 @  3.012281885409289E+05,             /* I =176:177 */
(PID.TID 0000.0001)                 3.001044073506459E+05,      /* I =178 */
(PID.TID 0000.0001)                 2.978547649292580E+05,      /* I =179 */
(PID.TID 0000.0001)                 2.944741346384699E+05,      /* I =180 */
(PID.TID 0000.0001)                 2.899523122489403E+05,      /* I =181 */
(PID.TID 0000.0001)                 2.842706922224557E+05,      /* I =182 */
(PID.TID 0000.0001)                 2.773972106720365E+05,      /* I =183 */
(PID.TID 0000.0001)                 2.692787333338535E+05,      /* I =184 */
(PID.TID 0000.0001)                 2.598293319150326E+05,      /* I =185 */
(PID.TID 0000.0001)                 2.489113743322025E+05,      /* I =186 */
(PID.TID 0000.0001)                 2.363029564123586E+05,      /* I =187 */
(PID.TID 0000.0001)                 2.216367828252819E+05,      /* I =188 */
(PID.TID 0000.0001)                 2.042717761866506E+05,      /* I =189 */
(PID.TID 0000.0001)                 1.829777599966776E+05,      /* I =190 */
(PID.TID 0000.0001)                 1.549545757850771E+05,      /* I =191 */
(PID.TID 0000.0001)                 1.114203141013064E+05       /* I =192 */
(PID.TID 0000.0001)     ;
(PID.TID 0000.0001) dyC =  /* dyC(1,:,1,:) ( m - cartesian, degrees - spherical ) */
(PID.TID 0000.0001)                 1.114203141013064E+05,      /* J =  1 */
(PID.TID 0000.0001)                 1.391343389937106E+05,      /* J =  2 */
(PID.TID 0000.0001)                 1.709574999026266E+05,      /* J =  3 */
(PID.TID 0000.0001)                 1.946503699269892E+05,      /* J =  4 */
(PID.TID 0000.0001)                 2.135964483342134E+05,      /* J =  5 */
(PID.TID 0000.0001)                 2.294195678257306E+05,      /* J =  6 */
(PID.TID 0000.0001)                 2.429464709770498E+05,      /* J =  7 */
(PID.TID 0000.0001)                 2.546408290696998E+05,      /* J =  8 */
(PID.TID 0000.0001)                 2.647791839299727E+05,      /* J =  9 */
(PID.TID 0000.0001)                 2.735321911346108E+05,      /* J = 10 */
(PID.TID 0000.0001)                 2.810065951609633E+05,      /* J = 11 */
(PID.TID 0000.0001)                 2.872689479506990E+05,      /* J = 12 */
(PID.TID 0000.0001)                 2.923599955312932E+05,      /* J = 13 */
(PID.TID 0000.0001)                 2.963038832565530E+05,      /* J = 14 */
(PID.TID 0000.0001)                 2.991142470004740E+05,      /* J = 15 */
(PID.TID 0000.0001)                 3.007982711627968E+05,      /* J = 16 */
(PID.TID 0000.0001)                 3.013593857228136E+05,      /* J = 17 */
(PID.TID 0000.0001)                 3.007982711627968E+05,      /* J = 18 */
(PID.TID 0000.0001)                 2.991142470004740E+05,      /* J = 19 */
(PID.TID 0000.0001)                 2.963038832565530E+05,      /* J = 20 */
(PID.TID 0000.0001)                 2.923599955312932E+05,      /* J = 21 */
(PID.TID 0000.0001)                 2.872689479506990E+05,      /* J = 22 */
(PID.TID 0000.0001)                 2.810065951609633E+05,      /* J = 23 */
(PID.TID 0000.0001)                 2.735321911346108E+05,      /* J = 24 */
(PID.TID 0000.0001)                 2.647791839299727E+05,      /* J = 25 */
(PID.TID 0000.0001)                 2.546408290696998E+05,      /* J = 26 */
(PID.TID 0000.0001)                 2.429464709770498E+05,      /* J = 27 */
(PID.TID 0000.0001)                 2.294195678257306E+05,      /* J = 28 */
(PID.TID 0000.0001)                 2.135964483342134E+05,      /* J = 29 */
(PID.TID 0000.0001)                 1.946503699269892E+05,      /* J = 30 */
(PID.TID 0000.0001)                 1.709574999026266E+05,      /* J = 31 */
(PID.TID 0000.0001)                 1.391343389937106E+05       /* J = 32 */
(PID.TID 0000.0001)     ;
(PID.TID 0000.0001) dxV =  /* dxV(:,1,:,1) ( m - cartesian, degrees - spherical ) */
(PID.TID 0000.0001)                 8.015229982413632E+04,      /* I =  1 */
(PID.TID 0000.0001)                 1.333130744933864E+05,      /* I =  2 */
(PID.TID 0000.0001)                 1.691744868129062E+05,      /* I =  3 */
(PID.TID 0000.0001)                 1.937548202849060E+05,      /* I =  4 */
(PID.TID 0000.0001)                 2.130490056267208E+05,      /* I =  5 */
(PID.TID 0000.0001)                 2.290479919481738E+05,      /* I =  6 */
(PID.TID 0000.0001)                 2.426774358027003E+05,      /* I =  7 */
(PID.TID 0000.0001)                 2.544372984215561E+05,      /* I =  8 */
(PID.TID 0000.0001)                 2.646201463834826E+05,      /* I =  9 */
(PID.TID 0000.0001)                 2.734046499619031E+05,      /* I = 10 */
(PID.TID 0000.0001)                 2.809019351693761E+05,      /* I = 11 */
(PID.TID 0000.0001)                 2.871811105274442E+05,      /* I = 12 */
(PID.TID 0000.0001)                 2.922844849381675E+05,      /* I = 13 */
(PID.TID 0000.0001)                 2.962371870847826E+05,      /* I = 14 */
(PID.TID 0000.0001)                 2.990534755671296E+05,      /* I = 15 */
(PID.TID 0000.0001)                 3.007409169495504E+05,      /* I = 16 */
(PID.TID 0000.0001)                 3.013031486919771E+05,      /* I = 17 */
(PID.TID 0000.0001)                 3.007409169495504E+05,      /* I = 18 */
(PID.TID 0000.0001)                 2.990534755671296E+05,      /* I = 19 */
(PID.TID 0000.0001)                 2.962371870847826E+05,      /* I = 20 */
(PID.TID 0000.0001)                 2.922844849381675E+05,      /* I = 21 */
(PID.TID 0000.0001)                 2.871811105274442E+05,      /* I = 22 */
(PID.TID 0000.0001)                 2.809019351693761E+05,      /* I = 23 */
(PID.TID 0000.0001)                 2.734046499619031E+05,      /* I = 24 */
(PID.TID 0000.0001)                 2.646201463834826E+05,      /* I = 25 */
(PID.TID 0000.0001)                 2.544372984215561E+05,      /* I = 26 */
(PID.TID 0000.0001)                 2.426774358027003E+05,      /* I = 27 */
(PID.TID 0000.0001)                 2.290479919481738E+05,      /* I = 28 */
(PID.TID 0000.0001)                 2.130490056267208E+05,      /* I = 29 */
(PID.TID 0000.0001)                 1.937548202849060E+05,      /* I = 30 */
(PID.TID 0000.0001)                 1.691744868129062E+05,      /* I = 31 */
(PID.TID 0000.0001)                 1.333130744933864E+05,      /* I = 32 */
(PID.TID 0000.0001)                 8.015229982413632E+04,      /* I = 33 */
(PID.TID 0000.0001)                 1.333130744933864E+05,      /* I = 34 */
(PID.TID 0000.0001)                 1.691744868129062E+05,      /* I = 35 */
(PID.TID 0000.0001)                 1.937548202849060E+05,      /* I = 36 */
(PID.TID 0000.0001)                 2.130490056267208E+05,      /* I = 37 */
(PID.TID 0000.0001)                 2.290479919481738E+05,      /* I = 38 */
(PID.TID 0000.0001)                 2.426774358027003E+05,      /* I = 39 */
(PID.TID 0000.0001)                 2.544372984215561E+05,      /* I = 40 */
(PID.TID 0000.0001)                 2.646201463834826E+05,      /* I = 41 */
(PID.TID 0000.0001)                 2.734046499619031E+05,      /* I = 42 */
(PID.TID 0000.0001)                 2.809019351693761E+05,      /* I = 43 */
(PID.TID 0000.0001)                 2.871811105274442E+05,      /* I = 44 */
(PID.TID 0000.0001)                 2.922844849381675E+05,      /* I = 45 */
(PID.TID 0000.0001)                 2.962371870847826E+05,      /* I = 46 */
(PID.TID 0000.0001)                 2.990534755671296E+05,      /* I = 47 */
(PID.TID 0000.0001)                 3.007409169495504E+05,      /* I = 48 */
(PID.TID 0000.0001)                 3.013031486919771E+05,      /* I = 49 */
(PID.TID 0000.0001)                 3.007409169495504E+05,      /* I = 50 */
(PID.TID 0000.0001)                 2.990534755671296E+05,      /* I = 51 */
(PID.TID 0000.0001)                 2.962371870847826E+05,      /* I = 52 */
(PID.TID 0000.0001)                 2.922844849381675E+05,      /* I = 53 */
(PID.TID 0000.0001)                 2.871811105274442E+05,      /* I = 54 */
(PID.TID 0000.0001)                 2.809019351693761E+05,      /* I = 55 */
(PID.TID 0000.0001)                 2.734046499619031E+05,      /* I = 56 */
(PID.TID 0000.0001)                 2.646201463834826E+05,      /* I = 57 */
(PID.TID 0000.0001)                 2.544372984215561E+05,      /* I = 58 */
(PID.TID 0000.0001)                 2.426774358027003E+05,      /* I = 59 */
(PID.TID 0000.0001)                 2.290479919481738E+05,      /* I = 60 */
(PID.TID 0000.0001)                 2.130490056267208E+05,      /* I = 61 */
(PID.TID 0000.0001)                 1.937548202849060E+05,      /* I = 62 */
(PID.TID 0000.0001)                 1.691744868129062E+05,      /* I = 63 */
(PID.TID 0000.0001)                 1.333130744933864E+05,      /* I = 64 */
(PID.TID 0000.0001)                 8.015229982413632E+04,      /* I = 65 */
(PID.TID 0000.0001)                 1.333130744933864E+05,      /* I = 66 */
(PID.TID 0000.0001)                 1.691744868129062E+05,      /* I = 67 */
(PID.TID 0000.0001)                 1.937548202849060E+05,      /* I = 68 */
(PID.TID 0000.0001)                 2.130490056267208E+05,      /* I = 69 */
(PID.TID 0000.0001)                 2.290479919481738E+05,      /* I = 70 */
(PID.TID 0000.0001)                 2.426774358027003E+05,      /* I = 71 */
(PID.TID 0000.0001)                 2.544372984215561E+05,      /* I = 72 */
(PID.TID 0000.0001)                 2.646201463834826E+05,      /* I = 73 */
(PID.TID 0000.0001)                 2.734046499619031E+05,      /* I = 74 */
(PID.TID 0000.0001)                 2.809019351693761E+05,      /* I = 75 */
(PID.TID 0000.0001)                 2.871811105274442E+05,      /* I = 76 */
(PID.TID 0000.0001)                 2.922844849381675E+05,      /* I = 77 */
(PID.TID 0000.0001)                 2.962371870847826E+05,      /* I = 78 */
(PID.TID 0000.0001)                 2.990534755671296E+05,      /* I = 79 */
(PID.TID 0000.0001)                 3.007409169495504E+05,      /* I = 80 */
(PID.TID 0000.0001)                 3.013031486919771E+05,      /* I = 81 */
(PID.TID 0000.0001)                 3.007409169495504E+05,      /* I = 82 */
(PID.TID 0000.0001)                 2.990534755671296E+05,      /* I = 83 */
(PID.TID 0000.0001)                 2.962371870847826E+05,      /* I = 84 */
(PID.TID 0000.0001)                 2.922844849381675E+05,      /* I = 85 */
(PID.TID 0000.0001)                 2.871811105274442E+05,      /* I = 86 */
(PID.TID 0000.0001)                 2.809019351693761E+05,      /* I = 87 */
(PID.TID 0000.0001)                 2.734046499619031E+05,      /* I = 88 */
(PID.TID 0000.0001)                 2.646201463834826E+05,      /* I = 89 */
(PID.TID 0000.0001)                 2.544372984215561E+05,      /* I = 90 */
(PID.TID 0000.0001)                 2.426774358027003E+05,      /* I = 91 */
(PID.TID 0000.0001)                 2.290479919481738E+05,      /* I = 92 */
(PID.TID 0000.0001)                 2.130490056267208E+05,      /* I = 93 */
(PID.TID 0000.0001)                 1.937548202849060E+05,      /* I = 94 */
(PID.TID 0000.0001)                 1.691744868129062E+05,      /* I = 95 */
(PID.TID 0000.0001)                 1.333130744933864E+05,      /* I = 96 */
(PID.TID 0000.0001)                 8.015229982413632E+04,      /* I = 97 */
(PID.TID 0000.0001)                 1.333130744933864E+05,      /* I = 98 */
(PID.TID 0000.0001)                 1.691744868129062E+05,      /* I = 99 */
(PID.TID 0000.0001)                 1.937548202849060E+05,      /* I =100 */
(PID.TID 0000.0001)                 2.130490056267208E+05,      /* I =101 */
(PID.TID 0000.0001)                 2.290479919481738E+05,      /* I =102 */
(PID.TID 0000.0001)                 2.426774358027003E+05,      /* I =103 */
(PID.TID 0000.0001)                 2.544372984215561E+05,      /* I =104 */
(PID.TID 0000.0001)                 2.646201463834826E+05,      /* I =105 */
(PID.TID 0000.0001)                 2.734046499619031E+05,      /* I =106 */
(PID.TID 0000.0001)                 2.809019351693761E+05,      /* I =107 */
(PID.TID 0000.0001)                 2.871811105274442E+05,      /* I =108 */
(PID.TID 0000.0001)                 2.922844849381675E+05,      /* I =109 */
(PID.TID 0000.0001)                 2.962371870847826E+05,      /* I =110 */
(PID.TID 0000.0001)                 2.990534755671296E+05,      /* I =111 */
(PID.TID 0000.0001)                 3.007409169495504E+05,      /* I =112 */
(PID.TID 0000.0001)                 3.013031486919771E+05,      /* I =113 */
(PID.TID 0000.0001)                 3.007409169495504E+05,      /* I =114 */
(PID.TID 0000.0001)                 2.990534755671296E+05,      /* I =115 */
(PID.TID 0000.0001)                 2.962371870847826E+05,      /* I =116 */
(PID.TID 0000.0001)                 2.922844849381675E+05,      /* I =117 */
(PID.TID 0000.0001)                 2.871811105274442E+05,      /* I =118 */
(PID.TID 0000.0001)                 2.809019351693761E+05,      /* I =119 */
(PID.TID 0000.0001)                 2.734046499619031E+05,      /* I =120 */
(PID.TID 0000.0001)                 2.646201463834826E+05,      /* I =121 */
(PID.TID 0000.0001)                 2.544372984215561E+05,      /* I =122 */
(PID.TID 0000.0001)                 2.426774358027003E+05,      /* I =123 */
(PID.TID 0000.0001)                 2.290479919481738E+05,      /* I =124 */
(PID.TID 0000.0001)                 2.130490056267208E+05,      /* I =125 */
(PID.TID 0000.0001)                 1.937548202849060E+05,      /* I =126 */
(PID.TID 0000.0001)                 1.691744868129062E+05,      /* I =127 */
(PID.TID 0000.0001)                 1.333130744933864E+05,      /* I =128 */
(PID.TID 0000.0001)                 8.015229982413632E+04,      /* I =129 */
(PID.TID 0000.0001)                 1.333130744933864E+05,      /* I =130 */
(PID.TID 0000.0001)                 1.691744868129062E+05,      /* I =131 */
(PID.TID 0000.0001)                 1.937548202849060E+05,      /* I =132 */
(PID.TID 0000.0001)                 2.130490056267208E+05,      /* I =133 */
(PID.TID 0000.0001)                 2.290479919481738E+05,      /* I =134 */
(PID.TID 0000.0001)                 2.426774358027003E+05,      /* I =135 */
(PID.TID 0000.0001)                 2.544372984215561E+05,      /* I =136 */
(PID.TID 0000.0001)                 2.646201463834826E+05,      /* I =137 */
(PID.TID 0000.0001)                 2.734046499619031E+05,      /* I =138 */
(PID.TID 0000.0001)                 2.809019351693761E+05,      /* I =139 */
(PID.TID 0000.0001)                 2.871811105274442E+05,      /* I =140 */
(PID.TID 0000.0001)                 2.922844849381675E+05,      /* I =141 */
(PID.TID 0000.0001)                 2.962371870847826E+05,      /* I =142 */
(PID.TID 0000.0001)                 2.990534755671296E+05,      /* I =143 */
(PID.TID 0000.0001)                 3.007409169495504E+05,      /* I =144 */
(PID.TID 0000.0001)                 3.013031486919771E+05,      /* I =145 */
(PID.TID 0000.0001)                 3.007409169495504E+05,      /* I =146 */
(PID.TID 0000.0001)                 2.990534755671296E+05,      /* I =147 */
(PID.TID 0000.0001)                 2.962371870847826E+05,      /* I =148 */
(PID.TID 0000.0001)                 2.922844849381675E+05,      /* I =149 */
(PID.TID 0000.0001)                 2.871811105274442E+05,      /* I =150 */
(PID.TID 0000.0001)                 2.809019351693761E+05,      /* I =151 */
(PID.TID 0000.0001)                 2.734046499619031E+05,      /* I =152 */
(PID.TID 0000.0001)                 2.646201463834826E+05,      /* I =153 */
(PID.TID 0000.0001)                 2.544372984215561E+05,      /* I =154 */
(PID.TID 0000.0001)                 2.426774358027003E+05,      /* I =155 */
(PID.TID 0000.0001)                 2.290479919481738E+05,      /* I =156 */
(PID.TID 0000.0001)                 2.130490056267208E+05,      /* I =157 */
(PID.TID 0000.0001)                 1.937548202849060E+05,      /* I =158 */
(PID.TID 0000.0001)                 1.691744868129062E+05,      /* I =159 */
(PID.TID 0000.0001)                 1.333130744933864E+05,      /* I =160 */
(PID.TID 0000.0001)                 8.015229982413632E+04,      /* I =161 */
(PID.TID 0000.0001)                 1.333130744933864E+05,      /* I =162 */
(PID.TID 0000.0001)                 1.691744868129062E+05,      /* I =163 */
(PID.TID 0000.0001)                 1.937548202849060E+05,      /* I =164 */
(PID.TID 0000.0001)                 2.130490056267208E+05,      /* I =165 */
(PID.TID 0000.0001)                 2.290479919481738E+05,      /* I =166 */
(PID.TID 0000.0001)                 2.426774358027003E+05,      /* I =167 */
(PID.TID 0000.0001)                 2.544372984215561E+05,      /* I =168 */
(PID.TID 0000.0001)                 2.646201463834826E+05,      /* I =169 */
(PID.TID 0000.0001)                 2.734046499619031E+05,      /* I =170 */
(PID.TID 0000.0001)                 2.809019351693761E+05,      /* I =171 */
(PID.TID 0000.0001)                 2.871811105274442E+05,      /* I =172 */
(PID.TID 0000.0001)                 2.922844849381675E+05,      /* I =173 */
(PID.TID 0000.0001)                 2.962371870847826E+05,      /* I =174 */
(PID.TID 0000.0001)                 2.990534755671296E+05,      /* I =175 */
(PID.TID 0000.0001)                 3.007409169495504E+05,      /* I =176 */
(PID.TID 0000.0001)                 3.013031486919771E+05,      /* I =177 */
(PID.TID 0000.0001)                 3.007409169495504E+05,      /* I =178 */
(PID.TID 0000.0001)                 2.990534755671296E+05,      /* I =179 */
(PID.TID 0000.0001)                 2.962371870847826E+05,      /* I =180 */
(PID.TID 0000.0001)                 2.922844849381675E+05,      /* I =181 */
(PID.TID 0000.0001)                 2.871811105274442E+05,      /* I =182 */
(PID.TID 0000.0001)                 2.809019351693761E+05,      /* I =183 */
(PID.TID 0000.0001)                 2.734046499619031E+05,      /* I =184 */
(PID.TID 0000.0001)                 2.646201463834826E+05,      /* I =185 */
(PID.TID 0000.0001)                 2.544372984215561E+05,      /* I =186 */
(PID.TID 0000.0001)                 2.426774358027003E+05,      /* I =187 */
(PID.TID 0000.0001)                 2.290479919481738E+05,      /* I =188 */
(PID.TID 0000.0001)                 2.130490056267208E+05,      /* I =189 */
(PID.TID 0000.0001)                 1.937548202849060E+05,      /* I =190 */
(PID.TID 0000.0001)                 1.691744868129062E+05,      /* I =191 */
(PID.TID 0000.0001)                 1.333130744933864E+05       /* I =192 */
(PID.TID 0000.0001)     ;
(PID.TID 0000.0001) dxV =  /* dxV(1,:,1,:) ( m - cartesian, degrees - spherical ) */
(PID.TID 0000.0001)                 8.015229982413632E+04,      /* J =  1 */
(PID.TID 0000.0001)                 1.362652340208229E+05,      /* J =  2 */
(PID.TID 0000.0001)                 1.701080315742101E+05,      /* J =  3 */
(PID.TID 0000.0001)                 1.942331448101592E+05,      /* J =  4 */
(PID.TID 0000.0001)                 2.133486626971531E+05,      /* J =  5 */
(PID.TID 0000.0001)                 2.292584591272880E+05,      /* J =  6 */
(PID.TID 0000.0001)                 2.428369969078989E+05,      /* J =  7 */
(PID.TID 0000.0001)                 2.545652950875683E+05,      /* J =  8 */
(PID.TID 0000.0001)                 2.647274964828301E+05,      /* J =  9 */
(PID.TID 0000.0001)                 2.734980225206389E+05,      /* J = 10 */
(PID.TID 0000.0001)                 2.809856491525217E+05,      /* J = 11 */
(PID.TID 0000.0001)                 2.872580915202295E+05,      /* J = 12 */
(PID.TID 0000.0001)                 2.923567890694162E+05,      /* J = 13 */
(PID.TID 0000.0001)                 2.963063101754721E+05,      /* J = 14 */
(PID.TID 0000.0001)                 2.991205495886625E+05,      /* J = 15 */
(PID.TID 0000.0001)                 3.008068453676764E+05,      /* J = 16 */
(PID.TID 0000.0001)                 3.013686170436881E+05,      /* J = 17 */
(PID.TID 0000.0001)                 3.008068453676764E+05,      /* J = 18 */
(PID.TID 0000.0001)                 2.991205495886625E+05,      /* J = 19 */
(PID.TID 0000.0001)                 2.963063101754721E+05,      /* J = 20 */
(PID.TID 0000.0001)                 2.923567890694162E+05,      /* J = 21 */
(PID.TID 0000.0001)                 2.872580915202295E+05,      /* J = 22 */
(PID.TID 0000.0001)                 2.809856491525217E+05,      /* J = 23 */
(PID.TID 0000.0001)                 2.734980225206389E+05,      /* J = 24 */
(PID.TID 0000.0001)                 2.647274964828301E+05,      /* J = 25 */
(PID.TID 0000.0001)                 2.545652950875683E+05,      /* J = 26 */
(PID.TID 0000.0001)                 2.428369969078989E+05,      /* J = 27 */
(PID.TID 0000.0001)                 2.292584591272880E+05,      /* J = 28 */
(PID.TID 0000.0001)                 2.133486626971531E+05,      /* J = 29 */
(PID.TID 0000.0001)                 1.942331448101592E+05,      /* J = 30 */
(PID.TID 0000.0001)                 1.701080315742101E+05,      /* J = 31 */
(PID.TID 0000.0001)                 1.362652340208229E+05       /* J = 32 */
(PID.TID 0000.0001)     ;
(PID.TID 0000.0001) dyU =  /* dyU(:,1,:,1) ( m - cartesian, degrees - spherical ) */
(PID.TID 0000.0001)                 8.015229982413632E+04,      /* I =  1 */
(PID.TID 0000.0001)                 1.362652340208229E+05,      /* I =  2 */
(PID.TID 0000.0001)                 1.701080315742101E+05,      /* I =  3 */
(PID.TID 0000.0001)                 1.942331448101592E+05,      /* I =  4 */
(PID.TID 0000.0001)                 2.133486626971531E+05,      /* I =  5 */
(PID.TID 0000.0001)                 2.292584591272880E+05,      /* I =  6 */
(PID.TID 0000.0001)                 2.428369969078989E+05,      /* I =  7 */
(PID.TID 0000.0001)                 2.545652950875683E+05,      /* I =  8 */
(PID.TID 0000.0001)                 2.647274964828301E+05,      /* I =  9 */
(PID.TID 0000.0001)                 2.734980225206389E+05,      /* I = 10 */
(PID.TID 0000.0001)                 2.809856491525217E+05,      /* I = 11 */
(PID.TID 0000.0001)                 2.872580915202295E+05,      /* I = 12 */
(PID.TID 0000.0001)                 2.923567890694162E+05,      /* I = 13 */
(PID.TID 0000.0001)                 2.963063101754721E+05,      /* I = 14 */
(PID.TID 0000.0001)                 2.991205495886625E+05,      /* I = 15 */
(PID.TID 0000.0001)                 3.008068453676764E+05,      /* I = 16 */
(PID.TID 0000.0001)                 3.013686170436881E+05,      /* I = 17 */
(PID.TID 0000.0001)                 3.008068453676764E+05,      /* I = 18 */
(PID.TID 0000.0001)                 2.991205495886625E+05,      /* I = 19 */
(PID.TID 0000.0001)                 2.963063101754721E+05,      /* I = 20 */
(PID.TID 0000.0001)                 2.923567890694162E+05,      /* I = 21 */
(PID.TID 0000.0001)                 2.872580915202295E+05,      /* I = 22 */
(PID.TID 0000.0001)                 2.809856491525217E+05,      /* I = 23 */
(PID.TID 0000.0001)                 2.734980225206389E+05,      /* I = 24 */
(PID.TID 0000.0001)                 2.647274964828301E+05,      /* I = 25 */
(PID.TID 0000.0001)                 2.545652950875683E+05,      /* I = 26 */
(PID.TID 0000.0001)                 2.428369969078989E+05,      /* I = 27 */
(PID.TID 0000.0001)                 2.292584591272880E+05,      /* I = 28 */
(PID.TID 0000.0001)                 2.133486626971531E+05,      /* I = 29 */
(PID.TID 0000.0001)                 1.942331448101592E+05,      /* I = 30 */
(PID.TID 0000.0001)                 1.701080315742101E+05,      /* I = 31 */
(PID.TID 0000.0001)                 1.362652340208229E+05,      /* I = 32 */
(PID.TID 0000.0001)                 8.015229982413632E+04,      /* I = 33 */
(PID.TID 0000.0001)                 1.362652340208229E+05,      /* I = 34 */
(PID.TID 0000.0001)                 1.701080315742101E+05,      /* I = 35 */
(PID.TID 0000.0001)                 1.942331448101592E+05,      /* I = 36 */
(PID.TID 0000.0001)                 2.133486626971531E+05,      /* I = 37 */
(PID.TID 0000.0001)                 2.292584591272880E+05,      /* I = 38 */
(PID.TID 0000.0001)                 2.428369969078989E+05,      /* I = 39 */
(PID.TID 0000.0001)                 2.545652950875683E+05,      /* I = 40 */
(PID.TID 0000.0001)                 2.647274964828301E+05,      /* I = 41 */
(PID.TID 0000.0001)                 2.734980225206389E+05,      /* I = 42 */
(PID.TID 0000.0001)                 2.809856491525217E+05,      /* I = 43 */
(PID.TID 0000.0001)                 2.872580915202295E+05,      /* I = 44 */
(PID.TID 0000.0001)                 2.923567890694162E+05,      /* I = 45 */
(PID.TID 0000.0001)                 2.963063101754721E+05,      /* I = 46 */
(PID.TID 0000.0001)                 2.991205495886625E+05,      /* I = 47 */
(PID.TID 0000.0001)                 3.008068453676764E+05,      /* I = 48 */
(PID.TID 0000.0001)                 3.013686170436881E+05,      /* I = 49 */
(PID.TID 0000.0001)                 3.008068453676764E+05,      /* I = 50 */
(PID.TID 0000.0001)                 2.991205495886625E+05,      /* I = 51 */
(PID.TID 0000.0001)                 2.963063101754721E+05,      /* I = 52 */
(PID.TID 0000.0001)                 2.923567890694162E+05,      /* I = 53 */
(PID.TID 0000.0001)                 2.872580915202295E+05,      /* I = 54 */
(PID.TID 0000.0001)                 2.809856491525217E+05,      /* I = 55 */
(PID.TID 0000.0001)                 2.734980225206389E+05,      /* I = 56 */
(PID.TID 0000.0001)                 2.647274964828301E+05,      /* I = 57 */
(PID.TID 0000.0001)                 2.545652950875683E+05,      /* I = 58 */
(PID.TID 0000.0001)                 2.428369969078989E+05,      /* I = 59 */
(PID.TID 0000.0001)                 2.292584591272880E+05,      /* I = 60 */
(PID.TID 0000.0001)                 2.133486626971531E+05,      /* I = 61 */
(PID.TID 0000.0001)                 1.942331448101592E+05,      /* I = 62 */
(PID.TID 0000.0001)                 1.701080315742101E+05,      /* I = 63 */
(PID.TID 0000.0001)                 1.362652340208229E+05,      /* I = 64 */
(PID.TID 0000.0001)                 8.015229982413632E+04,      /* I = 65 */
(PID.TID 0000.0001)                 1.362652340208229E+05,      /* I = 66 */
(PID.TID 0000.0001)                 1.701080315742101E+05,      /* I = 67 */
(PID.TID 0000.0001)                 1.942331448101592E+05,      /* I = 68 */
(PID.TID 0000.0001)                 2.133486626971531E+05,      /* I = 69 */
(PID.TID 0000.0001)                 2.292584591272880E+05,      /* I = 70 */
(PID.TID 0000.0001)                 2.428369969078989E+05,      /* I = 71 */
(PID.TID 0000.0001)                 2.545652950875683E+05,      /* I = 72 */
(PID.TID 0000.0001)                 2.647274964828301E+05,      /* I = 73 */
(PID.TID 0000.0001)                 2.734980225206389E+05,      /* I = 74 */
(PID.TID 0000.0001)                 2.809856491525217E+05,      /* I = 75 */
(PID.TID 0000.0001)                 2.872580915202295E+05,      /* I = 76 */
(PID.TID 0000.0001)                 2.923567890694162E+05,      /* I = 77 */
(PID.TID 0000.0001)                 2.963063101754721E+05,      /* I = 78 */
(PID.TID 0000.0001)                 2.991205495886625E+05,      /* I = 79 */
(PID.TID 0000.0001)                 3.008068453676764E+05,      /* I = 80 */
(PID.TID 0000.0001)                 3.013686170436881E+05,      /* I = 81 */
(PID.TID 0000.0001)                 3.008068453676764E+05,      /* I = 82 */
(PID.TID 0000.0001)                 2.991205495886625E+05,      /* I = 83 */
(PID.TID 0000.0001)                 2.963063101754721E+05,      /* I = 84 */
(PID.TID 0000.0001)                 2.923567890694162E+05,      /* I = 85 */
(PID.TID 0000.0001)                 2.872580915202295E+05,      /* I = 86 */
(PID.TID 0000.0001)                 2.809856491525217E+05,      /* I = 87 */
(PID.TID 0000.0001)                 2.734980225206389E+05,      /* I = 88 */
(PID.TID 0000.0001)                 2.647274964828301E+05,      /* I = 89 */
(PID.TID 0000.0001)                 2.545652950875683E+05,      /* I = 90 */
(PID.TID 0000.0001)                 2.428369969078989E+05,      /* I = 91 */
(PID.TID 0000.0001)                 2.292584591272880E+05,      /* I = 92 */
(PID.TID 0000.0001)                 2.133486626971531E+05,      /* I = 93 */
(PID.TID 0000.0001)                 1.942331448101592E+05,      /* I = 94 */
(PID.TID 0000.0001)                 1.701080315742101E+05,      /* I = 95 */
(PID.TID 0000.0001)                 1.362652340208229E+05,      /* I = 96 */
(PID.TID 0000.0001)                 8.015229982413632E+04,      /* I = 97 */
(PID.TID 0000.0001)                 1.362652340208229E+05,      /* I = 98 */
(PID.TID 0000.0001)                 1.701080315742101E+05,      /* I = 99 */
(PID.TID 0000.0001)                 1.942331448101592E+05,      /* I =100 */
(PID.TID 0000.0001)                 2.133486626971531E+05,      /* I =101 */
(PID.TID 0000.0001)                 2.292584591272880E+05,      /* I =102 */
(PID.TID 0000.0001)                 2.428369969078989E+05,      /* I =103 */
(PID.TID 0000.0001)                 2.545652950875683E+05,      /* I =104 */
(PID.TID 0000.0001)                 2.647274964828301E+05,      /* I =105 */
(PID.TID 0000.0001)                 2.734980225206389E+05,      /* I =106 */
(PID.TID 0000.0001)                 2.809856491525217E+05,      /* I =107 */
(PID.TID 0000.0001)                 2.872580915202295E+05,      /* I =108 */
(PID.TID 0000.0001)                 2.923567890694162E+05,      /* I =109 */
(PID.TID 0000.0001)                 2.963063101754721E+05,      /* I =110 */
(PID.TID 0000.0001)                 2.991205495886625E+05,      /* I =111 */
(PID.TID 0000.0001)                 3.008068453676764E+05,      /* I =112 */
(PID.TID 0000.0001)                 3.013686170436881E+05,      /* I =113 */
(PID.TID 0000.0001)                 3.008068453676764E+05,      /* I =114 */
(PID.TID 0000.0001)                 2.991205495886625E+05,      /* I =115 */
(PID.TID 0000.0001)                 2.963063101754721E+05,      /* I =116 */
(PID.TID 0000.0001)                 2.923567890694162E+05,      /* I =117 */
(PID.TID 0000.0001)                 2.872580915202295E+05,      /* I =118 */
(PID.TID 0000.0001)                 2.809856491525217E+05,      /* I =119 */
(PID.TID 0000.0001)                 2.734980225206389E+05,      /* I =120 */
(PID.TID 0000.0001)                 2.647274964828301E+05,      /* I =121 */
(PID.TID 0000.0001)                 2.545652950875683E+05,      /* I =122 */
(PID.TID 0000.0001)                 2.428369969078989E+05,      /* I =123 */
(PID.TID 0000.0001)                 2.292584591272880E+05,      /* I =124 */
(PID.TID 0000.0001)                 2.133486626971531E+05,      /* I =125 */
(PID.TID 0000.0001)                 1.942331448101592E+05,      /* I =126 */
(PID.TID 0000.0001)                 1.701080315742101E+05,      /* I =127 */
(PID.TID 0000.0001)                 1.362652340208229E+05,      /* I =128 */
(PID.TID 0000.0001)                 8.015229982413632E+04,      /* I =129 */
(PID.TID 0000.0001)                 1.362652340208229E+05,      /* I =130 */
(PID.TID 0000.0001)                 1.701080315742101E+05,      /* I =131 */
(PID.TID 0000.0001)                 1.942331448101592E+05,      /* I =132 */
(PID.TID 0000.0001)                 2.133486626971531E+05,      /* I =133 */
(PID.TID 0000.0001)                 2.292584591272880E+05,      /* I =134 */
(PID.TID 0000.0001)                 2.428369969078989E+05,      /* I =135 */
(PID.TID 0000.0001)                 2.545652950875683E+05,      /* I =136 */
(PID.TID 0000.0001)                 2.647274964828301E+05,      /* I =137 */
(PID.TID 0000.0001)                 2.734980225206389E+05,      /* I =138 */
(PID.TID 0000.0001)                 2.809856491525217E+05,      /* I =139 */
(PID.TID 0000.0001)                 2.872580915202295E+05,      /* I =140 */
(PID.TID 0000.0001)                 2.923567890694162E+05,      /* I =141 */
(PID.TID 0000.0001)                 2.963063101754721E+05,      /* I =142 */
(PID.TID 0000.0001)                 2.991205495886625E+05,      /* I =143 */
(PID.TID 0000.0001)                 3.008068453676764E+05,      /* I =144 */
(PID.TID 0000.0001)                 3.013686170436881E+05,      /* I =145 */
(PID.TID 0000.0001)                 3.008068453676764E+05,      /* I =146 */
(PID.TID 0000.0001)                 2.991205495886625E+05,      /* I =147 */
(PID.TID 0000.0001)                 2.963063101754721E+05,      /* I =148 */
(PID.TID 0000.0001)                 2.923567890694162E+05,      /* I =149 */
(PID.TID 0000.0001)                 2.872580915202295E+05,      /* I =150 */
(PID.TID 0000.0001)                 2.809856491525217E+05,      /* I =151 */
(PID.TID 0000.0001)                 2.734980225206389E+05,      /* I =152 */
(PID.TID 0000.0001)                 2.647274964828301E+05,      /* I =153 */
(PID.TID 0000.0001)                 2.545652950875683E+05,      /* I =154 */
(PID.TID 0000.0001)                 2.428369969078989E+05,      /* I =155 */
(PID.TID 0000.0001)                 2.292584591272880E+05,      /* I =156 */
(PID.TID 0000.0001)                 2.133486626971531E+05,      /* I =157 */
(PID.TID 0000.0001)                 1.942331448101592E+05,      /* I =158 */
(PID.TID 0000.0001)                 1.701080315742101E+05,      /* I =159 */
(PID.TID 0000.0001)                 1.362652340208229E+05,      /* I =160 */
(PID.TID 0000.0001)                 8.015229982413632E+04,      /* I =161 */
(PID.TID 0000.0001)                 1.362652340208229E+05,      /* I =162 */
(PID.TID 0000.0001)                 1.701080315742101E+05,      /* I =163 */
(PID.TID 0000.0001)                 1.942331448101592E+05,      /* I =164 */
(PID.TID 0000.0001)                 2.133486626971531E+05,      /* I =165 */
(PID.TID 0000.0001)                 2.292584591272880E+05,      /* I =166 */
(PID.TID 0000.0001)                 2.428369969078989E+05,      /* I =167 */
(PID.TID 0000.0001)                 2.545652950875683E+05,      /* I =168 */
(PID.TID 0000.0001)                 2.647274964828301E+05,      /* I =169 */
(PID.TID 0000.0001)                 2.734980225206389E+05,      /* I =170 */
(PID.TID 0000.0001)                 2.809856491525217E+05,      /* I =171 */
(PID.TID 0000.0001)                 2.872580915202295E+05,      /* I =172 */
(PID.TID 0000.0001)                 2.923567890694162E+05,      /* I =173 */
(PID.TID 0000.0001)                 2.963063101754721E+05,      /* I =174 */
(PID.TID 0000.0001)                 2.991205495886625E+05,      /* I =175 */
(PID.TID 0000.0001)                 3.008068453676764E+05,      /* I =176 */
(PID.TID 0000.0001)                 3.013686170436881E+05,      /* I =177 */
(PID.TID 0000.0001)                 3.008068453676764E+05,      /* I =178 */
(PID.TID 0000.0001)                 2.991205495886625E+05,      /* I =179 */
(PID.TID 0000.0001)                 2.963063101754721E+05,      /* I =180 */
(PID.TID 0000.0001)                 2.923567890694162E+05,      /* I =181 */
(PID.TID 0000.0001)                 2.872580915202295E+05,      /* I =182 */
(PID.TID 0000.0001)                 2.809856491525217E+05,      /* I =183 */
(PID.TID 0000.0001)                 2.734980225206389E+05,      /* I =184 */
(PID.TID 0000.0001)                 2.647274964828301E+05,      /* I =185 */
(PID.TID 0000.0001)                 2.545652950875683E+05,      /* I =186 */
(PID.TID 0000.0001)                 2.428369969078989E+05,      /* I =187 */
(PID.TID 0000.0001)                 2.292584591272880E+05,      /* I =188 */
(PID.TID 0000.0001)                 2.133486626971531E+05,      /* I =189 */
(PID.TID 0000.0001)                 1.942331448101592E+05,      /* I =190 */
(PID.TID 0000.0001)                 1.701080315742101E+05,      /* I =191 */
(PID.TID 0000.0001)                 1.362652340208229E+05       /* I =192 */
(PID.TID 0000.0001)     ;
(PID.TID 0000.0001) dyU =  /* dyU(1,:,1,:) ( m - cartesian, degrees - spherical ) */
(PID.TID 0000.0001)                 8.015229982413632E+04,      /* J =  1 */
(PID.TID 0000.0001)                 1.333130744933864E+05,      /* J =  2 */
(PID.TID 0000.0001)                 1.691744868129062E+05,      /* J =  3 */
(PID.TID 0000.0001)                 1.937548202849060E+05,      /* J =  4 */
(PID.TID 0000.0001)                 2.130490056267208E+05,      /* J =  5 */
(PID.TID 0000.0001)                 2.290479919481738E+05,      /* J =  6 */
(PID.TID 0000.0001)                 2.426774358027003E+05,      /* J =  7 */
(PID.TID 0000.0001)                 2.544372984215561E+05,      /* J =  8 */
(PID.TID 0000.0001)                 2.646201463834826E+05,      /* J =  9 */
(PID.TID 0000.0001)                 2.734046499619031E+05,      /* J = 10 */
(PID.TID 0000.0001)                 2.809019351693761E+05,      /* J = 11 */
(PID.TID 0000.0001)                 2.871811105274442E+05,      /* J = 12 */
(PID.TID 0000.0001)                 2.922844849381675E+05,      /* J = 13 */
(PID.TID 0000.0001)                 2.962371870847826E+05,      /* J = 14 */
(PID.TID 0000.0001)                 2.990534755671296E+05,      /* J = 15 */
(PID.TID 0000.0001)                 3.007409169495504E+05,      /* J = 16 */
(PID.TID 0000.0001)                 3.013031486919771E+05,      /* J = 17 */
(PID.TID 0000.0001)                 3.007409169495504E+05,      /* J = 18 */
(PID.TID 0000.0001)                 2.990534755671296E+05,      /* J = 19 */
(PID.TID 0000.0001)                 2.962371870847826E+05,      /* J = 20 */
(PID.TID 0000.0001)                 2.922844849381675E+05,      /* J = 21 */
(PID.TID 0000.0001)                 2.871811105274442E+05,      /* J = 22 */
(PID.TID 0000.0001)                 2.809019351693761E+05,      /* J = 23 */
(PID.TID 0000.0001)                 2.734046499619031E+05,      /* J = 24 */
(PID.TID 0000.0001)                 2.646201463834826E+05,      /* J = 25 */
(PID.TID 0000.0001)                 2.544372984215561E+05,      /* J = 26 */
(PID.TID 0000.0001)                 2.426774358027003E+05,      /* J = 27 */
(PID.TID 0000.0001)                 2.290479919481738E+05,      /* J = 28 */
(PID.TID 0000.0001)                 2.130490056267208E+05,      /* J = 29 */
(PID.TID 0000.0001)                 1.937548202849060E+05,      /* J = 30 */
(PID.TID 0000.0001)                 1.691744868129062E+05,      /* J = 31 */
(PID.TID 0000.0001)                 1.333130744933864E+05       /* J = 32 */
(PID.TID 0000.0001)     ;
(PID.TID 0000.0001) rA =  /* rA(:,1,:,1) ( m - cartesian, degrees - spherical ) */
(PID.TID 0000.0001)                 1.401900702255611E+10,      /* I =  1 */
(PID.TID 0000.0001)                 2.459906945574446E+10,      /* I =  2 */
(PID.TID 0000.0001)                 3.378518544307869E+10,      /* I =  3 */
(PID.TID 0000.0001)                 4.192037169898667E+10,      /* I =  4 */
(PID.TID 0000.0001)                 4.925938996118163E+10,      /* I =  5 */
(PID.TID 0000.0001)                 5.594154126607553E+10,      /* I =  6 */
(PID.TID 0000.0001)                 6.203683527772523E+10,      /* I =  7 */
(PID.TID 0000.0001)                 6.757541173817516E+10,      /* I =  8 */
(PID.TID 0000.0001)                 7.256353271748119E+10,      /* I =  9 */
(PID.TID 0000.0001)                 7.699293007098555E+10,      /* I = 10 */
(PID.TID 0000.0001)                 8.084683449728902E+10,      /* I = 11 */
(PID.TID 0000.0001)                 8.410423102796223E+10,      /* I = 12 */
(PID.TID 0000.0001)                 8.674306976737517E+10,      /* I = 13 */
(PID.TID 0000.0001)                 8.874277443041928E+10,      /* I = 14 */
(PID.TID 0000.0001)                 9.008620045350865E+10,      /* I = 15 */
(PID.TID 0000.0001)                 9.076111290418457E+10,      /* I = 16 */
(PID.TID 0000.0001)                 9.076111290422060E+10,      /* I = 17 */
(PID.TID 0000.0001)                 9.008620045354469E+10,      /* I = 18 */
(PID.TID 0000.0001)                 8.874277443041928E+10,      /* I = 19 */
(PID.TID 0000.0001)                 8.674306976741121E+10,      /* I = 20 */
(PID.TID 0000.0001)                 8.410423102799828E+10,      /* I = 21 */
(PID.TID 0000.0001)                 8.084683449728902E+10,      /* I = 22 */
(PID.TID 0000.0001)                 7.699293007098555E+10,      /* I = 23 */
(PID.TID 0000.0001)                 7.256353271748119E+10,      /* I = 24 */
(PID.TID 0000.0001)                 6.757541173817516E+10,      /* I = 25 */
(PID.TID 0000.0001)                 6.203683527772523E+10,      /* I = 26 */
(PID.TID 0000.0001)                 5.594154126611156E+10,      /* I = 27 */
(PID.TID 0000.0001)                 4.925938996118163E+10,      /* I = 28 */
(PID.TID 0000.0001)                 4.192037169898667E+10,      /* I = 29 */
(PID.TID 0000.0001)                 3.378518544304265E+10,      /* I = 30 */
(PID.TID 0000.0001)                 2.459906945574446E+10,      /* I = 31 */
(PID.TID 0000.0001)                 1.401900702259215E+10,      /* I = 32 */
(PID.TID 0000.0001)                 1.401900702255611E+10,      /* I = 33 */
(PID.TID 0000.0001)                 2.459906945574446E+10,      /* I = 34 */
(PID.TID 0000.0001)                 3.378518544307869E+10,      /* I = 35 */
(PID.TID 0000.0001)                 4.192037169898667E+10,      /* I = 36 */
(PID.TID 0000.0001)                 4.925938996118163E+10,      /* I = 37 */
(PID.TID 0000.0001)                 5.594154126607553E+10,      /* I = 38 */
(PID.TID 0000.0001)                 6.203683527772523E+10,      /* I = 39 */
(PID.TID 0000.0001)                 6.757541173817516E+10,      /* I = 40 */
(PID.TID 0000.0001)                 7.256353271748119E+10,      /* I = 41 */
(PID.TID 0000.0001)                 7.699293007098555E+10,      /* I = 42 */
(PID.TID 0000.0001)                 8.084683449728902E+10,      /* I = 43 */
(PID.TID 0000.0001)                 8.410423102796223E+10,      /* I = 44 */
(PID.TID 0000.0001)                 8.674306976737517E+10,      /* I = 45 */
(PID.TID 0000.0001)                 8.874277443041928E+10,      /* I = 46 */
(PID.TID 0000.0001)                 9.008620045350865E+10,      /* I = 47 */
(PID.TID 0000.0001)                 9.076111290418457E+10,      /* I = 48 */
(PID.TID 0000.0001)                 9.076111290422060E+10,      /* I = 49 */
(PID.TID 0000.0001)                 9.008620045354469E+10,      /* I = 50 */
(PID.TID 0000.0001)                 8.874277443041928E+10,      /* I = 51 */
(PID.TID 0000.0001)                 8.674306976741121E+10,      /* I = 52 */
(PID.TID 0000.0001)                 8.410423102799828E+10,      /* I = 53 */
(PID.TID 0000.0001)                 8.084683449728902E+10,      /* I = 54 */
(PID.TID 0000.0001)                 7.699293007098555E+10,      /* I = 55 */
(PID.TID 0000.0001)                 7.256353271748119E+10,      /* I = 56 */
(PID.TID 0000.0001)                 6.757541173817516E+10,      /* I = 57 */
(PID.TID 0000.0001)                 6.203683527772523E+10,      /* I = 58 */
(PID.TID 0000.0001)                 5.594154126611156E+10,      /* I = 59 */
(PID.TID 0000.0001)                 4.925938996118163E+10,      /* I = 60 */
(PID.TID 0000.0001)                 4.192037169898667E+10,      /* I = 61 */
(PID.TID 0000.0001)                 3.378518544304265E+10,      /* I = 62 */
(PID.TID 0000.0001)                 2.459906945574446E+10,      /* I = 63 */
(PID.TID 0000.0001)                 1.401900702259215E+10,      /* I = 64 */
(PID.TID 0000.0001)                 1.401900702255611E+10,      /* I = 65 */
(PID.TID 0000.0001)                 2.459906945574446E+10,      /* I = 66 */
(PID.TID 0000.0001)                 3.378518544307869E+10,      /* I = 67 */
(PID.TID 0000.0001)                 4.192037169898667E+10,      /* I = 68 */
(PID.TID 0000.0001)                 4.925938996118163E+10,      /* I = 69 */
(PID.TID 0000.0001)                 5.594154126607553E+10,      /* I = 70 */
(PID.TID 0000.0001)                 6.203683527772523E+10,      /* I = 71 */
(PID.TID 0000.0001)                 6.757541173817516E+10,      /* I = 72 */
(PID.TID 0000.0001)                 7.256353271748119E+10,      /* I = 73 */
(PID.TID 0000.0001)                 7.699293007098555E+10,      /* I = 74 */
(PID.TID 0000.0001)                 8.084683449728902E+10,      /* I = 75 */
(PID.TID 0000.0001)                 8.410423102796223E+10,      /* I = 76 */
(PID.TID 0000.0001)                 8.674306976737517E+10,      /* I = 77 */
(PID.TID 0000.0001)                 8.874277443041928E+10,      /* I = 78 */
(PID.TID 0000.0001)                 9.008620045350865E+10,      /* I = 79 */
(PID.TID 0000.0001)                 9.076111290418457E+10,      /* I = 80 */
(PID.TID 0000.0001)                 9.076111290422060E+10,      /* I = 81 */
(PID.TID 0000.0001)                 9.008620045354469E+10,      /* I = 82 */
(PID.TID 0000.0001)                 8.874277443041928E+10,      /* I = 83 */
(PID.TID 0000.0001)                 8.674306976741121E+10,      /* I = 84 */
(PID.TID 0000.0001)                 8.410423102799828E+10,      /* I = 85 */
(PID.TID 0000.0001)                 8.084683449728902E+10,      /* I = 86 */
(PID.TID 0000.0001)                 7.699293007098555E+10,      /* I = 87 */
(PID.TID 0000.0001)                 7.256353271748119E+10,      /* I = 88 */
(PID.TID 0000.0001)                 6.757541173817516E+10,      /* I = 89 */
(PID.TID 0000.0001)                 6.203683527772523E+10,      /* I = 90 */
(PID.TID 0000.0001)                 5.594154126611156E+10,      /* I = 91 */
(PID.TID 0000.0001)                 4.925938996118163E+10,      /* I = 92 */
(PID.TID 0000.0001)                 4.192037169898667E+10,      /* I = 93 */
(PID.TID 0000.0001)                 3.378518544304265E+10,      /* I = 94 */
(PID.TID 0000.0001)                 2.459906945574446E+10,      /* I = 95 */
(PID.TID 0000.0001)                 1.401900702259215E+10,      /* I = 96 */
(PID.TID 0000.0001)                 1.401900702255611E+10,      /* I = 97 */
(PID.TID 0000.0001)                 2.459906945574446E+10,      /* I = 98 */
(PID.TID 0000.0001)                 3.378518544307869E+10,      /* I = 99 */
(PID.TID 0000.0001)                 4.192037169898667E+10,      /* I =100 */
(PID.TID 0000.0001)                 4.925938996118163E+10,      /* I =101 */
(PID.TID 0000.0001)                 5.594154126607553E+10,      /* I =102 */
(PID.TID 0000.0001)                 6.203683527772523E+10,      /* I =103 */
(PID.TID 0000.0001)                 6.757541173817516E+10,      /* I =104 */
(PID.TID 0000.0001)                 7.256353271748119E+10,      /* I =105 */
(PID.TID 0000.0001)                 7.699293007098555E+10,      /* I =106 */
(PID.TID 0000.0001)                 8.084683449728902E+10,      /* I =107 */
(PID.TID 0000.0001)                 8.410423102796223E+10,      /* I =108 */
(PID.TID 0000.0001)                 8.674306976737517E+10,      /* I =109 */
(PID.TID 0000.0001)                 8.874277443041928E+10,      /* I =110 */
(PID.TID 0000.0001)                 9.008620045350865E+10,      /* I =111 */
(PID.TID 0000.0001)                 9.076111290418457E+10,      /* I =112 */
(PID.TID 0000.0001)                 9.076111290422060E+10,      /* I =113 */
(PID.TID 0000.0001)                 9.008620045354469E+10,      /* I =114 */
(PID.TID 0000.0001)                 8.874277443041928E+10,      /* I =115 */
(PID.TID 0000.0001)                 8.674306976741121E+10,      /* I =116 */
(PID.TID 0000.0001)                 8.410423102799828E+10,      /* I =117 */
(PID.TID 0000.0001)                 8.084683449728902E+10,      /* I =118 */
(PID.TID 0000.0001)                 7.699293007098555E+10,      /* I =119 */
(PID.TID 0000.0001)                 7.256353271748119E+10,      /* I =120 */
(PID.TID 0000.0001)                 6.757541173817516E+10,      /* I =121 */
(PID.TID 0000.0001)                 6.203683527772523E+10,      /* I =122 */
(PID.TID 0000.0001)                 5.594154126611156E+10,      /* I =123 */
(PID.TID 0000.0001)                 4.925938996118163E+10,      /* I =124 */
(PID.TID 0000.0001)                 4.192037169898667E+10,      /* I =125 */
(PID.TID 0000.0001)                 3.378518544304265E+10,      /* I =126 */
(PID.TID 0000.0001)                 2.459906945574446E+10,      /* I =127 */
(PID.TID 0000.0001)                 1.401900702259215E+10,      /* I =128 */
(PID.TID 0000.0001)                 1.401900702255611E+10,      /* I =129 */
(PID.TID 0000.0001)                 2.459906945574446E+10,      /* I =130 */
(PID.TID 0000.0001)                 3.378518544307869E+10,      /* I =131 */
(PID.TID 0000.0001)                 4.192037169898667E+10,      /* I =132 */
(PID.TID 0000.0001)                 4.925938996118163E+10,      /* I =133 */
(PID.TID 0000.0001)                 5.594154126607553E+10,      /* I =134 */
(PID.TID 0000.0001)                 6.203683527772523E+10,      /* I =135 */
(PID.TID 0000.0001)                 6.757541173817516E+10,      /* I =136 */
(PID.TID 0000.0001)                 7.256353271748119E+10,      /* I =137 */
(PID.TID 0000.0001)                 7.699293007098555E+10,      /* I =138 */
(PID.TID 0000.0001)                 8.084683449728902E+10,      /* I =139 */
(PID.TID 0000.0001)                 8.410423102796223E+10,      /* I =140 */
(PID.TID 0000.0001)                 8.674306976737517E+10,      /* I =141 */
(PID.TID 0000.0001)                 8.874277443041928E+10,      /* I =142 */
(PID.TID 0000.0001)                 9.008620045350865E+10,      /* I =143 */
(PID.TID 0000.0001)                 9.076111290418457E+10,      /* I =144 */
(PID.TID 0000.0001)                 9.076111290422060E+10,      /* I =145 */
(PID.TID 0000.0001)                 9.008620045354469E+10,      /* I =146 */
(PID.TID 0000.0001)                 8.874277443041928E+10,      /* I =147 */
(PID.TID 0000.0001)                 8.674306976741121E+10,      /* I =148 */
(PID.TID 0000.0001)                 8.410423102799828E+10,      /* I =149 */
(PID.TID 0000.0001)                 8.084683449728902E+10,      /* I =150 */
(PID.TID 0000.0001)                 7.699293007098555E+10,      /* I =151 */
(PID.TID 0000.0001)                 7.256353271748119E+10,      /* I =152 */
(PID.TID 0000.0001)                 6.757541173817516E+10,      /* I =153 */
(PID.TID 0000.0001)                 6.203683527772523E+10,      /* I =154 */
(PID.TID 0000.0001)                 5.594154126611156E+10,      /* I =155 */
(PID.TID 0000.0001)                 4.925938996118163E+10,      /* I =156 */
(PID.TID 0000.0001)                 4.192037169898667E+10,      /* I =157 */
(PID.TID 0000.0001)                 3.378518544304265E+10,      /* I =158 */
(PID.TID 0000.0001)                 2.459906945574446E+10,      /* I =159 */
(PID.TID 0000.0001)                 1.401900702259215E+10,      /* I =160 */
(PID.TID 0000.0001)                 1.401900702255611E+10,      /* I =161 */
(PID.TID 0000.0001)                 2.459906945574446E+10,      /* I =162 */
(PID.TID 0000.0001)                 3.378518544307869E+10,      /* I =163 */
(PID.TID 0000.0001)                 4.192037169898667E+10,      /* I =164 */
(PID.TID 0000.0001)                 4.925938996118163E+10,      /* I =165 */
(PID.TID 0000.0001)                 5.594154126607553E+10,      /* I =166 */
(PID.TID 0000.0001)                 6.203683527772523E+10,      /* I =167 */
(PID.TID 0000.0001)                 6.757541173817516E+10,      /* I =168 */
(PID.TID 0000.0001)                 7.256353271748119E+10,      /* I =169 */
(PID.TID 0000.0001)                 7.699293007098555E+10,      /* I =170 */
(PID.TID 0000.0001)                 8.084683449728902E+10,      /* I =171 */
(PID.TID 0000.0001)                 8.410423102796223E+10,      /* I =172 */
(PID.TID 0000.0001)                 8.674306976737517E+10,      /* I =173 */
(PID.TID 0000.0001)                 8.874277443041928E+10,      /* I =174 */
(PID.TID 0000.0001)                 9.008620045350865E+10,      /* I =175 */
(PID.TID 0000.0001)                 9.076111290418457E+10,      /* I =176 */
(PID.TID 0000.0001)                 9.076111290422060E+10,      /* I =177 */
(PID.TID 0000.0001)                 9.008620045354469E+10,      /* I =178 */
(PID.TID 0000.0001)                 8.874277443041928E+10,      /* I =179 */
(PID.TID 0000.0001)                 8.674306976741121E+10,      /* I =180 */
(PID.TID 0000.0001)                 8.410423102799828E+10,      /* I =181 */
(PID.TID 0000.0001)                 8.084683449728902E+10,      /* I =182 */
(PID.TID 0000.0001)                 7.699293007098555E+10,      /* I =183 */
(PID.TID 0000.0001)                 7.256353271748119E+10,      /* I =184 */
(PID.TID 0000.0001)                 6.757541173817516E+10,      /* I =185 */
(PID.TID 0000.0001)                 6.203683527772523E+10,      /* I =186 */
(PID.TID 0000.0001)                 5.594154126611156E+10,      /* I =187 */
(PID.TID 0000.0001)                 4.925938996118163E+10,      /* I =188 */
(PID.TID 0000.0001)                 4.192037169898667E+10,      /* I =189 */
(PID.TID 0000.0001)                 3.378518544304265E+10,      /* I =190 */
(PID.TID 0000.0001)                 2.459906945574446E+10,      /* I =191 */
(PID.TID 0000.0001)                 1.401900702259215E+10       /* I =192 */
(PID.TID 0000.0001)     ;
(PID.TID 0000.0001) rA =  /* rA(1,:,1,:) ( m - cartesian, degrees - spherical ) */
(PID.TID 0000.0001)                 1.401900702255611E+10,      /* J =  1 */
(PID.TID 0000.0001)                 2.459906945574446E+10,      /* J =  2 */
(PID.TID 0000.0001)                 3.378518544307869E+10,      /* J =  3 */
(PID.TID 0000.0001)                 4.192037169898667E+10,      /* J =  4 */
(PID.TID 0000.0001)                 4.925938996118163E+10,      /* J =  5 */
(PID.TID 0000.0001)                 5.594154126607553E+10,      /* J =  6 */
(PID.TID 0000.0001)                 6.203683527776127E+10,      /* J =  7 */
(PID.TID 0000.0001)                 6.757541173817516E+10,      /* J =  8 */
(PID.TID 0000.0001)                 7.256353271748119E+10,      /* J =  9 */
(PID.TID 0000.0001)                 7.699293007098555E+10,      /* J = 10 */
(PID.TID 0000.0001)                 8.084683449728902E+10,      /* J = 11 */
(PID.TID 0000.0001)                 8.410423102799828E+10,      /* J = 12 */
(PID.TID 0000.0001)                 8.674306976737517E+10,      /* J = 13 */
(PID.TID 0000.0001)                 8.874277443041928E+10,      /* J = 14 */
(PID.TID 0000.0001)                 9.008620045350865E+10,      /* J = 15 */
(PID.TID 0000.0001)                 9.076111290418457E+10,      /* J = 16 */
(PID.TID 0000.0001)                 9.076111290422060E+10,      /* J = 17 */
(PID.TID 0000.0001)                 9.008620045354469E+10,      /* J = 18 */
(PID.TID 0000.0001)                 8.874277443041928E+10,      /* J = 19 */
(PID.TID 0000.0001)                 8.674306976737517E+10,      /* J = 20 */
(PID.TID 0000.0001)                 8.410423102799828E+10,      /* J = 21 */
(PID.TID 0000.0001)                 8.084683449728902E+10,      /* J = 22 */
(PID.TID 0000.0001)                 7.699293007098555E+10,      /* J = 23 */
(PID.TID 0000.0001)                 7.256353271748119E+10,      /* J = 24 */
(PID.TID 0000.0001)                 6.757541173817516E+10,      /* J = 25 */
(PID.TID 0000.0001)                 6.203683527772523E+10,      /* J = 26 */
(PID.TID 0000.0001)                 5.594154126607553E+10,      /* J = 27 */
(PID.TID 0000.0001)                 4.925938996118163E+10,      /* J = 28 */
(PID.TID 0000.0001)                 4.192037169898667E+10,      /* J = 29 */
(PID.TID 0000.0001)                 3.378518544307869E+10,      /* J = 30 */
(PID.TID 0000.0001)                 2.459906945574446E+10,      /* J = 31 */
(PID.TID 0000.0001)                 1.401900702259215E+10       /* J = 32 */
(PID.TID 0000.0001)     ;
(PID.TID 0000.0001) rAw =  /* rAw(:,1,:,1) ( m - cartesian, degrees - spherical ) */
(PID.TID 0000.0001)                 1.216690346714270E+10,      /* I =  1 */
(PID.TID 0000.0001)                 1.974052138506315E+10,      /* I =  2 */
(PID.TID 0000.0001)                 2.943712825252015E+10,      /* I =  3 */
(PID.TID 0000.0001)                 3.801790263324359E+10,      /* I =  4 */
(PID.TID 0000.0001)                 4.571243814189866E+10,      /* I =  5 */
(PID.TID 0000.0001)                 5.269930713599979E+10,      /* I =  6 */
(PID.TID 0000.0001)                 5.907428494299063E+10,      /* I =  7 */
(PID.TID 0000.0001)                 6.488320895111514E+10,      /* I =  8 */
(PID.TID 0000.0001)                 7.014205907741882E+10,      /* I =  9 */
(PID.TID 0000.0001)                 7.484854821847499E+10,      /* I = 10 */
(PID.TID 0000.0001)                 7.898934631431560E+10,      /* I = 11 */
(PID.TID 0000.0001)                 8.254500894894537E+10,      /* I = 12 */
(PID.TID 0000.0001)                 8.549360686473492E+10,      /* I = 13 */
(PID.TID 0000.0001)                 8.781353403175085E+10,      /* I = 14 */
(PID.TID 0000.0001)                 8.948571540392021E+10,      /* I = 15 */
(PID.TID 0000.0001)                 9.049530583086168E+10,      /* I = 16 */
(PID.TID 0000.0001)                 9.083293515008307E+10,      /* I = 17 */
(PID.TID 0000.0001)                 9.049530583087070E+10,      /* I = 18 */
(PID.TID 0000.0001)                 8.948571540391121E+10,      /* I = 19 */
(PID.TID 0000.0001)                 8.781353403174185E+10,      /* I = 20 */
(PID.TID 0000.0001)                 8.549360686467184E+10,      /* I = 21 */
(PID.TID 0000.0001)                 8.254500894890933E+10,      /* I = 22 */
(PID.TID 0000.0001)                 7.898934631434262E+10,      /* I = 23 */
(PID.TID 0000.0001)                 7.484854821844795E+10,      /* I = 24 */
(PID.TID 0000.0001)                 7.014205907742783E+10,      /* I = 25 */
(PID.TID 0000.0001)                 6.488320895111514E+10,      /* I = 26 */
(PID.TID 0000.0001)                 5.907428494299063E+10,      /* I = 27 */
(PID.TID 0000.0001)                 5.269930713599078E+10,      /* I = 28 */
(PID.TID 0000.0001)                 4.571243814190767E+10,      /* I = 29 */
(PID.TID 0000.0001)                 3.801790263325260E+10,      /* I = 30 */
(PID.TID 0000.0001)                 2.943712825251114E+10,      /* I = 31 */
(PID.TID 0000.0001)                 1.974052138509018E+10,      /* I = 32 */
(PID.TID 0000.0001)                 1.216690346714270E+10,      /* I = 33 */
(PID.TID 0000.0001)                 1.974052138506315E+10,      /* I = 34 */
(PID.TID 0000.0001)                 2.943712825252015E+10,      /* I = 35 */
(PID.TID 0000.0001)                 3.801790263324359E+10,      /* I = 36 */
(PID.TID 0000.0001)                 4.571243814189866E+10,      /* I = 37 */
(PID.TID 0000.0001)                 5.269930713599979E+10,      /* I = 38 */
(PID.TID 0000.0001)                 5.907428494299063E+10,      /* I = 39 */
(PID.TID 0000.0001)                 6.488320895111514E+10,      /* I = 40 */
(PID.TID 0000.0001)                 7.014205907741882E+10,      /* I = 41 */
(PID.TID 0000.0001)                 7.484854821847499E+10,      /* I = 42 */
(PID.TID 0000.0001)                 7.898934631431560E+10,      /* I = 43 */
(PID.TID 0000.0001)                 8.254500894894537E+10,      /* I = 44 */
(PID.TID 0000.0001)                 8.549360686473492E+10,      /* I = 45 */
(PID.TID 0000.0001)                 8.781353403175085E+10,      /* I = 46 */
(PID.TID 0000.0001)                 8.948571540392021E+10,      /* I = 47 */
(PID.TID 0000.0001)                 9.049530583086168E+10,      /* I = 48 */
(PID.TID 0000.0001)                 9.083293515008307E+10,      /* I = 49 */
(PID.TID 0000.0001)                 9.049530583087070E+10,      /* I = 50 */
(PID.TID 0000.0001)                 8.948571540391121E+10,      /* I = 51 */
(PID.TID 0000.0001)                 8.781353403174185E+10,      /* I = 52 */
(PID.TID 0000.0001)                 8.549360686467184E+10,      /* I = 53 */
(PID.TID 0000.0001)                 8.254500894890933E+10,      /* I = 54 */
(PID.TID 0000.0001)                 7.898934631434262E+10,      /* I = 55 */
(PID.TID 0000.0001)                 7.484854821844795E+10,      /* I = 56 */
(PID.TID 0000.0001)                 7.014205907742783E+10,      /* I = 57 */
(PID.TID 0000.0001)                 6.488320895111514E+10,      /* I = 58 */
(PID.TID 0000.0001)                 5.907428494299063E+10,      /* I = 59 */
(PID.TID 0000.0001)                 5.269930713599078E+10,      /* I = 60 */
(PID.TID 0000.0001)                 4.571243814190767E+10,      /* I = 61 */
(PID.TID 0000.0001)                 3.801790263325260E+10,      /* I = 62 */
(PID.TID 0000.0001)                 2.943712825251114E+10,      /* I = 63 */
(PID.TID 0000.0001)                 1.974052138509018E+10,      /* I = 64 */
(PID.TID 0000.0001)                 1.216690346714270E+10,      /* I = 65 */
(PID.TID 0000.0001)                 1.974052138506315E+10,      /* I = 66 */
(PID.TID 0000.0001)                 2.943712825252015E+10,      /* I = 67 */
(PID.TID 0000.0001)                 3.801790263324359E+10,      /* I = 68 */
(PID.TID 0000.0001)                 4.571243814189866E+10,      /* I = 69 */
(PID.TID 0000.0001)                 5.269930713599979E+10,      /* I = 70 */
(PID.TID 0000.0001)                 5.907428494299063E+10,      /* I = 71 */
(PID.TID 0000.0001)                 6.488320895111514E+10,      /* I = 72 */
(PID.TID 0000.0001)                 7.014205907741882E+10,      /* I = 73 */
(PID.TID 0000.0001)                 7.484854821847499E+10,      /* I = 74 */
(PID.TID 0000.0001)                 7.898934631431560E+10,      /* I = 75 */
(PID.TID 0000.0001)                 8.254500894894537E+10,      /* I = 76 */
(PID.TID 0000.0001)                 8.549360686473492E+10,      /* I = 77 */
(PID.TID 0000.0001)                 8.781353403175085E+10,      /* I = 78 */
(PID.TID 0000.0001)                 8.948571540392021E+10,      /* I = 79 */
(PID.TID 0000.0001)                 9.049530583086168E+10,      /* I = 80 */
(PID.TID 0000.0001)                 9.083293515008307E+10,      /* I = 81 */
(PID.TID 0000.0001)                 9.049530583087070E+10,      /* I = 82 */
(PID.TID 0000.0001)                 8.948571540391121E+10,      /* I = 83 */
(PID.TID 0000.0001)                 8.781353403174185E+10,      /* I = 84 */
(PID.TID 0000.0001)                 8.549360686467184E+10,      /* I = 85 */
(PID.TID 0000.0001)                 8.254500894890933E+10,      /* I = 86 */
(PID.TID 0000.0001)                 7.898934631434262E+10,      /* I = 87 */
(PID.TID 0000.0001)                 7.484854821844795E+10,      /* I = 88 */
(PID.TID 0000.0001)                 7.014205907742783E+10,      /* I = 89 */
(PID.TID 0000.0001)                 6.488320895111514E+10,      /* I = 90 */
(PID.TID 0000.0001)                 5.907428494299063E+10,      /* I = 91 */
(PID.TID 0000.0001)                 5.269930713599078E+10,      /* I = 92 */
(PID.TID 0000.0001)                 4.571243814190767E+10,      /* I = 93 */
(PID.TID 0000.0001)                 3.801790263325260E+10,      /* I = 94 */
(PID.TID 0000.0001)                 2.943712825251114E+10,      /* I = 95 */
(PID.TID 0000.0001)                 1.974052138509018E+10,      /* I = 96 */
(PID.TID 0000.0001)                 1.216690346714270E+10,      /* I = 97 */
(PID.TID 0000.0001)                 1.974052138506315E+10,      /* I = 98 */
(PID.TID 0000.0001)                 2.943712825252015E+10,      /* I = 99 */
(PID.TID 0000.0001)                 3.801790263324359E+10,      /* I =100 */
(PID.TID 0000.0001)                 4.571243814189866E+10,      /* I =101 */
(PID.TID 0000.0001)                 5.269930713599979E+10,      /* I =102 */
(PID.TID 0000.0001)                 5.907428494299063E+10,      /* I =103 */
(PID.TID 0000.0001)                 6.488320895111514E+10,      /* I =104 */
(PID.TID 0000.0001)                 7.014205907741882E+10,      /* I =105 */
(PID.TID 0000.0001)                 7.484854821847499E+10,      /* I =106 */
(PID.TID 0000.0001)                 7.898934631431560E+10,      /* I =107 */
(PID.TID 0000.0001)                 8.254500894894537E+10,      /* I =108 */
(PID.TID 0000.0001)                 8.549360686473492E+10,      /* I =109 */
(PID.TID 0000.0001)                 8.781353403175085E+10,      /* I =110 */
(PID.TID 0000.0001)                 8.948571540392021E+10,      /* I =111 */
(PID.TID 0000.0001)                 9.049530583086168E+10,      /* I =112 */
(PID.TID 0000.0001)                 9.083293515008307E+10,      /* I =113 */
(PID.TID 0000.0001)                 9.049530583087070E+10,      /* I =114 */
(PID.TID 0000.0001)                 8.948571540391121E+10,      /* I =115 */
(PID.TID 0000.0001)                 8.781353403174185E+10,      /* I =116 */
(PID.TID 0000.0001)                 8.549360686467184E+10,      /* I =117 */
(PID.TID 0000.0001)                 8.254500894890933E+10,      /* I =118 */
(PID.TID 0000.0001)                 7.898934631434262E+10,      /* I =119 */
(PID.TID 0000.0001)                 7.484854821844795E+10,      /* I =120 */
(PID.TID 0000.0001)                 7.014205907742783E+10,      /* I =121 */
(PID.TID 0000.0001)                 6.488320895111514E+10,      /* I =122 */
(PID.TID 0000.0001)                 5.907428494299063E+10,      /* I =123 */
(PID.TID 0000.0001)                 5.269930713599078E+10,      /* I =124 */
(PID.TID 0000.0001)                 4.571243814190767E+10,      /* I =125 */
(PID.TID 0000.0001)                 3.801790263325260E+10,      /* I =126 */
(PID.TID 0000.0001)                 2.943712825251114E+10,      /* I =127 */
(PID.TID 0000.0001)                 1.974052138509018E+10,      /* I =128 */
(PID.TID 0000.0001)                 1.216690346714270E+10,      /* I =129 */
(PID.TID 0000.0001)                 1.974052138506315E+10,      /* I =130 */
(PID.TID 0000.0001)                 2.943712825252015E+10,      /* I =131 */
(PID.TID 0000.0001)                 3.801790263324359E+10,      /* I =132 */
(PID.TID 0000.0001)                 4.571243814189866E+10,      /* I =133 */
(PID.TID 0000.0001)                 5.269930713599979E+10,      /* I =134 */
(PID.TID 0000.0001)                 5.907428494299063E+10,      /* I =135 */
(PID.TID 0000.0001)                 6.488320895111514E+10,      /* I =136 */
(PID.TID 0000.0001)                 7.014205907741882E+10,      /* I =137 */
(PID.TID 0000.0001)                 7.484854821847499E+10,      /* I =138 */
(PID.TID 0000.0001)                 7.898934631431560E+10,      /* I =139 */
(PID.TID 0000.0001)                 8.254500894894537E+10,      /* I =140 */
(PID.TID 0000.0001)                 8.549360686473492E+10,      /* I =141 */
(PID.TID 0000.0001)                 8.781353403175085E+10,      /* I =142 */
(PID.TID 0000.0001)                 8.948571540392021E+10,      /* I =143 */
(PID.TID 0000.0001)                 9.049530583086168E+10,      /* I =144 */
(PID.TID 0000.0001)                 9.083293515008307E+10,      /* I =145 */
(PID.TID 0000.0001)                 9.049530583087070E+10,      /* I =146 */
(PID.TID 0000.0001)                 8.948571540391121E+10,      /* I =147 */
(PID.TID 0000.0001)                 8.781353403174185E+10,      /* I =148 */
(PID.TID 0000.0001)                 8.549360686467184E+10,      /* I =149 */
(PID.TID 0000.0001)                 8.254500894890933E+10,      /* I =150 */
(PID.TID 0000.0001)                 7.898934631434262E+10,      /* I =151 */
(PID.TID 0000.0001)                 7.484854821844795E+10,      /* I =152 */
(PID.TID 0000.0001)                 7.014205907742783E+10,      /* I =153 */
(PID.TID 0000.0001)                 6.488320895111514E+10,      /* I =154 */
(PID.TID 0000.0001)                 5.907428494299063E+10,      /* I =155 */
(PID.TID 0000.0001)                 5.269930713599078E+10,      /* I =156 */
(PID.TID 0000.0001)                 4.571243814190767E+10,      /* I =157 */
(PID.TID 0000.0001)                 3.801790263325260E+10,      /* I =158 */
(PID.TID 0000.0001)                 2.943712825251114E+10,      /* I =159 */
(PID.TID 0000.0001)                 1.974052138509018E+10,      /* I =160 */
(PID.TID 0000.0001)                 1.216690346714270E+10,      /* I =161 */
(PID.TID 0000.0001)                 1.974052138506315E+10,      /* I =162 */
(PID.TID 0000.0001)                 2.943712825252015E+10,      /* I =163 */
(PID.TID 0000.0001)                 3.801790263324359E+10,      /* I =164 */
(PID.TID 0000.0001)                 4.571243814189866E+10,      /* I =165 */
(PID.TID 0000.0001)                 5.269930713599979E+10,      /* I =166 */
(PID.TID 0000.0001)                 5.907428494299063E+10,      /* I =167 */
(PID.TID 0000.0001)                 6.488320895111514E+10,      /* I =168 */
(PID.TID 0000.0001)                 7.014205907741882E+10,      /* I =169 */
(PID.TID 0000.0001)                 7.484854821847499E+10,      /* I =170 */
(PID.TID 0000.0001)                 7.898934631431560E+10,      /* I =171 */
(PID.TID 0000.0001)                 8.254500894894537E+10,      /* I =172 */
(PID.TID 0000.0001)                 8.549360686473492E+10,      /* I =173 */
(PID.TID 0000.0001)                 8.781353403175085E+10,      /* I =174 */
(PID.TID 0000.0001)                 8.948571540392021E+10,      /* I =175 */
(PID.TID 0000.0001)                 9.049530583086168E+10,      /* I =176 */
(PID.TID 0000.0001)                 9.083293515008307E+10,      /* I =177 */
(PID.TID 0000.0001)                 9.049530583087070E+10,      /* I =178 */
(PID.TID 0000.0001)                 8.948571540391121E+10,      /* I =179 */
(PID.TID 0000.0001)                 8.781353403174185E+10,      /* I =180 */
(PID.TID 0000.0001)                 8.549360686467184E+10,      /* I =181 */
(PID.TID 0000.0001)                 8.254500894890933E+10,      /* I =182 */
(PID.TID 0000.0001)                 7.898934631434262E+10,      /* I =183 */
(PID.TID 0000.0001)                 7.484854821844795E+10,      /* I =184 */
(PID.TID 0000.0001)                 7.014205907742783E+10,      /* I =185 */
(PID.TID 0000.0001)                 6.488320895111514E+10,      /* I =186 */
(PID.TID 0000.0001)                 5.907428494299063E+10,      /* I =187 */
(PID.TID 0000.0001)                 5.269930713599078E+10,      /* I =188 */
(PID.TID 0000.0001)                 4.571243814190767E+10,      /* I =189 */
(PID.TID 0000.0001)                 3.801790263325260E+10,      /* I =190 */
(PID.TID 0000.0001)                 2.943712825251114E+10,      /* I =191 */
(PID.TID 0000.0001)                 1.974052138509018E+10       /* I =192 */
(PID.TID 0000.0001)     ;
(PID.TID 0000.0001) rAw =  /* rAw(1,:,1,:) ( m - cartesian, degrees - spherical ) */
(PID.TID 0000.0001)                 1.216690346714270E+10,      /* J =  1 */
(PID.TID 0000.0001)                 2.390126200743558E+10,      /* J =  2 */
(PID.TID 0000.0001)                 3.341968103208270E+10,      /* J =  3 */
(PID.TID 0000.0001)                 4.168532893152940E+10,      /* J =  4 */
(PID.TID 0000.0001)                 4.909074590409593E+10,      /* J =  5 */
(PID.TID 0000.0001)                 5.581203765722643E+10,      /* J =  6 */
(PID.TID 0000.0001)                 6.193257577506788E+10,      /* J =  7 */
(PID.TID 0000.0001)                 6.748840226738273E+10,      /* J =  8 */
(PID.TID 0000.0001)                 7.248875782324815E+10,      /* J =  9 */
(PID.TID 0000.0001)                 7.692702995909871E+10,      /* J = 10 */
(PID.TID 0000.0001)                 8.078743937057304E+10,      /* J = 11 */
(PID.TID 0000.0001)                 8.404959656062837E+10,      /* J = 12 */
(PID.TID 0000.0001)                 8.669186205742538E+10,      /* J = 13 */
(PID.TID 0000.0001)                 8.869393350723613E+10,      /* J = 14 */
(PID.TID 0000.0001)                 9.003884657168852E+10,      /* J = 15 */
(PID.TID 0000.0001)     2 @  9.071447638299399E+10,             /* J = 16: 17 */
(PID.TID 0000.0001)                 9.003884657168852E+10,      /* J = 18 */
(PID.TID 0000.0001)                 8.869393350723613E+10,      /* J = 19 */
(PID.TID 0000.0001)                 8.669186205742538E+10,      /* J = 20 */
(PID.TID 0000.0001)                 8.404959656062837E+10,      /* J = 21 */
(PID.TID 0000.0001)                 8.078743937057304E+10,      /* J = 22 */
(PID.TID 0000.0001)                 7.692702995909871E+10,      /* J = 23 */
(PID.TID 0000.0001)                 7.248875782324815E+10,      /* J = 24 */
(PID.TID 0000.0001)                 6.748840226738273E+10,      /* J = 25 */
(PID.TID 0000.0001)                 6.193257577506788E+10,      /* J = 26 */
(PID.TID 0000.0001)                 5.581203765722643E+10,      /* J = 27 */
(PID.TID 0000.0001)                 4.909074590409593E+10,      /* J = 28 */
(PID.TID 0000.0001)                 4.168532893152940E+10,      /* J = 29 */
(PID.TID 0000.0001)                 3.341968103208270E+10,      /* J = 30 */
(PID.TID 0000.0001)                 2.390126200743558E+10,      /* J = 31 */
(PID.TID 0000.0001)                 1.216690346714270E+10       /* J = 32 */
(PID.TID 0000.0001)     ;
(PID.TID 0000.0001) rAs =  /* rAs(:,1,:,1) ( m - cartesian, degrees - spherical ) */
(PID.TID 0000.0001)                 1.216690346714270E+10,      /* I =  1 */
(PID.TID 0000.0001)                 2.390126200743558E+10,      /* I =  2 */
(PID.TID 0000.0001)                 3.341968103208270E+10,      /* I =  3 */
(PID.TID 0000.0001)                 4.168532893152940E+10,      /* I =  4 */
(PID.TID 0000.0001)                 4.909074590409593E+10,      /* I =  5 */
(PID.TID 0000.0001)                 5.581203765722643E+10,      /* I =  6 */
(PID.TID 0000.0001)                 6.193257577506788E+10,      /* I =  7 */
(PID.TID 0000.0001)                 6.748840226738273E+10,      /* I =  8 */
(PID.TID 0000.0001)                 7.248875782324815E+10,      /* I =  9 */
(PID.TID 0000.0001)                 7.692702995909871E+10,      /* I = 10 */
(PID.TID 0000.0001)                 8.078743937057304E+10,      /* I = 11 */
(PID.TID 0000.0001)                 8.404959656062837E+10,      /* I = 12 */
(PID.TID 0000.0001)                 8.669186205742538E+10,      /* I = 13 */
(PID.TID 0000.0001)                 8.869393350723613E+10,      /* I = 14 */
(PID.TID 0000.0001)                 9.003884657168852E+10,      /* I = 15 */
(PID.TID 0000.0001)     2 @  9.071447638299399E+10,             /* I = 16: 17 */
(PID.TID 0000.0001)                 9.003884657168852E+10,      /* I = 18 */
(PID.TID 0000.0001)                 8.869393350723613E+10,      /* I = 19 */
(PID.TID 0000.0001)                 8.669186205742538E+10,      /* I = 20 */
(PID.TID 0000.0001)                 8.404959656062837E+10,      /* I = 21 */
(PID.TID 0000.0001)                 8.078743937057304E+10,      /* I = 22 */
(PID.TID 0000.0001)                 7.692702995909871E+10,      /* I = 23 */
(PID.TID 0000.0001)                 7.248875782324815E+10,      /* I = 24 */
(PID.TID 0000.0001)                 6.748840226738273E+10,      /* I = 25 */
(PID.TID 0000.0001)                 6.193257577506788E+10,      /* I = 26 */
(PID.TID 0000.0001)                 5.581203765722643E+10,      /* I = 27 */
(PID.TID 0000.0001)                 4.909074590409593E+10,      /* I = 28 */
(PID.TID 0000.0001)                 4.168532893152940E+10,      /* I = 29 */
(PID.TID 0000.0001)                 3.341968103208270E+10,      /* I = 30 */
(PID.TID 0000.0001)                 2.390126200743558E+10,      /* I = 31 */
(PID.TID 0000.0001)     2 @  1.216690346714270E+10,             /* I = 32: 33 */
(PID.TID 0000.0001)                 2.390126200743558E+10,      /* I = 34 */
(PID.TID 0000.0001)                 3.341968103208270E+10,      /* I = 35 */
(PID.TID 0000.0001)                 4.168532893152940E+10,      /* I = 36 */
(PID.TID 0000.0001)                 4.909074590409593E+10,      /* I = 37 */
(PID.TID 0000.0001)                 5.581203765722643E+10,      /* I = 38 */
(PID.TID 0000.0001)                 6.193257577506788E+10,      /* I = 39 */
(PID.TID 0000.0001)                 6.748840226738273E+10,      /* I = 40 */
(PID.TID 0000.0001)                 7.248875782324815E+10,      /* I = 41 */
(PID.TID 0000.0001)                 7.692702995909871E+10,      /* I = 42 */
(PID.TID 0000.0001)                 8.078743937057304E+10,      /* I = 43 */
(PID.TID 0000.0001)                 8.404959656062837E+10,      /* I = 44 */
(PID.TID 0000.0001)                 8.669186205742538E+10,      /* I = 45 */
(PID.TID 0000.0001)                 8.869393350723613E+10,      /* I = 46 */
(PID.TID 0000.0001)                 9.003884657168852E+10,      /* I = 47 */
(PID.TID 0000.0001)     2 @  9.071447638299399E+10,             /* I = 48: 49 */
(PID.TID 0000.0001)                 9.003884657168852E+10,      /* I = 50 */
(PID.TID 0000.0001)                 8.869393350723613E+10,      /* I = 51 */
(PID.TID 0000.0001)                 8.669186205742538E+10,      /* I = 52 */
(PID.TID 0000.0001)                 8.404959656062837E+10,      /* I = 53 */
(PID.TID 0000.0001)                 8.078743937057304E+10,      /* I = 54 */
(PID.TID 0000.0001)                 7.692702995909871E+10,      /* I = 55 */
(PID.TID 0000.0001)                 7.248875782324815E+10,      /* I = 56 */
(PID.TID 0000.0001)                 6.748840226738273E+10,      /* I = 57 */
(PID.TID 0000.0001)                 6.193257577506788E+10,      /* I = 58 */
(PID.TID 0000.0001)                 5.581203765722643E+10,      /* I = 59 */
(PID.TID 0000.0001)                 4.909074590409593E+10,      /* I = 60 */
(PID.TID 0000.0001)                 4.168532893152940E+10,      /* I = 61 */
(PID.TID 0000.0001)                 3.341968103208270E+10,      /* I = 62 */
(PID.TID 0000.0001)                 2.390126200743558E+10,      /* I = 63 */
(PID.TID 0000.0001)     2 @  1.216690346714270E+10,             /* I = 64: 65 */
(PID.TID 0000.0001)                 2.390126200743558E+10,      /* I = 66 */
(PID.TID 0000.0001)                 3.341968103208270E+10,      /* I = 67 */
(PID.TID 0000.0001)                 4.168532893152940E+10,      /* I = 68 */
(PID.TID 0000.0001)                 4.909074590409593E+10,      /* I = 69 */
(PID.TID 0000.0001)                 5.581203765722643E+10,      /* I = 70 */
(PID.TID 0000.0001)                 6.193257577506788E+10,      /* I = 71 */
(PID.TID 0000.0001)                 6.748840226738273E+10,      /* I = 72 */
(PID.TID 0000.0001)                 7.248875782324815E+10,      /* I = 73 */
(PID.TID 0000.0001)                 7.692702995909871E+10,      /* I = 74 */
(PID.TID 0000.0001)                 8.078743937057304E+10,      /* I = 75 */
(PID.TID 0000.0001)                 8.404959656062837E+10,      /* I = 76 */
(PID.TID 0000.0001)                 8.669186205742538E+10,      /* I = 77 */
(PID.TID 0000.0001)                 8.869393350723613E+10,      /* I = 78 */
(PID.TID 0000.0001)                 9.003884657168852E+10,      /* I = 79 */
(PID.TID 0000.0001)     2 @  9.071447638299399E+10,             /* I = 80: 81 */
(PID.TID 0000.0001)                 9.003884657168852E+10,      /* I = 82 */
(PID.TID 0000.0001)                 8.869393350723613E+10,      /* I = 83 */
(PID.TID 0000.0001)                 8.669186205742538E+10,      /* I = 84 */
(PID.TID 0000.0001)                 8.404959656062837E+10,      /* I = 85 */
(PID.TID 0000.0001)                 8.078743937057304E+10,      /* I = 86 */
(PID.TID 0000.0001)                 7.692702995909871E+10,      /* I = 87 */
(PID.TID 0000.0001)                 7.248875782324815E+10,      /* I = 88 */
(PID.TID 0000.0001)                 6.748840226738273E+10,      /* I = 89 */
(PID.TID 0000.0001)                 6.193257577506788E+10,      /* I = 90 */
(PID.TID 0000.0001)                 5.581203765722643E+10,      /* I = 91 */
(PID.TID 0000.0001)                 4.909074590409593E+10,      /* I = 92 */
(PID.TID 0000.0001)                 4.168532893152940E+10,      /* I = 93 */
(PID.TID 0000.0001)                 3.341968103208270E+10,      /* I = 94 */
(PID.TID 0000.0001)                 2.390126200743558E+10,      /* I = 95 */
(PID.TID 0000.0001)     2 @  1.216690346714270E+10,             /* I = 96: 97 */
(PID.TID 0000.0001)                 2.390126200743558E+10,      /* I = 98 */
(PID.TID 0000.0001)                 3.341968103208270E+10,      /* I = 99 */
(PID.TID 0000.0001)                 4.168532893152940E+10,      /* I =100 */
(PID.TID 0000.0001)                 4.909074590409593E+10,      /* I =101 */
(PID.TID 0000.0001)                 5.581203765722643E+10,      /* I =102 */
(PID.TID 0000.0001)                 6.193257577506788E+10,      /* I =103 */
(PID.TID 0000.0001)                 6.748840226738273E+10,      /* I =104 */
(PID.TID 0000.0001)                 7.248875782324815E+10,      /* I =105 */
(PID.TID 0000.0001)                 7.692702995909871E+10,      /* I =106 */
(PID.TID 0000.0001)                 8.078743937057304E+10,      /* I =107 */
(PID.TID 0000.0001)                 8.404959656062837E+10,      /* I =108 */
(PID.TID 0000.0001)                 8.669186205742538E+10,      /* I =109 */
(PID.TID 0000.0001)                 8.869393350723613E+10,      /* I =110 */
(PID.TID 0000.0001)                 9.003884657168852E+10,      /* I =111 */
(PID.TID 0000.0001)     2 @  9.071447638299399E+10,             /* I =112:113 */
(PID.TID 0000.0001)                 9.003884657168852E+10,      /* I =114 */
(PID.TID 0000.0001)                 8.869393350723613E+10,      /* I =115 */
(PID.TID 0000.0001)                 8.669186205742538E+10,      /* I =116 */
(PID.TID 0000.0001)                 8.404959656062837E+10,      /* I =117 */
(PID.TID 0000.0001)                 8.078743937057304E+10,      /* I =118 */
(PID.TID 0000.0001)                 7.692702995909871E+10,      /* I =119 */
(PID.TID 0000.0001)                 7.248875782324815E+10,      /* I =120 */
(PID.TID 0000.0001)                 6.748840226738273E+10,      /* I =121 */
(PID.TID 0000.0001)                 6.193257577506788E+10,      /* I =122 */
(PID.TID 0000.0001)                 5.581203765722643E+10,      /* I =123 */
(PID.TID 0000.0001)                 4.909074590409593E+10,      /* I =124 */
(PID.TID 0000.0001)                 4.168532893152940E+10,      /* I =125 */
(PID.TID 0000.0001)                 3.341968103208270E+10,      /* I =126 */
(PID.TID 0000.0001)                 2.390126200743558E+10,      /* I =127 */
(PID.TID 0000.0001)     2 @  1.216690346714270E+10,             /* I =128:129 */
(PID.TID 0000.0001)                 2.390126200743558E+10,      /* I =130 */
(PID.TID 0000.0001)                 3.341968103208270E+10,      /* I =131 */
(PID.TID 0000.0001)                 4.168532893152940E+10,      /* I =132 */
(PID.TID 0000.0001)                 4.909074590409593E+10,      /* I =133 */
(PID.TID 0000.0001)                 5.581203765722643E+10,      /* I =134 */
(PID.TID 0000.0001)                 6.193257577506788E+10,      /* I =135 */
(PID.TID 0000.0001)                 6.748840226738273E+10,      /* I =136 */
(PID.TID 0000.0001)                 7.248875782324815E+10,      /* I =137 */
(PID.TID 0000.0001)                 7.692702995909871E+10,      /* I =138 */
(PID.TID 0000.0001)                 8.078743937057304E+10,      /* I =139 */
(PID.TID 0000.0001)                 8.404959656062837E+10,      /* I =140 */
(PID.TID 0000.0001)                 8.669186205742538E+10,      /* I =141 */
(PID.TID 0000.0001)                 8.869393350723613E+10,      /* I =142 */
(PID.TID 0000.0001)                 9.003884657168852E+10,      /* I =143 */
(PID.TID 0000.0001)     2 @  9.071447638299399E+10,             /* I =144:145 */
(PID.TID 0000.0001)                 9.003884657168852E+10,      /* I =146 */
(PID.TID 0000.0001)                 8.869393350723613E+10,      /* I =147 */
(PID.TID 0000.0001)                 8.669186205742538E+10,      /* I =148 */
(PID.TID 0000.0001)                 8.404959656062837E+10,      /* I =149 */
(PID.TID 0000.0001)                 8.078743937057304E+10,      /* I =150 */
(PID.TID 0000.0001)                 7.692702995909871E+10,      /* I =151 */
(PID.TID 0000.0001)                 7.248875782324815E+10,      /* I =152 */
(PID.TID 0000.0001)                 6.748840226738273E+10,      /* I =153 */
(PID.TID 0000.0001)                 6.193257577506788E+10,      /* I =154 */
(PID.TID 0000.0001)                 5.581203765722643E+10,      /* I =155 */
(PID.TID 0000.0001)                 4.909074590409593E+10,      /* I =156 */
(PID.TID 0000.0001)                 4.168532893152940E+10,      /* I =157 */
(PID.TID 0000.0001)                 3.341968103208270E+10,      /* I =158 */
(PID.TID 0000.0001)                 2.390126200743558E+10,      /* I =159 */
(PID.TID 0000.0001)     2 @  1.216690346714270E+10,             /* I =160:161 */
(PID.TID 0000.0001)                 2.390126200743558E+10,      /* I =162 */
(PID.TID 0000.0001)                 3.341968103208270E+10,      /* I =163 */
(PID.TID 0000.0001)                 4.168532893152940E+10,      /* I =164 */
(PID.TID 0000.0001)                 4.909074590409593E+10,      /* I =165 */
(PID.TID 0000.0001)                 5.581203765722643E+10,      /* I =166 */
(PID.TID 0000.0001)                 6.193257577506788E+10,      /* I =167 */
(PID.TID 0000.0001)                 6.748840226738273E+10,      /* I =168 */
(PID.TID 0000.0001)                 7.248875782324815E+10,      /* I =169 */
(PID.TID 0000.0001)                 7.692702995909871E+10,      /* I =170 */
(PID.TID 0000.0001)                 8.078743937057304E+10,      /* I =171 */
(PID.TID 0000.0001)                 8.404959656062837E+10,      /* I =172 */
(PID.TID 0000.0001)                 8.669186205742538E+10,      /* I =173 */
(PID.TID 0000.0001)                 8.869393350723613E+10,      /* I =174 */
(PID.TID 0000.0001)                 9.003884657168852E+10,      /* I =175 */
(PID.TID 0000.0001)     2 @  9.071447638299399E+10,             /* I =176:177 */
(PID.TID 0000.0001)                 9.003884657168852E+10,      /* I =178 */
(PID.TID 0000.0001)                 8.869393350723613E+10,      /* I =179 */
(PID.TID 0000.0001)                 8.669186205742538E+10,      /* I =180 */
(PID.TID 0000.0001)                 8.404959656062837E+10,      /* I =181 */
(PID.TID 0000.0001)                 8.078743937057304E+10,      /* I =182 */
(PID.TID 0000.0001)                 7.692702995909871E+10,      /* I =183 */
(PID.TID 0000.0001)                 7.248875782324815E+10,      /* I =184 */
(PID.TID 0000.0001)                 6.748840226738273E+10,      /* I =185 */
(PID.TID 0000.0001)                 6.193257577506788E+10,      /* I =186 */
(PID.TID 0000.0001)                 5.581203765722643E+10,      /* I =187 */
(PID.TID 0000.0001)                 4.909074590409593E+10,      /* I =188 */
(PID.TID 0000.0001)                 4.168532893152940E+10,      /* I =189 */
(PID.TID 0000.0001)                 3.341968103208270E+10,      /* I =190 */
(PID.TID 0000.0001)                 2.390126200743558E+10,      /* I =191 */
(PID.TID 0000.0001)                 1.216690346714270E+10       /* I =192 */
(PID.TID 0000.0001)     ;
(PID.TID 0000.0001) rAs =  /* rAs(1,:,1,:) ( m - cartesian, degrees - spherical ) */
(PID.TID 0000.0001)                 1.216690346714270E+10,      /* J =  1 */
(PID.TID 0000.0001)                 1.974052138506315E+10,      /* J =  2 */
(PID.TID 0000.0001)                 2.943712825252015E+10,      /* J =  3 */
(PID.TID 0000.0001)                 3.801790263324359E+10,      /* J =  4 */
(PID.TID 0000.0001)                 4.571243814189866E+10,      /* J =  5 */
(PID.TID 0000.0001)                 5.269930713599979E+10,      /* J =  6 */
(PID.TID 0000.0001)                 5.907428494299063E+10,      /* J =  7 */
(PID.TID 0000.0001)                 6.488320895111514E+10,      /* J =  8 */
(PID.TID 0000.0001)                 7.014205907741882E+10,      /* J =  9 */
(PID.TID 0000.0001)                 7.484854821847499E+10,      /* J = 10 */
(PID.TID 0000.0001)                 7.898934631431560E+10,      /* J = 11 */
(PID.TID 0000.0001)                 8.254500894894537E+10,      /* J = 12 */
(PID.TID 0000.0001)                 8.549360686473492E+10,      /* J = 13 */
(PID.TID 0000.0001)                 8.781353403175085E+10,      /* J = 14 */
(PID.TID 0000.0001)                 8.948571540392021E+10,      /* J = 15 */
(PID.TID 0000.0001)                 9.049530583086168E+10,      /* J = 16 */
(PID.TID 0000.0001)                 9.083293515008307E+10,      /* J = 17 */
(PID.TID 0000.0001)                 9.049530583087070E+10,      /* J = 18 */
(PID.TID 0000.0001)                 8.948571540391121E+10,      /* J = 19 */
(PID.TID 0000.0001)                 8.781353403174185E+10,      /* J = 20 */
(PID.TID 0000.0001)                 8.549360686467184E+10,      /* J = 21 */
(PID.TID 0000.0001)                 8.254500894890933E+10,      /* J = 22 */
(PID.TID 0000.0001)                 7.898934631434262E+10,      /* J = 23 */
(PID.TID 0000.0001)                 7.484854821844795E+10,      /* J = 24 */
(PID.TID 0000.0001)                 7.014205907742783E+10,      /* J = 25 */
(PID.TID 0000.0001)                 6.488320895111514E+10,      /* J = 26 */
(PID.TID 0000.0001)                 5.907428494299063E+10,      /* J = 27 */
(PID.TID 0000.0001)                 5.269930713599078E+10,      /* J = 28 */
(PID.TID 0000.0001)                 4.571243814190767E+10,      /* J = 29 */
(PID.TID 0000.0001)                 3.801790263325260E+10,      /* J = 30 */
(PID.TID 0000.0001)                 2.943712825251114E+10,      /* J = 31 */
(PID.TID 0000.0001)                 1.974052138509018E+10       /* J = 32 */
(PID.TID 0000.0001)     ;
(PID.TID 0000.0001) 
(PID.TID 0000.0001)  MDSREADFIELD: opening global file: pickup.0000072000
(PID.TID 0000.0001)  MDSREADFIELD: opening global file: pickup.0000072000
(PID.TID 0000.0001)  MDSREADFIELD: opening global file: pickup.0000072000
(PID.TID 0000.0001)  MDSREADFIELD: opening global file: pickup.0000072000
(PID.TID 0000.0001)  MDSREADFIELD: opening global file: pickup.0000072000
(PID.TID 0000.0001)  MDSREADFIELD: opening global file: pickup.0000072000
(PID.TID 0000.0001)  MDSREADFIELD: opening global file: pickup.0000072000
(PID.TID 0000.0001)  MDSREADFIELD: opening global file: pickup.0000072000
(PID.TID 0000.0001)  MDSREADFIELD: opening global file: pickup.0000072000
(PID.TID 0000.0001)  MDSREADFIELD: opening global file: pickup.0000072000
(PID.TID 0000.0001)  MDSREADFIELD: opening global file: pickup.0000072000
(PID.TID 0000.0001)  MDSREADFIELD: opening global file: pickup.0000072000
(PID.TID 0000.0001)  MDSREADFIELD: opening global file: pickup.0000072000
(PID.TID 0000.0001)  MDSREADFIELD: opening global file: pickup.0000072000
(PID.TID 0000.0001)  MDSREADFIELD: opening global file: trenberth_taux.bin
(PID.TID 0000.0001)  MDSREADFIELD: opening global file: trenberth_tauy.bin
(PID.TID 0000.0001)  MDSREADFIELD: opening global file: shiQnet_cs32.bin
(PID.TID 0000.0001)  MDSREADFIELD: opening global file: shiEmPR_cs32.bin
(PID.TID 0000.0001)  MDSREADFIELD: opening global file: lev_surfT_cs_12m.bin
(PID.TID 0000.0001)  MDSREADFIELD: opening global file: lev_surfS_cs_12m.bin
(PID.TID 0000.0001) // =======================================================
(PID.TID 0000.0001) // Model current state
(PID.TID 0000.0001) // =======================================================
(PID.TID 0000.0001) 
(PID.TID 0000.0001) // =======================================================
(PID.TID 0000.0001) // Begin MONITOR dynamic field statistics
(PID.TID 0000.0001) // =======================================================
(PID.TID 0000.0001) %MON time_tsnumber                =                 72000
(PID.TID 0000.0001) %MON time_secondsf                =   6.2208000000000E+09
(PID.TID 0000.0001) %MON dynstat_eta_max              =   9.2031710416644E-01
(PID.TID 0000.0001) %MON dynstat_eta_min              =  -1.6158898521137E+00
(PID.TID 0000.0001) %MON dynstat_eta_mean             =   5.1480998445202E-13
(PID.TID 0000.0001) %MON dynstat_eta_sd               =   5.9847717066274E-01
(PID.TID 0000.0001) %MON dynstat_eta_del2             =   1.1251605767407E-02
(PID.TID 0000.0001) %MON dynstat_uvel_max             =   1.8517049457442E-01
(PID.TID 0000.0001) %MON dynstat_uvel_min             =  -2.8835551845614E-01
(PID.TID 0000.0001) %MON dynstat_uvel_mean            =  -4.9175736870843E-04
(PID.TID 0000.0001) %MON dynstat_uvel_sd              =   1.2028057164777E-02
(PID.TID 0000.0001) %MON dynstat_uvel_del2            =   1.5709654569602E-03
(PID.TID 0000.0001) %MON dynstat_vvel_max             =   1.7299533857874E-01
(PID.TID 0000.0001) %MON dynstat_vvel_min             =  -2.2520988227009E-01
(PID.TID 0000.0001) %MON dynstat_vvel_mean            =  -4.0631664205781E-04
(PID.TID 0000.0001) %MON dynstat_vvel_sd              =   1.2644762195493E-02
(PID.TID 0000.0001) %MON dynstat_vvel_del2            =   1.5971822645558E-03
(PID.TID 0000.0001) %MON dynstat_wvel_max             =   1.0344867086358E-04
(PID.TID 0000.0001) %MON dynstat_wvel_min             =  -2.0500104931219E-04
(PID.TID 0000.0001) %MON dynstat_wvel_mean            =  -1.3432070588306E-22
(PID.TID 0000.0001) %MON dynstat_wvel_sd              =   3.9261311582711E-06
(PID.TID 0000.0001) %MON dynstat_wvel_del2            =   8.6593180221462E-07
(PID.TID 0000.0001) %MON dynstat_theta_max            =   3.0924013283713E+01
(PID.TID 0000.0001) %MON dynstat_theta_min            =  -1.9000000000000E+00
(PID.TID 0000.0001) %MON dynstat_theta_mean           =   3.9275394625369E+00
(PID.TID 0000.0001) %MON dynstat_theta_sd             =   4.5734331116607E+00
(PID.TID 0000.0001) %MON dynstat_theta_del2           =   8.7882177717031E-02
(PID.TID 0000.0001) %MON dynstat_salt_max             =   4.1446610064801E+01
(PID.TID 0000.0001) %MON dynstat_salt_min             =   1.8388095152689E+01
(PID.TID 0000.0001) %MON dynstat_salt_mean            =   3.4775230475917E+01
(PID.TID 0000.0001) %MON dynstat_salt_sd              =   5.3485821940028E-01
(PID.TID 0000.0001) %MON dynstat_salt_del2            =   1.8920977928815E-02
(PID.TID 0000.0001) %MON advcfl_uvel_max              =   8.1783094759596E-02
(PID.TID 0000.0001) %MON advcfl_vvel_max              =   7.5406230891088E-02
(PID.TID 0000.0001) %MON advcfl_wvel_max              =   6.6838077964427E-02
(PID.TID 0000.0001) %MON advcfl_W_hf_max              =   1.2188911835741E-01
(PID.TID 0000.0001) %MON pe_b_mean                    =   4.7715518783330E-04
(PID.TID 0000.0001) %MON ke_max                       =   4.0740421351592E-02
(PID.TID 0000.0001) %MON ke_mean                      =   1.4082925841100E-04
(PID.TID 0000.0001) %MON ke_vol                       =   1.3398024453628E+18
(PID.TID 0000.0001) %MON vort_r_min                   =  -1.1842642992323E-06
(PID.TID 0000.0001) %MON vort_r_max                   =   1.2117641406288E-06
(PID.TID 0000.0001) %MON vort_a_mean                  =  -2.0491686442382E-05
(PID.TID 0000.0001) %MON vort_a_sd                    =   7.5056307375080E-05
(PID.TID 0000.0001) %MON vort_p_mean                  =  -2.4712552243537E-05
(PID.TID 0000.0001) %MON vort_p_sd                    =   1.2774946922349E-04
(PID.TID 0000.0001) %MON surfExpan_theta_mean         =   3.9712143563998E-08
(PID.TID 0000.0001) %MON surfExpan_salt_mean          =   1.5431451125598E-08
(PID.TID 0000.0001) // =======================================================
(PID.TID 0000.0001) // End MONITOR dynamic field statistics
(PID.TID 0000.0001) // =======================================================
(PID.TID 0000.0001) // =======================================================
(PID.TID 0000.0001) // Begin MONITOR Therm.SeaIce statistics
(PID.TID 0000.0001) // =======================================================
(PID.TID 0000.0001) %MON thSI_time_sec                =   6.2208000000000E+09
(PID.TID 0000.0001) %MON thSI_Ice_Area_G              =   0.0000000000000E+00
(PID.TID 0000.0001) %MON thSI_Ice_Area_S              =   0.0000000000000E+00
(PID.TID 0000.0001) %MON thSI_Ice_Area_N              =   0.0000000000000E+00
(PID.TID 0000.0001) %MON thSI_IceH_ave_G              =   0.0000000000000E+00
(PID.TID 0000.0001) %MON thSI_IceH_ave_S              =   0.0000000000000E+00
(PID.TID 0000.0001) %MON thSI_IceH_ave_N              =   0.0000000000000E+00
(PID.TID 0000.0001) %MON thSI_IceH_max_S              =   0.0000000000000E+00
(PID.TID 0000.0001) %MON thSI_IceH_max_N              =   0.0000000000000E+00
(PID.TID 0000.0001) %MON thSI_SnwH_ave_G              =   0.0000000000000E+00
(PID.TID 0000.0001) %MON thSI_SnwH_ave_S              =   0.0000000000000E+00
(PID.TID 0000.0001) %MON thSI_SnwH_ave_N              =   0.0000000000000E+00
(PID.TID 0000.0001) %MON thSI_SnwH_max_S              =   0.0000000000000E+00
(PID.TID 0000.0001) %MON thSI_SnwH_max_N              =   0.0000000000000E+00
(PID.TID 0000.0001) %MON thSI_TotEnerg_G              =   0.0000000000000E+00
(PID.TID 0000.0001) %MON thSI_Tsrf_ave_G              =   0.0000000000000E+00
(PID.TID 0000.0001) %MON thSI_Tsrf_ave_S              =   0.0000000000000E+00
(PID.TID 0000.0001) %MON thSI_Tsrf_ave_N              =   0.0000000000000E+00
(PID.TID 0000.0001) %MON thSI_Tsrf_min_S              =   0.0000000000000E+00
(PID.TID 0000.0001) %MON thSI_Tsrf_min_N              =   0.0000000000000E+00
(PID.TID 0000.0001) %MON thSI_Tsrf_max_S              =   0.0000000000000E+00
(PID.TID 0000.0001) %MON thSI_Tsrf_max_N              =   0.0000000000000E+00
(PID.TID 0000.0001) %MON thSI_Tic1_ave_G              =   0.0000000000000E+00
(PID.TID 0000.0001) %MON thSI_Tic1_ave_S              =   0.0000000000000E+00
(PID.TID 0000.0001) %MON thSI_Tic1_ave_N              =   0.0000000000000E+00
(PID.TID 0000.0001) %MON thSI_Tic1_min_S              =   0.0000000000000E+00
(PID.TID 0000.0001) %MON thSI_Tic1_min_N              =   0.0000000000000E+00
(PID.TID 0000.0001) %MON thSI_Tic1_max_S              =   0.0000000000000E+00
(PID.TID 0000.0001) %MON thSI_Tic1_max_N              =   0.0000000000000E+00
(PID.TID 0000.0001) %MON thSI_Tic2_ave_G              =   0.0000000000000E+00
(PID.TID 0000.0001) %MON thSI_Tic2_ave_S              =   0.0000000000000E+00
(PID.TID 0000.0001) %MON thSI_Tic2_ave_N              =   0.0000000000000E+00
(PID.TID 0000.0001) %MON thSI_Tic2_min_S              =   0.0000000000000E+00
(PID.TID 0000.0001) %MON thSI_Tic2_min_N              =   0.0000000000000E+00
(PID.TID 0000.0001) %MON thSI_Tic2_max_S              =   0.0000000000000E+00
(PID.TID 0000.0001) %MON thSI_Tic2_max_N              =   0.0000000000000E+00
(PID.TID 0000.0001) // =======================================================
(PID.TID 0000.0001) // End MONITOR Therm.SeaIce statistics
(PID.TID 0000.0001) // =======================================================
 S/R BULKF_FIELDS_LOAD
(PID.TID 0000.0001)  MDSREADFIELD: opening global file: ncep_tair_cs.bin
(PID.TID 0000.0001)  MDSREADFIELD: opening global file: ncep_tair_cs.bin
(PID.TID 0000.0001)  MDSREADFIELD: opening global file: ncep_qair_cs.bin
(PID.TID 0000.0001)  MDSREADFIELD: opening global file: ncep_qair_cs.bin
(PID.TID 0000.0001)  MDSREADFIELD: opening global file: ncep_precip_cs.bin
(PID.TID 0000.0001)  MDSREADFIELD: opening global file: ncep_precip_cs.bin
(PID.TID 0000.0001)  MDSREADFIELD: opening global file: ncep_downsolar_cs.bin
(PID.TID 0000.0001)  MDSREADFIELD: opening global file: ncep_downsolar_cs.bin
(PID.TID 0000.0001)  MDSREADFIELD: opening global file: ncep_downlw_cs.bin
(PID.TID 0000.0001)  MDSREADFIELD: opening global file: ncep_downlw_cs.bin
(PID.TID 0000.0001)  MDSREADFIELD: opening global file: ncep_windspeed_cs.bin
(PID.TID 0000.0001)  MDSREADFIELD: opening global file: ncep_windspeed_cs.bin
(PID.TID 0000.0001)  MDSREADFIELD: opening global file: trenberth_taux.bin
(PID.TID 0000.0001)  MDSREADFIELD: opening global file: trenberth_taux.bin
(PID.TID 0000.0001)  MDSREADFIELD: opening global file: trenberth_tauy.bin
(PID.TID 0000.0001)  MDSREADFIELD: opening global file: trenberth_tauy.bin
(PID.TID 0000.0001)  MDSREADFIELD: opening global file: lev_surfT_cs_12m.bin
(PID.TID 0000.0001)  MDSREADFIELD: opening global file: lev_surfT_cs_12m.bin
(PID.TID 0000.0001)  MDSREADFIELD: opening global file: lev_surfS_cs_12m.bin
(PID.TID 0000.0001)  MDSREADFIELD: opening global file: lev_surfS_cs_12m.bin
 cg2d: Sum(rhs),rhsMax =  -3.45914186183904E-10  4.26611054403061E+00
(PID.TID 0000.0001)                    cg2d_init_res =    3.27779972865346E-01
(PID.TID 0000.0001)                       cg2d_iters =    64
(PID.TID 0000.0001)                         cg2d_res =    5.71042125688265E-07
(PID.TID 0000.0001) // =======================================================
(PID.TID 0000.0001) // Begin MONITOR dynamic field statistics
(PID.TID 0000.0001) // =======================================================
(PID.TID 0000.0001) %MON time_tsnumber                =                 72001
(PID.TID 0000.0001) %MON time_secondsf                =   6.2208864000000E+09
(PID.TID 0000.0001) %MON dynstat_eta_max              =   9.1748877201702E-01
(PID.TID 0000.0001) %MON dynstat_eta_min              =  -1.6135669960734E+00
(PID.TID 0000.0001) %MON dynstat_eta_mean             =   5.1460239054334E-13
(PID.TID 0000.0001) %MON dynstat_eta_sd               =   5.9802670664462E-01
(PID.TID 0000.0001) %MON dynstat_eta_del2             =   1.1213375803481E-02
(PID.TID 0000.0001) %MON dynstat_uvel_max             =   1.8547540832049E-01
(PID.TID 0000.0001) %MON dynstat_uvel_min             =  -2.8809636134284E-01
(PID.TID 0000.0001) %MON dynstat_uvel_mean            =  -4.9123179591594E-04
(PID.TID 0000.0001) %MON dynstat_uvel_sd              =   1.2027710093639E-02
(PID.TID 0000.0001) %MON dynstat_uvel_del2            =   1.5707307551845E-03
(PID.TID 0000.0001) %MON dynstat_vvel_max             =   1.7330724486423E-01
(PID.TID 0000.0001) %MON dynstat_vvel_min             =  -2.2516921010856E-01
(PID.TID 0000.0001) %MON dynstat_vvel_mean            =  -4.0731513974634E-04
(PID.TID 0000.0001) %MON dynstat_vvel_sd              =   1.2646944464931E-02
(PID.TID 0000.0001) %MON dynstat_vvel_del2            =   1.5963802335376E-03
(PID.TID 0000.0001) %MON dynstat_wvel_max             =   1.0356093199524E-04
(PID.TID 0000.0001) %MON dynstat_wvel_min             =  -2.0529679361005E-04
(PID.TID 0000.0001) %MON dynstat_wvel_mean            =   2.1190471047013E-22
(PID.TID 0000.0001) %MON dynstat_wvel_sd              =   3.9235941598922E-06
(PID.TID 0000.0001) %MON dynstat_wvel_del2            =   8.6674936228828E-07
(PID.TID 0000.0001) %MON dynstat_theta_max            =   3.0819211542129E+01
(PID.TID 0000.0001) %MON dynstat_theta_min            =  -2.2961651962370E+00
(PID.TID 0000.0001) %MON dynstat_theta_mean           =   3.9273754727273E+00
(PID.TID 0000.0001) %MON dynstat_theta_sd             =   4.5725586556951E+00
(PID.TID 0000.0001) %MON dynstat_theta_del2           =   8.7496013683359E-02
(PID.TID 0000.0001) %MON dynstat_salt_max             =   4.1444130916154E+01
(PID.TID 0000.0001) %MON dynstat_salt_min             =   1.8389486841625E+01
(PID.TID 0000.0001) %MON dynstat_salt_mean            =   3.4775262986700E+01
(PID.TID 0000.0001) %MON dynstat_salt_sd              =   5.3474555307617E-01
(PID.TID 0000.0001) %MON dynstat_salt_del2            =   1.8910180909498E-02
(PID.TID 0000.0001) %MON advcfl_uvel_max              =   8.1709592886393E-02
(PID.TID 0000.0001) %MON advcfl_vvel_max              =   7.5542186446732E-02
(PID.TID 0000.0001) %MON advcfl_wvel_max              =   6.6934501765691E-02
(PID.TID 0000.0001) %MON advcfl_W_hf_max              =   1.2146735245785E-01
(PID.TID 0000.0001) %MON pe_b_mean                    =   4.7643716428179E-04
(PID.TID 0000.0001) %MON ke_max                       =   4.0637791705257E-02
(PID.TID 0000.0001) %MON ke_mean                      =   1.4085115802827E-04
(PID.TID 0000.0001) %MON ke_vol                       =   1.3398024453628E+18
(PID.TID 0000.0001) %MON vort_r_min                   =  -1.1881225670037E-06
(PID.TID 0000.0001) %MON vort_r_max                   =   1.2131449064447E-06
(PID.TID 0000.0001) %MON vort_a_mean                  =  -2.0491686456051E-05
(PID.TID 0000.0001) %MON vort_a_sd                    =   7.5056307164986E-05
(PID.TID 0000.0001) %MON vort_p_mean                  =  -2.4712552260021E-05
(PID.TID 0000.0001) %MON vort_p_sd                    =   1.2774946835799E-04
(PID.TID 0000.0001) %MON surfExpan_theta_mean         =  -2.1052360759239E-08
(PID.TID 0000.0001) %MON surfExpan_salt_mean          =   5.6382086971484E-09
(PID.TID 0000.0001) // =======================================================
(PID.TID 0000.0001) // End MONITOR dynamic field statistics
(PID.TID 0000.0001) // =======================================================
(PID.TID 0000.0001) // =======================================================
(PID.TID 0000.0001) // Begin MONITOR Therm.SeaIce statistics
(PID.TID 0000.0001) // =======================================================
(PID.TID 0000.0001) %MON thSI_time_sec                =   6.2208864000000E+09
(PID.TID 0000.0001) %MON thSI_Ice_Area_G              =   3.2189190771016E+12
(PID.TID 0000.0001) %MON thSI_Ice_Area_S              =   1.8112851274931E+11
(PID.TID 0000.0001) %MON thSI_Ice_Area_N              =   3.0377905643523E+12
(PID.TID 0000.0001) %MON thSI_IceH_ave_G              =   2.0077119966351E-01
(PID.TID 0000.0001) %MON thSI_IceH_ave_S              =   2.0000000000000E-01
(PID.TID 0000.0001) %MON thSI_IceH_ave_N              =   2.0081718250700E-01
(PID.TID 0000.0001) %MON thSI_IceH_max_S              =   2.0000000000000E-01
(PID.TID 0000.0001) %MON thSI_IceH_max_N              =   2.1500941853021E-01
(PID.TID 0000.0001) %MON thSI_SnwH_ave_G              =   0.0000000000000E+00
(PID.TID 0000.0001) %MON thSI_SnwH_ave_S              =   0.0000000000000E+00
(PID.TID 0000.0001) %MON thSI_SnwH_ave_N              =   0.0000000000000E+00
(PID.TID 0000.0001) %MON thSI_SnwH_max_S              =   0.0000000000000E+00
(PID.TID 0000.0001) %MON thSI_SnwH_max_N              =   0.0000000000000E+00
(PID.TID 0000.0001) %MON thSI_TotEnerg_G              =  -1.9328430760173E+20
(PID.TID 0000.0001) %MON thSI_Tsrf_ave_G              =  -1.6979427652597E+00
(PID.TID 0000.0001) %MON thSI_Tsrf_ave_S              =  -1.8240332746077E+00
(PID.TID 0000.0001) %MON thSI_Tsrf_ave_N              =  -1.6904246082485E+00
(PID.TID 0000.0001) %MON thSI_Tsrf_min_S              =  -1.8320631851505E+00
(PID.TID 0000.0001) %MON thSI_Tsrf_min_N              =  -1.8532618166070E+00
(PID.TID 0000.0001) %MON thSI_Tsrf_max_S              =  -1.8108094224840E+00
(PID.TID 0000.0001) %MON thSI_Tsrf_max_N              =  -1.6193226179827E+00
(PID.TID 0000.0001) %MON thSI_Tic1_ave_G              =  -1.6976469716969E+00
(PID.TID 0000.0001) %MON thSI_Tic1_ave_S              =  -1.8240332746077E+00
(PID.TID 0000.0001) %MON thSI_Tic1_ave_N              =  -1.6901418432685E+00
(PID.TID 0000.0001) %MON thSI_Tic1_min_S              =  -1.8320631851505E+00
(PID.TID 0000.0001) %MON thSI_Tic1_min_N              =  -1.8532618166070E+00
(PID.TID 0000.0001) %MON thSI_Tic1_max_S              =  -1.8108094224840E+00
(PID.TID 0000.0001) %MON thSI_Tic1_max_N              =  -1.6193226179827E+00
(PID.TID 0000.0001) %MON thSI_Tic2_ave_G              =  -1.6976469716969E+00
(PID.TID 0000.0001) %MON thSI_Tic2_ave_S              =  -1.8240332746077E+00
(PID.TID 0000.0001) %MON thSI_Tic2_ave_N              =  -1.6901418432685E+00
(PID.TID 0000.0001) %MON thSI_Tic2_min_S              =  -1.8320631851505E+00
(PID.TID 0000.0001) %MON thSI_Tic2_min_N              =  -1.8532618166070E+00
(PID.TID 0000.0001) %MON thSI_Tic2_max_S              =  -1.8108094224840E+00
(PID.TID 0000.0001) %MON thSI_Tic2_max_N              =  -1.6193226179827E+00
(PID.TID 0000.0001) // =======================================================
(PID.TID 0000.0001) // End MONITOR Therm.SeaIce statistics
(PID.TID 0000.0001) // =======================================================
 cg2d: Sum(rhs),rhsMax =  -3.46019157770883E-10  4.26148429847479E+00
(PID.TID 0000.0001)                    cg2d_init_res =    5.25860716706314E-01
(PID.TID 0000.0001)                       cg2d_iters =    66
(PID.TID 0000.0001)                         cg2d_res =    5.61818600074957E-07
(PID.TID 0000.0001) // =======================================================
(PID.TID 0000.0001) // Begin MONITOR dynamic field statistics
(PID.TID 0000.0001) // =======================================================
(PID.TID 0000.0001) %MON time_tsnumber                =                 72002
(PID.TID 0000.0001) %MON time_secondsf                =   6.2209728000000E+09
(PID.TID 0000.0001) %MON dynstat_eta_max              =   9.1534597641607E-01
(PID.TID 0000.0001) %MON dynstat_eta_min              =  -1.6118930878950E+00
(PID.TID 0000.0001) %MON dynstat_eta_mean             =   5.1502432773283E-13
(PID.TID 0000.0001) %MON dynstat_eta_sd               =   5.9747911494546E-01
(PID.TID 0000.0001) %MON dynstat_eta_del2             =   1.1175792497416E-02
(PID.TID 0000.0001) %MON dynstat_uvel_max             =   1.8580913872318E-01
(PID.TID 0000.0001) %MON dynstat_uvel_min             =  -2.8781253261441E-01
(PID.TID 0000.0001) %MON dynstat_uvel_mean            =  -4.9059827030828E-04
(PID.TID 0000.0001) %MON dynstat_uvel_sd              =   1.2028685387426E-02
(PID.TID 0000.0001) %MON dynstat_uvel_del2            =   1.5706148375866E-03
(PID.TID 0000.0001) %MON dynstat_vvel_max             =   1.7359533743797E-01
(PID.TID 0000.0001) %MON dynstat_vvel_min             =  -2.2512230335918E-01
(PID.TID 0000.0001) %MON dynstat_vvel_mean            =  -4.0940691695067E-04
(PID.TID 0000.0001) %MON dynstat_vvel_sd              =   1.2651088054585E-02
(PID.TID 0000.0001) %MON dynstat_vvel_del2            =   1.5956199371145E-03
(PID.TID 0000.0001) %MON dynstat_wvel_max             =   1.0372178244232E-04
(PID.TID 0000.0001) %MON dynstat_wvel_min             =  -2.0554344247164E-04
(PID.TID 0000.0001) %MON dynstat_wvel_mean            =   2.1588844157091E-22
(PID.TID 0000.0001) %MON dynstat_wvel_sd              =   3.9215024995881E-06
(PID.TID 0000.0001) %MON dynstat_wvel_del2            =   8.6934185347409E-07
(PID.TID 0000.0001) %MON dynstat_theta_max            =   3.0718709388563E+01
(PID.TID 0000.0001) %MON dynstat_theta_min            =  -2.1819696122001E+00
(PID.TID 0000.0001) %MON dynstat_theta_mean           =   3.9272990958197E+00
(PID.TID 0000.0001) %MON dynstat_theta_sd             =   4.5716843860196E+00
(PID.TID 0000.0001) %MON dynstat_theta_del2           =   8.7087355188715E-02
(PID.TID 0000.0001) %MON dynstat_salt_max             =   4.1443463038029E+01
(PID.TID 0000.0001) %MON dynstat_salt_min             =   1.8390826358933E+01
(PID.TID 0000.0001) %MON dynstat_salt_mean            =   3.4775309884333E+01
(PID.TID 0000.0001) %MON dynstat_salt_sd              =   5.3455252796876E-01
(PID.TID 0000.0001) %MON dynstat_salt_del2            =   1.8898103270041E-02
(PID.TID 0000.0001) %MON advcfl_uvel_max              =   8.1629093675153E-02
(PID.TID 0000.0001) %MON advcfl_vvel_max              =   7.5667761940917E-02
(PID.TID 0000.0001) %MON advcfl_wvel_max              =   6.7014918602075E-02
(PID.TID 0000.0001) %MON advcfl_W_hf_max              =   1.2098611195403E-01
(PID.TID 0000.0001) %MON pe_b_mean                    =   4.7556505075168E-04
(PID.TID 0000.0001) %MON ke_max                       =   4.0531533284894E-02
(PID.TID 0000.0001) %MON ke_mean                      =   1.4091106655066E-04
(PID.TID 0000.0001) %MON ke_vol                       =   1.3398024453628E+18
(PID.TID 0000.0001) %MON vort_r_min                   =  -1.1922582743335E-06
(PID.TID 0000.0001) %MON vort_r_max                   =   1.2146675439787E-06
(PID.TID 0000.0001) %MON vort_a_mean                  =  -2.0491686469353E-05
(PID.TID 0000.0001) %MON vort_a_sd                    =   7.5056306905509E-05
(PID.TID 0000.0001) %MON vort_p_mean                  =  -2.4712552276063E-05
(PID.TID 0000.0001) %MON vort_p_sd                    =   1.2774946908382E-04
(PID.TID 0000.0001) %MON surfExpan_theta_mean         =  -5.0960763890638E-08
(PID.TID 0000.0001) %MON surfExpan_salt_mean          =   2.3437675411427E-09
(PID.TID 0000.0001) // =======================================================
(PID.TID 0000.0001) // End MONITOR dynamic field statistics
(PID.TID 0000.0001) // =======================================================
(PID.TID 0000.0001) // =======================================================
(PID.TID 0000.0001) // Begin MONITOR Therm.SeaIce statistics
(PID.TID 0000.0001) // =======================================================
(PID.TID 0000.0001) %MON thSI_time_sec                =   6.2209728000000E+09
(PID.TID 0000.0001) %MON thSI_Ice_Area_G              =   4.7065800885015E+12
(PID.TID 0000.0001) %MON thSI_Ice_Area_S              =   1.7217020644284E+11
(PID.TID 0000.0001) %MON thSI_Ice_Area_N              =   4.5344098820586E+12
(PID.TID 0000.0001) %MON thSI_IceH_ave_G              =   4.3115880367510E-01
(PID.TID 0000.0001) %MON thSI_IceH_ave_S              =   1.8606600925182E-01
(PID.TID 0000.0001) %MON thSI_IceH_ave_N              =   4.4046490482411E-01
(PID.TID 0000.0001) %MON thSI_IceH_max_S              =   1.9599590940889E-01
(PID.TID 0000.0001) %MON thSI_IceH_max_N              =   6.1367339633699E-01
(PID.TID 0000.0001) %MON thSI_SnwH_ave_G              =   9.8395248789638E-04
(PID.TID 0000.0001) %MON thSI_SnwH_ave_S              =   4.2230983589135E-04
(PID.TID 0000.0001) %MON thSI_SnwH_ave_N              =   1.0052778938164E-03
(PID.TID 0000.0001) %MON thSI_SnwH_max_S              =   2.8077601793959E-03
(PID.TID 0000.0001) %MON thSI_SnwH_max_N              =   5.8080458146932E-03
(PID.TID 0000.0001) %MON thSI_TotEnerg_G              =  -6.2829367003348E+20
(PID.TID 0000.0001) %MON thSI_Tsrf_ave_G              =  -1.6830944364525E+01
(PID.TID 0000.0001) %MON thSI_Tsrf_ave_S              =  -8.3804586679678E-02
(PID.TID 0000.0001) %MON thSI_Tsrf_ave_N              =  -1.7466828324704E+01
(PID.TID 0000.0001) %MON thSI_Tsrf_min_S              =  -5.5718138989893E-01
(PID.TID 0000.0001) %MON thSI_Tsrf_min_N              =  -2.5269931212806E+01
(PID.TID 0000.0001) %MON thSI_Tsrf_max_S              =   0.0000000000000E+00
(PID.TID 0000.0001) %MON thSI_Tsrf_max_N              =  -1.4629601753860E+00
(PID.TID 0000.0001) %MON thSI_Tic1_ave_G              =  -1.3840590016162E+01
(PID.TID 0000.0001) %MON thSI_Tic1_ave_S              =  -6.3020817009896E-01
(PID.TID 0000.0001) %MON thSI_Tic1_ave_N              =  -1.4052478975801E+01
(PID.TID 0000.0001) %MON thSI_Tic1_min_S              =  -8.1674371673171E-01
(PID.TID 0000.0001) %MON thSI_Tic1_min_N              =  -1.8439187675086E+01
(PID.TID 0000.0001) %MON thSI_Tic1_max_S              =  -5.7493035618663E-01
(PID.TID 0000.0001) %MON thSI_Tic1_max_N              =  -1.4629601753860E+00
(PID.TID 0000.0001) %MON thSI_Tic2_ave_G              =  -5.6070504298862E+00
(PID.TID 0000.0001) %MON thSI_Tic2_ave_S              =  -1.4407509266053E+00
(PID.TID 0000.0001) %MON thSI_Tic2_ave_N              =  -5.6738761187711E+00
(PID.TID 0000.0001) %MON thSI_Tic2_min_S              =  -1.5003101348959E+00
(PID.TID 0000.0001) %MON thSI_Tic2_min_N              =  -7.0838583685903E+00
(PID.TID 0000.0001) %MON thSI_Tic2_max_S              =  -1.4184167192043E+00
(PID.TID 0000.0001) %MON thSI_Tic2_max_N              =  -1.4629601753860E+00
(PID.TID 0000.0001) // =======================================================
(PID.TID 0000.0001) // End MONITOR Therm.SeaIce statistics
(PID.TID 0000.0001) // =======================================================
 cg2d: Sum(rhs),rhsMax =  -3.46396133998894E-10  4.25831683423181E+00
(PID.TID 0000.0001)                    cg2d_init_res =    4.94050050314897E-01
(PID.TID 0000.0001)                       cg2d_iters =    66
(PID.TID 0000.0001)                         cg2d_res =    5.77942323004748E-07
(PID.TID 0000.0001) // =======================================================
(PID.TID 0000.0001) // Begin MONITOR dynamic field statistics
(PID.TID 0000.0001) // =======================================================
(PID.TID 0000.0001) %MON time_tsnumber                =                 72003
(PID.TID 0000.0001) %MON time_secondsf                =   6.2210592000000E+09
(PID.TID 0000.0001) %MON dynstat_eta_max              =   9.1296608110339E-01
(PID.TID 0000.0001) %MON dynstat_eta_min              =  -1.6104924161870E+00
(PID.TID 0000.0001) %MON dynstat_eta_mean             =   5.1470105945392E-13
(PID.TID 0000.0001) %MON dynstat_eta_sd               =   5.9686941569289E-01
(PID.TID 0000.0001) %MON dynstat_eta_del2             =   1.1157867123879E-02
(PID.TID 0000.0001) %MON dynstat_uvel_max             =   1.8609695261939E-01
(PID.TID 0000.0001) %MON dynstat_uvel_min             =  -2.8750400547069E-01
(PID.TID 0000.0001) %MON dynstat_uvel_mean            =  -4.9004584533467E-04
(PID.TID 0000.0001) %MON dynstat_uvel_sd              =   1.2029756138108E-02
(PID.TID 0000.0001) %MON dynstat_uvel_del2            =   1.5705092034179E-03
(PID.TID 0000.0001) %MON dynstat_vvel_max             =   1.7384235397422E-01
(PID.TID 0000.0001) %MON dynstat_vvel_min             =  -2.2506554707706E-01
(PID.TID 0000.0001) %MON dynstat_vvel_mean            =  -4.1147090693963E-04
(PID.TID 0000.0001) %MON dynstat_vvel_sd              =   1.2655445658172E-02
(PID.TID 0000.0001) %MON dynstat_vvel_del2            =   1.5948685385676E-03
(PID.TID 0000.0001) %MON dynstat_wvel_max             =   1.0394073621249E-04
(PID.TID 0000.0001) %MON dynstat_wvel_min             =  -2.0573816465359E-04
(PID.TID 0000.0001) %MON dynstat_wvel_mean            =  -5.3097907345542E-23
(PID.TID 0000.0001) %MON dynstat_wvel_sd              =   3.9199336592808E-06
(PID.TID 0000.0001) %MON dynstat_wvel_del2            =   8.7269030545922E-07
(PID.TID 0000.0001) %MON dynstat_theta_max            =   3.0622747422853E+01
(PID.TID 0000.0001) %MON dynstat_theta_min            =  -2.2875544845247E+00
(PID.TID 0000.0001) %MON dynstat_theta_mean           =   3.9272318253762E+00
(PID.TID 0000.0001) %MON dynstat_theta_sd             =   4.5708980228502E+00
(PID.TID 0000.0001) %MON dynstat_theta_del2           =   8.6818810111275E-02
(PID.TID 0000.0001) %MON dynstat_salt_max             =   4.1442400403122E+01
(PID.TID 0000.0001) %MON dynstat_salt_min             =   1.8392119131839E+01
(PID.TID 0000.0001) %MON dynstat_salt_mean            =   3.4775347075855E+01
(PID.TID 0000.0001) %MON dynstat_salt_sd              =   5.3441285552634E-01
(PID.TID 0000.0001) %MON dynstat_salt_del2            =   1.8883901860353E-02
(PID.TID 0000.0001) %MON advcfl_uvel_max              =   8.1541589524840E-02
(PID.TID 0000.0001) %MON advcfl_vvel_max              =   7.5775432969043E-02
(PID.TID 0000.0001) %MON advcfl_wvel_max              =   6.7078405381398E-02
(PID.TID 0000.0001) %MON advcfl_W_hf_max              =   1.2037289204600E-01
(PID.TID 0000.0001) %MON pe_b_mean                    =   4.7459496256700E-04
(PID.TID 0000.0001) %MON ke_max                       =   4.0420534896275E-02
(PID.TID 0000.0001) %MON ke_mean                      =   1.4097459278539E-04
(PID.TID 0000.0001) %MON ke_vol                       =   1.3398024453628E+18
(PID.TID 0000.0001) %MON vort_r_min                   =  -1.1966668620647E-06
(PID.TID 0000.0001) %MON vort_r_max                   =   1.2165459784959E-06
(PID.TID 0000.0001) %MON vort_a_mean                  =  -2.0491686482589E-05
(PID.TID 0000.0001) %MON vort_a_sd                    =   7.5056306636922E-05
(PID.TID 0000.0001) %MON vort_p_mean                  =  -2.4712552292026E-05
(PID.TID 0000.0001) %MON vort_p_sd                    =   1.2774947018608E-04
(PID.TID 0000.0001) %MON surfExpan_theta_mean         =  -6.5286221454201E-08
(PID.TID 0000.0001) %MON surfExpan_salt_mean          =   9.1788955612246E-10
(PID.TID 0000.0001) // =======================================================
(PID.TID 0000.0001) // End MONITOR dynamic field statistics
(PID.TID 0000.0001) // =======================================================
(PID.TID 0000.0001) // =======================================================
(PID.TID 0000.0001) // Begin MONITOR Therm.SeaIce statistics
(PID.TID 0000.0001) // =======================================================
(PID.TID 0000.0001) %MON thSI_time_sec                =   6.2210592000000E+09
(PID.TID 0000.0001) %MON thSI_Ice_Area_G              =   5.9227765610544E+12
(PID.TID 0000.0001) %MON thSI_Ice_Area_S              =   1.6077563209309E+11
(PID.TID 0000.0001) %MON thSI_Ice_Area_N              =   5.7620009289613E+12
(PID.TID 0000.0001) %MON thSI_IceH_ave_G              =   4.9999038883228E-01
(PID.TID 0000.0001) %MON thSI_IceH_ave_S              =   1.6970187158496E-01
(PID.TID 0000.0001) %MON thSI_IceH_ave_N              =   5.0920634450258E-01
(PID.TID 0000.0001) %MON thSI_IceH_max_S              =   1.9617615547236E-01
(PID.TID 0000.0001) %MON thSI_IceH_max_N              =   8.0331215302076E-01
(PID.TID 0000.0001) %MON thSI_SnwH_ave_G              =   2.3208771537798E-03
(PID.TID 0000.0001) %MON thSI_SnwH_ave_S              =   1.3189370511195E-03
(PID.TID 0000.0001) %MON thSI_SnwH_ave_N              =   2.3488340311407E-03
(PID.TID 0000.0001) %MON thSI_SnwH_max_S              =   8.1887027749720E-03
(PID.TID 0000.0001) %MON thSI_SnwH_max_N              =   1.3521785183370E-02
(PID.TID 0000.0001) %MON thSI_TotEnerg_G              =  -9.3527720075855E+20
(PID.TID 0000.0001) %MON thSI_Tsrf_ave_G              =  -1.9264945266019E+01
(PID.TID 0000.0001) %MON thSI_Tsrf_ave_S              =  -4.9762419543902E-01
(PID.TID 0000.0001) %MON thSI_Tsrf_ave_N              =  -1.9788605005928E+01
(PID.TID 0000.0001) %MON thSI_Tsrf_min_S              =  -3.0895307904391E+00
(PID.TID 0000.0001) %MON thSI_Tsrf_min_N              =  -3.0071780750553E+01
(PID.TID 0000.0001) %MON thSI_Tsrf_max_S              =   0.0000000000000E+00
(PID.TID 0000.0001) %MON thSI_Tsrf_max_N              =  -1.1342356888889E+00
(PID.TID 0000.0001) %MON thSI_Tic1_ave_G              =  -1.4693867002951E+01
(PID.TID 0000.0001) %MON thSI_Tic1_ave_S              =  -7.6477798296049E-01
(PID.TID 0000.0001) %MON thSI_Tic1_ave_N              =  -1.4823394639621E+01
(PID.TID 0000.0001) %MON thSI_Tic1_min_S              =  -2.2754487639294E+00
(PID.TID 0000.0001) %MON thSI_Tic1_min_N              =  -1.9119319298607E+01
(PID.TID 0000.0001) %MON thSI_Tic1_max_S              =  -4.0237559695933E-01
(PID.TID 0000.0001) %MON thSI_Tic1_max_N              =  -1.1342356888889E+00
(PID.TID 0000.0001) %MON thSI_Tic2_ave_G              =  -5.4845827656848E+00
(PID.TID 0000.0001) %MON thSI_Tic2_ave_S              =  -1.4689927264202E+00
(PID.TID 0000.0001) %MON thSI_Tic2_ave_N              =  -5.5219240366663E+00
(PID.TID 0000.0001) %MON thSI_Tic2_min_S              =  -1.9512182528666E+00
(PID.TID 0000.0001) %MON thSI_Tic2_min_N              =  -6.6961373400414E+00
(PID.TID 0000.0001) %MON thSI_Tic2_max_S              =  -1.3476376084187E+00
(PID.TID 0000.0001) %MON thSI_Tic2_max_N              =  -1.1342356888889E+00
(PID.TID 0000.0001) // =======================================================
(PID.TID 0000.0001) // End MONITOR Therm.SeaIce statistics
(PID.TID 0000.0001) // =======================================================
 cg2d: Sum(rhs),rhsMax =  -3.45745654328766E-10  4.25527428039623E+00
(PID.TID 0000.0001)                    cg2d_init_res =    5.13581342495141E-01
(PID.TID 0000.0001)                       cg2d_iters =    66
(PID.TID 0000.0001)                         cg2d_res =    5.78291284128465E-07
(PID.TID 0000.0001) // =======================================================
(PID.TID 0000.0001) // Begin MONITOR dynamic field statistics
(PID.TID 0000.0001) // =======================================================
(PID.TID 0000.0001) %MON time_tsnumber                =                 72004
(PID.TID 0000.0001) %MON time_secondsf                =   6.2211456000000E+09
(PID.TID 0000.0001) %MON dynstat_eta_max              =   9.1098702711670E-01
(PID.TID 0000.0001) %MON dynstat_eta_min              =  -1.6092372142428E+00
(PID.TID 0000.0001) %MON dynstat_eta_mean             =   5.1492199076058E-13
(PID.TID 0000.0001) %MON dynstat_eta_sd               =   5.9625826690601E-01
(PID.TID 0000.0001) %MON dynstat_eta_del2             =   1.1138426119614E-02
(PID.TID 0000.0001) %MON dynstat_uvel_max             =   1.8633828106608E-01
(PID.TID 0000.0001) %MON dynstat_uvel_min             =  -2.8717597988477E-01
(PID.TID 0000.0001) %MON dynstat_uvel_mean            =  -4.8980881125900E-04
(PID.TID 0000.0001) %MON dynstat_uvel_sd              =   1.2031209779278E-02
(PID.TID 0000.0001) %MON dynstat_uvel_del2            =   1.5704733645131E-03
(PID.TID 0000.0001) %MON dynstat_vvel_max             =   1.7405665722363E-01
(PID.TID 0000.0001) %MON dynstat_vvel_min             =  -2.2499895919841E-01
(PID.TID 0000.0001) %MON dynstat_vvel_mean            =  -4.1294324448216E-04
(PID.TID 0000.0001) %MON dynstat_vvel_sd              =   1.2660269625217E-02
(PID.TID 0000.0001) %MON dynstat_vvel_del2            =   1.5943289751919E-03
(PID.TID 0000.0001) %MON dynstat_wvel_max             =   1.0422479609053E-04
(PID.TID 0000.0001) %MON dynstat_wvel_min             =  -2.0587160952590E-04
(PID.TID 0000.0001) %MON dynstat_wvel_mean            =  -2.4167929806951E-22
(PID.TID 0000.0001) %MON dynstat_wvel_sd              =   3.9188134214583E-06
(PID.TID 0000.0001) %MON dynstat_wvel_del2            =   8.7578354691774E-07
(PID.TID 0000.0001) %MON dynstat_theta_max            =   3.0530648900466E+01
(PID.TID 0000.0001) %MON dynstat_theta_min            =  -2.2266724938722E+00
(PID.TID 0000.0001) %MON dynstat_theta_mean           =   3.9271831790129E+00
(PID.TID 0000.0001) %MON dynstat_theta_sd             =   4.5701754244960E+00
(PID.TID 0000.0001) %MON dynstat_theta_del2           =   8.6575279907693E-02
(PID.TID 0000.0001) %MON dynstat_salt_max             =   4.1440994944140E+01
(PID.TID 0000.0001) %MON dynstat_salt_min             =   1.8393368393811E+01
(PID.TID 0000.0001) %MON dynstat_salt_mean            =   3.4775381017487E+01
(PID.TID 0000.0001) %MON dynstat_salt_sd              =   5.3427571153437E-01
(PID.TID 0000.0001) %MON dynstat_salt_del2            =   1.8858173353182E-02
(PID.TID 0000.0001) %MON advcfl_uvel_max              =   8.1448555246457E-02
(PID.TID 0000.0001) %MON advcfl_vvel_max              =   7.5868844736310E-02
(PID.TID 0000.0001) %MON advcfl_wvel_max              =   6.7121913445426E-02
(PID.TID 0000.0001) %MON advcfl_W_hf_max              =   1.1969962741057E-01
(PID.TID 0000.0001) %MON pe_b_mean                    =   4.7362356200795E-04
(PID.TID 0000.0001) %MON ke_max                       =   4.0306144745523E-02
(PID.TID 0000.0001) %MON ke_mean                      =   1.4104776980024E-04
(PID.TID 0000.0001) %MON ke_vol                       =   1.3398024453628E+18
(PID.TID 0000.0001) %MON vort_r_min                   =  -1.2013555110762E-06
(PID.TID 0000.0001) %MON vort_r_max                   =   1.2187387813996E-06
(PID.TID 0000.0001) %MON vort_a_mean                  =  -2.0491686494543E-05
(PID.TID 0000.0001) %MON vort_a_sd                    =   7.5056306433115E-05
(PID.TID 0000.0001) %MON vort_p_mean                  =  -2.4712552306442E-05
(PID.TID 0000.0001) %MON vort_p_sd                    =   1.2774947244893E-04
(PID.TID 0000.0001) %MON surfExpan_theta_mean         =  -6.8273945313568E-08
(PID.TID 0000.0001) %MON surfExpan_salt_mean          =   5.0011259022252E-10
(PID.TID 0000.0001) // =======================================================
(PID.TID 0000.0001) // End MONITOR dynamic field statistics
(PID.TID 0000.0001) // =======================================================
(PID.TID 0000.0001) // =======================================================
(PID.TID 0000.0001) // Begin MONITOR Therm.SeaIce statistics
(PID.TID 0000.0001) // =======================================================
(PID.TID 0000.0001) %MON thSI_time_sec                =   6.2211456000000E+09
(PID.TID 0000.0001) %MON thSI_Ice_Area_G              =   6.4144327739515E+12
(PID.TID 0000.0001) %MON thSI_Ice_Area_S              =   1.4655380354267E+11
(PID.TID 0000.0001) %MON thSI_Ice_Area_N              =   6.2678789704089E+12
(PID.TID 0000.0001) %MON thSI_IceH_ave_G              =   5.8605486610759E-01
(PID.TID 0000.0001) %MON thSI_IceH_ave_S              =   1.5150121148648E-01
(PID.TID 0000.0001) %MON thSI_IceH_ave_N              =   5.9621547884896E-01
(PID.TID 0000.0001) %MON thSI_IceH_max_S              =   1.9645810314540E-01
(PID.TID 0000.0001) %MON thSI_IceH_max_N              =   8.6181146070524E-01
(PID.TID 0000.0001) %MON thSI_SnwH_ave_G              =   3.9490551798100E-03
(PID.TID 0000.0001) %MON thSI_SnwH_ave_S              =   2.3906850979824E-03
(PID.TID 0000.0001) %MON thSI_SnwH_ave_N              =   3.9854925558183E-03
(PID.TID 0000.0001) %MON thSI_SnwH_max_S              =   1.3529765903374E-02
(PID.TID 0000.0001) %MON thSI_SnwH_max_N              =   2.1471992578483E-02
(PID.TID 0000.0001) %MON thSI_TotEnerg_G              =  -1.2001970352215E+21
(PID.TID 0000.0001) %MON thSI_Tsrf_ave_G              =  -2.3019209380075E+01
(PID.TID 0000.0001) %MON thSI_Tsrf_ave_S              =  -6.2116817524200E-01
(PID.TID 0000.0001) %MON thSI_Tsrf_ave_N              =  -2.3542914152609E+01
(PID.TID 0000.0001) %MON thSI_Tsrf_min_S              =  -3.5154190757884E+00
(PID.TID 0000.0001) %MON thSI_Tsrf_min_N              =  -3.1671893173649E+01
(PID.TID 0000.0001) %MON thSI_Tsrf_max_S              =   0.0000000000000E+00
(PID.TID 0000.0001) %MON thSI_Tsrf_max_N              =  -1.5171441118018E+00
(PID.TID 0000.0001) %MON thSI_Tic1_ave_G              =  -1.6615760995591E+01
(PID.TID 0000.0001) %MON thSI_Tic1_ave_S              =  -9.0225106111284E-01
(PID.TID 0000.0001) %MON thSI_Tic1_ave_N              =  -1.6709121363745E+01
(PID.TID 0000.0001) %MON thSI_Tic1_min_S              =  -2.7386065829660E+00
(PID.TID 0000.0001) %MON thSI_Tic1_min_N              =  -2.1712856673533E+01
(PID.TID 0000.0001) %MON thSI_Tic1_max_S              =  -3.4540269003630E-01
(PID.TID 0000.0001) %MON thSI_Tic1_max_N              =  -1.5171441118018E+00
(PID.TID 0000.0001) %MON thSI_Tic2_ave_G              =  -6.1411969252723E+00
(PID.TID 0000.0001) %MON thSI_Tic2_ave_S              =  -1.5163181004309E+00
(PID.TID 0000.0001) %MON thSI_Tic2_ave_N              =  -6.1686752157087E+00
(PID.TID 0000.0001) %MON thSI_Tic2_min_S              =  -2.1231525259349E+00
(PID.TID 0000.0001) %MON thSI_Tic2_min_N              =  -7.5301297837221E+00
(PID.TID 0000.0001) %MON thSI_Tic2_max_S              =  -1.3245475530002E+00
(PID.TID 0000.0001) %MON thSI_Tic2_max_N              =  -1.5171441118018E+00
(PID.TID 0000.0001) // =======================================================
(PID.TID 0000.0001) // End MONITOR Therm.SeaIce statistics
(PID.TID 0000.0001) // =======================================================
 cg2d: Sum(rhs),rhsMax =  -3.45899198173072E-10  4.25211088771429E+00
(PID.TID 0000.0001)                    cg2d_init_res =    4.11685500485722E-01
(PID.TID 0000.0001)                       cg2d_iters =    66
(PID.TID 0000.0001)                         cg2d_res =    5.27050979554458E-07
(PID.TID 0000.0001) // =======================================================
(PID.TID 0000.0001) // Begin MONITOR dynamic field statistics
(PID.TID 0000.0001) // =======================================================
(PID.TID 0000.0001) %MON time_tsnumber                =                 72005
(PID.TID 0000.0001) %MON time_secondsf                =   6.2212320000000E+09
(PID.TID 0000.0001) %MON dynstat_eta_max              =   9.0932146023649E-01
(PID.TID 0000.0001) %MON dynstat_eta_min              =  -1.6081242909981E+00
(PID.TID 0000.0001) %MON dynstat_eta_mean             =   5.1441235972356E-13
(PID.TID 0000.0001) %MON dynstat_eta_sd               =   5.9570102041738E-01
(PID.TID 0000.0001) %MON dynstat_eta_del2             =   1.1121002674654E-02
(PID.TID 0000.0001) %MON dynstat_uvel_max             =   1.8652976489087E-01
(PID.TID 0000.0001) %MON dynstat_uvel_min             =  -2.8682956531736E-01
(PID.TID 0000.0001) %MON dynstat_uvel_mean            =  -4.8993744403278E-04
(PID.TID 0000.0001) %MON dynstat_uvel_sd              =   1.2033081810012E-02
(PID.TID 0000.0001) %MON dynstat_uvel_del2            =   1.5706044250536E-03
(PID.TID 0000.0001) %MON dynstat_vvel_max             =   1.7423818237848E-01
(PID.TID 0000.0001) %MON dynstat_vvel_min             =  -2.2492302193660E-01
(PID.TID 0000.0001) %MON dynstat_vvel_mean            =  -4.1378051258086E-04
(PID.TID 0000.0001) %MON dynstat_vvel_sd              =   1.2665408028057E-02
(PID.TID 0000.0001) %MON dynstat_vvel_del2            =   1.5938028259032E-03
(PID.TID 0000.0001) %MON dynstat_wvel_max             =   1.0456710138860E-04
(PID.TID 0000.0001) %MON dynstat_wvel_min             =  -2.0595158735449E-04
(PID.TID 0000.0001) %MON dynstat_wvel_mean            =   2.9401096675803E-22
(PID.TID 0000.0001) %MON dynstat_wvel_sd              =   3.9176963783752E-06
(PID.TID 0000.0001) %MON dynstat_wvel_del2            =   8.7778251395817E-07
(PID.TID 0000.0001) %MON dynstat_theta_max            =   3.0442327966961E+01
(PID.TID 0000.0001) %MON dynstat_theta_min            =  -2.1995414011836E+00
(PID.TID 0000.0001) %MON dynstat_theta_mean           =   3.9271442111488E+00
(PID.TID 0000.0001) %MON dynstat_theta_sd             =   4.5695213777255E+00
(PID.TID 0000.0001) %MON dynstat_theta_del2           =   8.6372104373964E-02
(PID.TID 0000.0001) %MON dynstat_salt_max             =   4.1439287753878E+01
(PID.TID 0000.0001) %MON dynstat_salt_min             =   1.8394578192474E+01
(PID.TID 0000.0001) %MON dynstat_salt_mean            =   3.4775411939182E+01
(PID.TID 0000.0001) %MON dynstat_salt_sd              =   5.3415267103509E-01
(PID.TID 0000.0001) %MON dynstat_salt_del2            =   1.8850427947351E-02
(PID.TID 0000.0001) %MON advcfl_uvel_max              =   8.1350305504110E-02
(PID.TID 0000.0001) %MON advcfl_vvel_max              =   7.5947968993945E-02
(PID.TID 0000.0001) %MON advcfl_wvel_max              =   6.7147989235577E-02
(PID.TID 0000.0001) %MON advcfl_W_hf_max              =   1.1896468435201E-01
(PID.TID 0000.0001) %MON pe_b_mean                    =   4.7273870471385E-04
(PID.TID 0000.0001) %MON ke_max                       =   4.0188772215653E-02
(PID.TID 0000.0001) %MON ke_mean                      =   1.4112921542273E-04
(PID.TID 0000.0001) %MON ke_vol                       =   1.3398024453628E+18
(PID.TID 0000.0001) %MON vort_r_min                   =  -1.2062850200491E-06
(PID.TID 0000.0001) %MON vort_r_max                   =   1.2211938034844E-06
(PID.TID 0000.0001) %MON vort_a_mean                  =  -2.0491686505431E-05
(PID.TID 0000.0001) %MON vort_a_sd                    =   7.5056306316803E-05
(PID.TID 0000.0001) %MON vort_p_mean                  =  -2.4712552319572E-05
(PID.TID 0000.0001) %MON vort_p_sd                    =   1.2774947583115E-04
(PID.TID 0000.0001) %MON surfExpan_theta_mean         =  -6.2052529931412E-08
(PID.TID 0000.0001) %MON surfExpan_salt_mean          =   3.4695491100337E-10
(PID.TID 0000.0001) // =======================================================
(PID.TID 0000.0001) // End MONITOR dynamic field statistics
(PID.TID 0000.0001) // =======================================================
(PID.TID 0000.0001) // =======================================================
(PID.TID 0000.0001) // Begin MONITOR Therm.SeaIce statistics
(PID.TID 0000.0001) // =======================================================
(PID.TID 0000.0001) %MON thSI_time_sec                =   6.2212320000000E+09
(PID.TID 0000.0001) %MON thSI_Ice_Area_G              =   7.1140532385337E+12
(PID.TID 0000.0001) %MON thSI_Ice_Area_S              =   1.2901804372137E+11
(PID.TID 0000.0001) %MON thSI_Ice_Area_N              =   6.9850351948124E+12
(PID.TID 0000.0001) %MON thSI_IceH_ave_G              =   6.2256469445888E-01
(PID.TID 0000.0001) %MON thSI_IceH_ave_S              =   1.3253966037326E-01
(PID.TID 0000.0001) %MON thSI_IceH_ave_N              =   6.3161576857791E-01
(PID.TID 0000.0001) %MON thSI_IceH_max_S              =   1.9624643053033E-01
(PID.TID 0000.0001) %MON thSI_IceH_max_N              =   9.5349755042558E-01
(PID.TID 0000.0001) %MON thSI_SnwH_ave_G              =   5.4642836460254E-03
(PID.TID 0000.0001) %MON thSI_SnwH_ave_S              =   3.8310708552828E-03
(PID.TID 0000.0001) %MON thSI_SnwH_ave_N              =   5.4944501252722E-03
(PID.TID 0000.0001) %MON thSI_SnwH_max_S              =   1.9100532254477E-02
(PID.TID 0000.0001) %MON thSI_SnwH_max_N              =   2.9417586162578E-02
(PID.TID 0000.0001) %MON thSI_TotEnerg_G              =  -1.4225527262421E+21
(PID.TID 0000.0001) %MON thSI_Tsrf_ave_G              =  -2.3137686872458E+01
(PID.TID 0000.0001) %MON thSI_Tsrf_ave_S              =  -7.2715595767072E-01
(PID.TID 0000.0001) %MON thSI_Tsrf_ave_N              =  -2.3551623635372E+01
(PID.TID 0000.0001) %MON thSI_Tsrf_min_S              =  -3.6253743008623E+00
(PID.TID 0000.0001) %MON thSI_Tsrf_min_N              =  -3.2537728124524E+01
(PID.TID 0000.0001) %MON thSI_Tsrf_max_S              =   0.0000000000000E+00
(PID.TID 0000.0001) %MON thSI_Tsrf_max_N              =  -1.4860141623424E+00
(PID.TID 0000.0001) %MON thSI_Tic1_ave_G              =  -1.7071103677346E+01
(PID.TID 0000.0001) %MON thSI_Tic1_ave_S              =  -1.0503606838517E+00
(PID.TID 0000.0001) %MON thSI_Tic1_ave_N              =  -1.7133198786783E+01
(PID.TID 0000.0001) %MON thSI_Tic1_min_S              =  -2.7447266735440E+00
(PID.TID 0000.0001) %MON thSI_Tic1_min_N              =  -2.3128253432168E+01
(PID.TID 0000.0001) %MON thSI_Tic1_max_S              =  -3.2348947112957E-01
(PID.TID 0000.0001) %MON thSI_Tic1_max_N              =  -1.4860141623424E+00
(PID.TID 0000.0001) %MON thSI_Tic2_ave_G              =  -6.3123926753378E+00
(PID.TID 0000.0001) %MON thSI_Tic2_ave_S              =  -1.5664249770381E+00
(PID.TID 0000.0001) %MON thSI_Tic2_ave_N              =  -6.3307876638679E+00
(PID.TID 0000.0001) %MON thSI_Tic2_min_S              =  -2.1307544993994E+00
(PID.TID 0000.0001) %MON thSI_Tic2_min_N              =  -8.1200952935532E+00
(PID.TID 0000.0001) %MON thSI_Tic2_max_S              =  -1.3163137267296E+00
(PID.TID 0000.0001) %MON thSI_Tic2_max_N              =  -1.4860141623424E+00
(PID.TID 0000.0001) // =======================================================
(PID.TID 0000.0001) // End MONITOR Therm.SeaIce statistics
(PID.TID 0000.0001) // =======================================================
 cg2d: Sum(rhs),rhsMax =  -3.46069894963108E-10  4.24896091649074E+00
(PID.TID 0000.0001)                    cg2d_init_res =    3.46437153687910E-01
(PID.TID 0000.0001)                       cg2d_iters =    65
(PID.TID 0000.0001)                         cg2d_res =    5.75147567346010E-07
(PID.TID 0000.0001) // =======================================================
(PID.TID 0000.0001) // Begin MONITOR dynamic field statistics
(PID.TID 0000.0001) // =======================================================
(PID.TID 0000.0001) %MON time_tsnumber                =                 72006
(PID.TID 0000.0001) %MON time_secondsf                =   6.2213184000000E+09
(PID.TID 0000.0001) %MON dynstat_eta_max              =   9.0783266435149E-01
(PID.TID 0000.0001) %MON dynstat_eta_min              =  -1.6071968512136E+00
(PID.TID 0000.0001) %MON dynstat_eta_mean             =   5.1474020670038E-13
(PID.TID 0000.0001) %MON dynstat_eta_sd               =   5.9523478288264E-01
(PID.TID 0000.0001) %MON dynstat_eta_del2             =   1.1104576491975E-02
(PID.TID 0000.0001) %MON dynstat_uvel_max             =   1.8666835700709E-01
(PID.TID 0000.0001) %MON dynstat_uvel_min             =  -2.8646519102892E-01
(PID.TID 0000.0001) %MON dynstat_uvel_mean            =  -4.9039975768868E-04
(PID.TID 0000.0001) %MON dynstat_uvel_sd              =   1.2035465119420E-02
(PID.TID 0000.0001) %MON dynstat_uvel_del2            =   1.5706543467346E-03
(PID.TID 0000.0001) %MON dynstat_vvel_max             =   1.7438615322602E-01
(PID.TID 0000.0001) %MON dynstat_vvel_min             =  -2.2483866033597E-01
(PID.TID 0000.0001) %MON dynstat_vvel_mean            =  -4.1402906578343E-04
(PID.TID 0000.0001) %MON dynstat_vvel_sd              =   1.2670761660184E-02
(PID.TID 0000.0001) %MON dynstat_vvel_del2            =   1.5933407006420E-03
(PID.TID 0000.0001) %MON dynstat_wvel_max             =   1.0495871571961E-04
(PID.TID 0000.0001) %MON dynstat_wvel_min             =  -2.0596517227341E-04
(PID.TID 0000.0001) %MON dynstat_wvel_mean            =   3.4754888490525E-22
(PID.TID 0000.0001) %MON dynstat_wvel_sd              =   3.9163872784059E-06
(PID.TID 0000.0001) %MON dynstat_wvel_del2            =   8.7909025879034E-07
(PID.TID 0000.0001) %MON dynstat_theta_max            =   3.0357642847679E+01
(PID.TID 0000.0001) %MON dynstat_theta_min            =  -2.0518567918926E+00
(PID.TID 0000.0001) %MON dynstat_theta_mean           =   3.9271208845227E+00
(PID.TID 0000.0001) %MON dynstat_theta_sd             =   4.5689220646533E+00
(PID.TID 0000.0001) %MON dynstat_theta_del2           =   8.6171641999878E-02
(PID.TID 0000.0001) %MON dynstat_salt_max             =   4.1437297750790E+01
(PID.TID 0000.0001) %MON dynstat_salt_min             =   1.8395752617059E+01
(PID.TID 0000.0001) %MON dynstat_salt_mean            =   3.4775441798819E+01
(PID.TID 0000.0001) %MON dynstat_salt_sd              =   5.3403748523471E-01
(PID.TID 0000.0001) %MON dynstat_salt_del2            =   1.8842390970014E-02
(PID.TID 0000.0001) %MON advcfl_uvel_max              =   8.1246962044208E-02
(PID.TID 0000.0001) %MON advcfl_vvel_max              =   7.6012467401744E-02
(PID.TID 0000.0001) %MON advcfl_wvel_max              =   6.7152418431782E-02
(PID.TID 0000.0001) %MON advcfl_W_hf_max              =   1.1816471361602E-01
(PID.TID 0000.0001) %MON pe_b_mean                    =   4.7199899715217E-04
(PID.TID 0000.0001) %MON ke_max                       =   4.0068571595162E-02
(PID.TID 0000.0001) %MON ke_mean                      =   1.4121879916644E-04
(PID.TID 0000.0001) %MON ke_vol                       =   1.3398024453628E+18
(PID.TID 0000.0001) %MON vort_r_min                   =  -1.2114188416715E-06
(PID.TID 0000.0001) %MON vort_r_max                   =   1.2238476103966E-06
(PID.TID 0000.0001) %MON vort_a_mean                  =  -2.0491686515804E-05
(PID.TID 0000.0001) %MON vort_a_sd                    =   7.5056306277979E-05
(PID.TID 0000.0001) %MON vort_p_mean                  =  -2.4712552332081E-05
(PID.TID 0000.0001) %MON vort_p_sd                    =   1.2774947986508E-04
(PID.TID 0000.0001) %MON surfExpan_theta_mean         =  -5.1504765224840E-08
(PID.TID 0000.0001) %MON surfExpan_salt_mean          =   4.6378381216293E-10
(PID.TID 0000.0001) // =======================================================
(PID.TID 0000.0001) // End MONITOR dynamic field statistics
(PID.TID 0000.0001) // =======================================================
(PID.TID 0000.0001) // =======================================================
(PID.TID 0000.0001) // Begin MONITOR Therm.SeaIce statistics
(PID.TID 0000.0001) // =======================================================
(PID.TID 0000.0001) %MON thSI_time_sec                =   6.2213184000000E+09
(PID.TID 0000.0001) %MON thSI_Ice_Area_G              =   7.5095286241336E+12
(PID.TID 0000.0001) %MON thSI_Ice_Area_S              =   1.0682036652889E+11
(PID.TID 0000.0001) %MON thSI_Ice_Area_N              =   7.4027082576047E+12
(PID.TID 0000.0001) %MON thSI_IceH_ave_G              =   6.7476933744100E-01
(PID.TID 0000.0001) %MON thSI_IceH_ave_S              =   1.1469472867717E-01
(PID.TID 0000.0001) %MON thSI_IceH_ave_N              =   6.8285116005372E-01
(PID.TID 0000.0001) %MON thSI_IceH_max_S              =   1.9494544750956E-01
(PID.TID 0000.0001) %MON thSI_IceH_max_N              =   1.0371755809044E+00
(PID.TID 0000.0001) %MON thSI_SnwH_ave_G              =   7.1449035471363E-03
(PID.TID 0000.0001) %MON thSI_SnwH_ave_S              =   5.9586505653058E-03
(PID.TID 0000.0001) %MON thSI_SnwH_ave_N              =   7.1620210633081E-03
(PID.TID 0000.0001) %MON thSI_SnwH_max_S              =   2.4702600026232E-02
(PID.TID 0000.0001) %MON thSI_SnwH_max_N              =   3.7335572861942E-02
(PID.TID 0000.0001) %MON thSI_TotEnerg_G              =  -1.6338721524921E+21
(PID.TID 0000.0001) %MON thSI_Tsrf_ave_G              =  -2.4459620769722E+01
(PID.TID 0000.0001) %MON thSI_Tsrf_ave_S              =  -8.9028643050198E-01
(PID.TID 0000.0001) %MON thSI_Tsrf_ave_N              =  -2.4799723992130E+01
(PID.TID 0000.0001) %MON thSI_Tsrf_min_S              =  -3.6908339162431E+00
(PID.TID 0000.0001) %MON thSI_Tsrf_min_N              =  -3.3080355154243E+01
(PID.TID 0000.0001) %MON thSI_Tsrf_max_S              =   0.0000000000000E+00
(PID.TID 0000.0001) %MON thSI_Tsrf_max_N              =  -1.5507390554715E+00
(PID.TID 0000.0001) %MON thSI_Tic1_ave_G              =  -1.7765894259848E+01
(PID.TID 0000.0001) %MON thSI_Tic1_ave_S              =  -1.2989218944005E+00
(PID.TID 0000.0001) %MON thSI_Tic1_ave_N              =  -1.7805805442151E+01
(PID.TID 0000.0001) %MON thSI_Tic1_min_S              =  -2.6806210179882E+00
(PID.TID 0000.0001) %MON thSI_Tic1_min_N              =  -2.3841712390894E+01
(PID.TID 0000.0001) %MON thSI_Tic1_max_S              =  -3.2230328079373E-01
(PID.TID 0000.0001) %MON thSI_Tic1_max_N              =  -1.5507390554715E+00
(PID.TID 0000.0001) %MON thSI_Tic2_ave_G              =  -6.5928855750294E+00
(PID.TID 0000.0001) %MON thSI_Tic2_ave_S              =  -1.6493104827948E+00
(PID.TID 0000.0001) %MON thSI_Tic2_ave_N              =  -6.6048673724332E+00
(PID.TID 0000.0001) %MON thSI_Tic2_min_S              =  -2.1102667721567E+00
(PID.TID 0000.0001) %MON thSI_Tic2_min_N              =  -8.4374286254805E+00
(PID.TID 0000.0001) %MON thSI_Tic2_max_S              =  -1.3175663034261E+00
(PID.TID 0000.0001) %MON thSI_Tic2_max_N              =  -1.5507390554715E+00
(PID.TID 0000.0001) // =======================================================
(PID.TID 0000.0001) // End MONITOR Therm.SeaIce statistics
(PID.TID 0000.0001) // =======================================================
 cg2d: Sum(rhs),rhsMax =  -3.46394135597450E-10  4.24581287776791E+00
(PID.TID 0000.0001)                    cg2d_init_res =    2.68404765649507E-01
(PID.TID 0000.0001)                       cg2d_iters =    65
(PID.TID 0000.0001)                         cg2d_res =    5.05456101008911E-07
(PID.TID 0000.0001) // =======================================================
(PID.TID 0000.0001) // Begin MONITOR dynamic field statistics
(PID.TID 0000.0001) // =======================================================
(PID.TID 0000.0001) %MON time_tsnumber                =                 72007
(PID.TID 0000.0001) %MON time_secondsf                =   6.2214048000000E+09
(PID.TID 0000.0001) %MON dynstat_eta_max              =   9.0649309119252E-01
(PID.TID 0000.0001) %MON dynstat_eta_min              =  -1.6064843616162E+00
(PID.TID 0000.0001) %MON dynstat_eta_mean             =   5.1475546738382E-13
(PID.TID 0000.0001) %MON dynstat_eta_sd               =   5.9487083678499E-01
(PID.TID 0000.0001) %MON dynstat_eta_del2             =   1.1087966733490E-02
(PID.TID 0000.0001) %MON dynstat_uvel_max             =   1.8675159050869E-01
(PID.TID 0000.0001) %MON dynstat_uvel_min             =  -2.8608324675051E-01
(PID.TID 0000.0001) %MON dynstat_uvel_mean            =  -4.9102146324469E-04
(PID.TID 0000.0001) %MON dynstat_uvel_sd              =   1.2038302964329E-02
(PID.TID 0000.0001) %MON dynstat_uvel_del2            =   1.5706795474946E-03
(PID.TID 0000.0001) %MON dynstat_vvel_max             =   1.7450160450486E-01
(PID.TID 0000.0001) %MON dynstat_vvel_min             =  -2.2474694276237E-01
(PID.TID 0000.0001) %MON dynstat_vvel_mean            =  -4.1391802452648E-04
(PID.TID 0000.0001) %MON dynstat_vvel_sd              =   1.2676197097397E-02
(PID.TID 0000.0001) %MON dynstat_vvel_del2            =   1.5929591782185E-03
(PID.TID 0000.0001) %MON dynstat_wvel_max             =   1.0539464863437E-04
(PID.TID 0000.0001) %MON dynstat_wvel_min             =  -2.0591368350393E-04
(PID.TID 0000.0001) %MON dynstat_wvel_mean            =  -1.0851025061986E-22
(PID.TID 0000.0001) %MON dynstat_wvel_sd              =   3.9148024161114E-06
(PID.TID 0000.0001) %MON dynstat_wvel_del2            =   8.8018951985732E-07
(PID.TID 0000.0001) %MON dynstat_theta_max            =   3.0276447125966E+01
(PID.TID 0000.0001) %MON dynstat_theta_min            =  -2.1151394486116E+00
(PID.TID 0000.0001) %MON dynstat_theta_mean           =   3.9271065731061E+00
(PID.TID 0000.0001) %MON dynstat_theta_sd             =   4.5683795382695E+00
(PID.TID 0000.0001) %MON dynstat_theta_del2           =   8.6027454535961E-02
(PID.TID 0000.0001) %MON dynstat_salt_max             =   4.1435027259564E+01
(PID.TID 0000.0001) %MON dynstat_salt_min             =   1.8396895427839E+01
(PID.TID 0000.0001) %MON dynstat_salt_mean            =   3.4775470156187E+01
(PID.TID 0000.0001) %MON dynstat_salt_sd              =   5.3392163626891E-01
(PID.TID 0000.0001) %MON dynstat_salt_del2            =   1.8827070043999E-02
(PID.TID 0000.0001) %MON advcfl_uvel_max              =   8.1138635401868E-02
(PID.TID 0000.0001) %MON advcfl_vvel_max              =   7.6062790987686E-02
(PID.TID 0000.0001) %MON advcfl_wvel_max              =   6.7135631149959E-02
(PID.TID 0000.0001) %MON advcfl_W_hf_max              =   1.1730296771422E-01
(PID.TID 0000.0001) %MON pe_b_mean                    =   4.7142198222827E-04
(PID.TID 0000.0001) %MON ke_max                       =   3.9945654492305E-02
(PID.TID 0000.0001) %MON ke_mean                      =   1.4131433969777E-04
(PID.TID 0000.0001) %MON ke_vol                       =   1.3398024453628E+18
(PID.TID 0000.0001) %MON vort_r_min                   =  -1.2167230601848E-06
(PID.TID 0000.0001) %MON vort_r_max                   =   1.2266742160573E-06
(PID.TID 0000.0001) %MON vort_a_mean                  =  -2.0491686526174E-05
(PID.TID 0000.0001) %MON vort_a_sd                    =   7.5056306293757E-05
(PID.TID 0000.0001) %MON vort_p_mean                  =  -2.4712552344589E-05
(PID.TID 0000.0001) %MON vort_p_sd                    =   1.2774948460280E-04
(PID.TID 0000.0001) %MON surfExpan_theta_mean         =  -4.0781605114822E-08
(PID.TID 0000.0001) %MON surfExpan_salt_mean          =   3.6146666812274E-10
(PID.TID 0000.0001) // =======================================================
(PID.TID 0000.0001) // End MONITOR dynamic field statistics
(PID.TID 0000.0001) // =======================================================
(PID.TID 0000.0001) // =======================================================
(PID.TID 0000.0001) // Begin MONITOR Therm.SeaIce statistics
(PID.TID 0000.0001) // =======================================================
(PID.TID 0000.0001) %MON thSI_time_sec                =   6.2214048000000E+09
(PID.TID 0000.0001) %MON thSI_Ice_Area_G              =   7.9955239829136E+12
(PID.TID 0000.0001) %MON thSI_Ice_Area_S              =   7.6994598754600E+10
(PID.TID 0000.0001) %MON thSI_Ice_Area_N              =   7.9185293841590E+12
(PID.TID 0000.0001) %MON thSI_IceH_ave_G              =   7.0650018271810E-01
(PID.TID 0000.0001) %MON thSI_IceH_ave_S              =   1.0512808078864E-01
(PID.TID 0000.0001) %MON thSI_IceH_ave_N              =   7.1234753156837E-01
(PID.TID 0000.0001) %MON thSI_IceH_max_S              =   1.9259911110100E-01
(PID.TID 0000.0001) %MON thSI_IceH_max_N              =   1.1142216550327E+00
(PID.TID 0000.0001) %MON thSI_SnwH_ave_G              =   8.6850778473398E-03
(PID.TID 0000.0001) %MON thSI_SnwH_ave_S              =   1.0065317963077E-02
(PID.TID 0000.0001) %MON thSI_SnwH_ave_N              =   8.6716572955251E-03
(PID.TID 0000.0001) %MON thSI_SnwH_max_S              =   3.0311384285947E-02
(PID.TID 0000.0001) %MON thSI_SnwH_max_N              =   4.5206807796836E-02
(PID.TID 0000.0001) %MON thSI_TotEnerg_G              =  -1.8264694349019E+21
(PID.TID 0000.0001) %MON thSI_Tsrf_ave_G              =  -2.4800176475360E+01
(PID.TID 0000.0001) %MON thSI_Tsrf_ave_S              =  -1.2426512818933E+00
(PID.TID 0000.0001) %MON thSI_Tsrf_ave_N              =  -2.5029234437000E+01
(PID.TID 0000.0001) %MON thSI_Tsrf_min_S              =  -3.7422047348198E+00
(PID.TID 0000.0001) %MON thSI_Tsrf_min_N              =  -3.3546060676520E+01
(PID.TID 0000.0001) %MON thSI_Tsrf_max_S              =   0.0000000000000E+00
(PID.TID 0000.0001) %MON thSI_Tsrf_max_N              =  -1.1096490086182E+00
(PID.TID 0000.0001) %MON thSI_Tic1_ave_G              =  -1.7978434014947E+01
(PID.TID 0000.0001) %MON thSI_Tic1_ave_S              =  -1.7317975869318E+00
(PID.TID 0000.0001) %MON thSI_Tic1_ave_N              =  -1.8001747435689E+01
(PID.TID 0000.0001) %MON thSI_Tic1_min_S              =  -2.6126343358421E+00
(PID.TID 0000.0001) %MON thSI_Tic1_min_N              =  -2.4289405565828E+01
(PID.TID 0000.0001) %MON thSI_Tic1_max_S              =  -3.4688805438555E-01
(PID.TID 0000.0001) %MON thSI_Tic1_max_N              =  -1.1096490086182E+00
(PID.TID 0000.0001) %MON thSI_Tic2_ave_G              =  -6.6787616502749E+00
(PID.TID 0000.0001) %MON thSI_Tic2_ave_S              =  -1.7922490491634E+00
(PID.TID 0000.0001) %MON thSI_Tic2_ave_N              =  -6.6857736447105E+00
(PID.TID 0000.0001) %MON thSI_Tic2_min_S              =  -2.0871268940666E+00
(PID.TID 0000.0001) %MON thSI_Tic2_min_N              =  -8.6139866443014E+00
(PID.TID 0000.0001) %MON thSI_Tic2_max_S              =  -1.3233369157906E+00
(PID.TID 0000.0001) %MON thSI_Tic2_max_N              =  -1.1096490086182E+00
(PID.TID 0000.0001) // =======================================================
(PID.TID 0000.0001) // End MONITOR Therm.SeaIce statistics
(PID.TID 0000.0001) // =======================================================
 cg2d: Sum(rhs),rhsMax =  -3.45345974039901E-10  4.24267517289609E+00
(PID.TID 0000.0001)                    cg2d_init_res =    2.85092236673061E-01
(PID.TID 0000.0001)                       cg2d_iters =    64
(PID.TID 0000.0001)                         cg2d_res =    5.34777717484684E-07
(PID.TID 0000.0001) // =======================================================
(PID.TID 0000.0001) // Begin MONITOR dynamic field statistics
(PID.TID 0000.0001) // =======================================================
(PID.TID 0000.0001) %MON time_tsnumber                =                 72008
(PID.TID 0000.0001) %MON time_secondsf                =   6.2214912000000E+09
(PID.TID 0000.0001) %MON dynstat_eta_max              =   9.0527974436106E-01
(PID.TID 0000.0001) %MON dynstat_eta_min              =  -1.6059862373876E+00
(PID.TID 0000.0001) %MON dynstat_eta_mean             =   5.1467693511227E-13
(PID.TID 0000.0001) %MON dynstat_eta_sd               =   5.9459582953111E-01
(PID.TID 0000.0001) %MON dynstat_eta_del2             =   1.1072001289793E-02
(PID.TID 0000.0001) %MON dynstat_uvel_max             =   1.8677765936594E-01
(PID.TID 0000.0001) %MON dynstat_uvel_min             =  -2.8568394352026E-01
(PID.TID 0000.0001) %MON dynstat_uvel_mean            =  -4.9160272035341E-04
(PID.TID 0000.0001) %MON dynstat_uvel_sd              =   1.2041550994937E-02
(PID.TID 0000.0001) %MON dynstat_uvel_del2            =   1.5706319913585E-03
(PID.TID 0000.0001) %MON dynstat_vvel_max             =   1.7458495719032E-01
(PID.TID 0000.0001) %MON dynstat_vvel_min             =  -2.2464901762680E-01
(PID.TID 0000.0001) %MON dynstat_vvel_mean            =  -4.1370060591796E-04
(PID.TID 0000.0001) %MON dynstat_vvel_sd              =   1.2681632455052E-02
(PID.TID 0000.0001) %MON dynstat_vvel_del2            =   1.5926724947810E-03
(PID.TID 0000.0001) %MON dynstat_wvel_max             =   1.0586876044313E-04
(PID.TID 0000.0001) %MON dynstat_wvel_min             =  -2.0581072514998E-04
(PID.TID 0000.0001) %MON dynstat_wvel_mean            =  -9.2310380466907E-23
(PID.TID 0000.0001) %MON dynstat_wvel_sd              =   3.9129034081787E-06
(PID.TID 0000.0001) %MON dynstat_wvel_del2            =   8.8092366528078E-07
(PID.TID 0000.0001) %MON dynstat_theta_max            =   3.0198599114700E+01
(PID.TID 0000.0001) %MON dynstat_theta_min            =  -2.1062523001837E+00
(PID.TID 0000.0001) %MON dynstat_theta_mean           =   3.9271052454057E+00
(PID.TID 0000.0001) %MON dynstat_theta_sd             =   4.5678850330821E+00
(PID.TID 0000.0001) %MON dynstat_theta_del2           =   8.5910386423936E-02
(PID.TID 0000.0001) %MON dynstat_salt_max             =   4.1432467606885E+01
(PID.TID 0000.0001) %MON dynstat_salt_min             =   1.8398010583508E+01
(PID.TID 0000.0001) %MON dynstat_salt_mean            =   3.4775498252859E+01
(PID.TID 0000.0001) %MON dynstat_salt_sd              =   5.3380372068804E-01
(PID.TID 0000.0001) %MON dynstat_salt_del2            =   1.8811690359768E-02
(PID.TID 0000.0001) %MON advcfl_uvel_max              =   8.1025385431513E-02
(PID.TID 0000.0001) %MON advcfl_vvel_max              =   7.6099123248989E-02
(PID.TID 0000.0001) %MON advcfl_wvel_max              =   6.7102062841352E-02
(PID.TID 0000.0001) %MON advcfl_W_hf_max              =   1.1638202946570E-01
(PID.TID 0000.0001) %MON pe_b_mean                    =   4.7098620864657E-04
(PID.TID 0000.0001) %MON ke_max                       =   3.9820046196673E-02
(PID.TID 0000.0001) %MON ke_mean                      =   1.4141439487534E-04
(PID.TID 0000.0001) %MON ke_vol                       =   1.3398024453628E+18
(PID.TID 0000.0001) %MON vort_r_min                   =  -1.2221666967318E-06
(PID.TID 0000.0001) %MON vort_r_max                   =   1.2296447057937E-06
(PID.TID 0000.0001) %MON vort_a_mean                  =  -2.0491686536856E-05
(PID.TID 0000.0001) %MON vort_a_sd                    =   7.5056306337557E-05
(PID.TID 0000.0001) %MON vort_p_mean                  =  -2.4712552357470E-05
(PID.TID 0000.0001) %MON vort_p_sd                    =   1.2774948983025E-04
(PID.TID 0000.0001) %MON surfExpan_theta_mean         =  -3.2442853543729E-08
(PID.TID 0000.0001) %MON surfExpan_salt_mean          =   7.1611685722197E-12
(PID.TID 0000.0001) // =======================================================
(PID.TID 0000.0001) // End MONITOR dynamic field statistics
(PID.TID 0000.0001) // =======================================================
(PID.TID 0000.0001) // =======================================================
(PID.TID 0000.0001) // Begin MONITOR Therm.SeaIce statistics
(PID.TID 0000.0001) // =======================================================
(PID.TID 0000.0001) %MON thSI_time_sec                =   6.2214912000000E+09
(PID.TID 0000.0001) %MON thSI_Ice_Area_G              =   8.3707097154735E+12
(PID.TID 0000.0001) %MON thSI_Ice_Area_S              =   4.0065522723816E+10
(PID.TID 0000.0001) %MON thSI_Ice_Area_N              =   8.3306441927496E+12
(PID.TID 0000.0001) %MON thSI_IceH_ave_G              =   7.4479437361788E-01
(PID.TID 0000.0001) %MON thSI_IceH_ave_S              =   1.3385419509697E-01
(PID.TID 0000.0001) %MON thSI_IceH_ave_N              =   7.4773263829934E-01
(PID.TID 0000.0001) %MON thSI_IceH_max_S              =   1.8916017275314E-01
(PID.TID 0000.0001) %MON thSI_IceH_max_N              =   1.1861338552090E+00
(PID.TID 0000.0001) %MON thSI_SnwH_ave_G              =   1.0270979744067E-02
(PID.TID 0000.0001) %MON thSI_SnwH_ave_S              =   2.2659125533186E-02
(PID.TID 0000.0001) %MON thSI_SnwH_ave_N              =   1.0211400013480E-02
(PID.TID 0000.0001) %MON thSI_SnwH_max_S              =   3.5919257720274E-02
(PID.TID 0000.0001) %MON thSI_SnwH_max_N              =   5.2989520327530E-02
(PID.TID 0000.0001) %MON thSI_TotEnerg_G              =  -2.0198771225097E+21
(PID.TID 0000.0001) %MON thSI_Tsrf_ave_G              =  -2.5540156004020E+01
(PID.TID 0000.0001) %MON thSI_Tsrf_ave_S              =  -2.3883758472629E+00
(PID.TID 0000.0001) %MON thSI_Tsrf_ave_N              =  -2.5651502516067E+01
(PID.TID 0000.0001) %MON thSI_Tsrf_min_S              =  -3.7860546500381E+00
(PID.TID 0000.0001) %MON thSI_Tsrf_min_N              =  -3.3851447287728E+01
(PID.TID 0000.0001) %MON thSI_Tsrf_max_S              =   0.0000000000000E+00
(PID.TID 0000.0001) %MON thSI_Tsrf_max_N              =  -1.4130623965225E+00
(PID.TID 0000.0001) %MON thSI_Tic1_ave_G              =  -1.8272990946915E+01
(PID.TID 0000.0001) %MON thSI_Tic1_ave_S              =  -2.3158411617237E+00
(PID.TID 0000.0001) %MON thSI_Tic1_ave_N              =  -1.8286729253314E+01
(PID.TID 0000.0001) %MON thSI_Tic1_min_S              =  -2.5499635764131E+00
(PID.TID 0000.0001) %MON thSI_Tic1_min_N              =  -2.4579610193112E+01
(PID.TID 0000.0001) %MON thSI_Tic1_max_S              =  -3.8472943113541E-01
(PID.TID 0000.0001) %MON thSI_Tic1_max_N              =  -1.4130623965225E+00
(PID.TID 0000.0001) %MON thSI_Tic2_ave_G              =  -6.8038841179441E+00
(PID.TID 0000.0001) %MON thSI_Tic2_ave_S              =  -1.9876086656801E+00
(PID.TID 0000.0001) %MON thSI_Tic2_ave_N              =  -6.8080306897790E+00
(PID.TID 0000.0001) %MON thSI_Tic2_min_S              =  -2.0655921462135E+00
(PID.TID 0000.0001) %MON thSI_Tic2_min_N              =  -9.0836301023891E+00
(PID.TID 0000.0001) %MON thSI_Tic2_max_S              =  -1.3423729238695E+00
(PID.TID 0000.0001) %MON thSI_Tic2_max_N              =  -1.4130623965225E+00
(PID.TID 0000.0001) // =======================================================
(PID.TID 0000.0001) // End MONITOR Therm.SeaIce statistics
(PID.TID 0000.0001) // =======================================================
 cg2d: Sum(rhs),rhsMax =  -3.46102868586939E-10  4.23958398538250E+00
(PID.TID 0000.0001)                    cg2d_init_res =    2.28504493413673E-01
(PID.TID 0000.0001)                       cg2d_iters =    62
(PID.TID 0000.0001)                         cg2d_res =    5.28452051056202E-07
(PID.TID 0000.0001) // =======================================================
(PID.TID 0000.0001) // Begin MONITOR dynamic field statistics
(PID.TID 0000.0001) // =======================================================
(PID.TID 0000.0001) %MON time_tsnumber                =                 72009
(PID.TID 0000.0001) %MON time_secondsf                =   6.2215776000000E+09
(PID.TID 0000.0001) %MON dynstat_eta_max              =   9.0409528788492E-01
(PID.TID 0000.0001) %MON dynstat_eta_min              =  -1.6056685433109E+00
(PID.TID 0000.0001) %MON dynstat_eta_mean             =   5.1446740018024E-13
(PID.TID 0000.0001) %MON dynstat_eta_sd               =   5.9438725661377E-01
(PID.TID 0000.0001) %MON dynstat_eta_del2             =   1.1059062171590E-02
(PID.TID 0000.0001) %MON dynstat_uvel_max             =   1.8674553348966E-01
(PID.TID 0000.0001) %MON dynstat_uvel_min             =  -2.8526724021984E-01
(PID.TID 0000.0001) %MON dynstat_uvel_mean            =  -4.9200899380540E-04
(PID.TID 0000.0001) %MON dynstat_uvel_sd              =   1.2045173988284E-02
(PID.TID 0000.0001) %MON dynstat_uvel_del2            =   1.5704826540186E-03
(PID.TID 0000.0001) %MON dynstat_vvel_max             =   1.7463635567521E-01
(PID.TID 0000.0001) %MON dynstat_vvel_min             =  -2.2454598088881E-01
(PID.TID 0000.0001) %MON dynstat_vvel_mean            =  -4.1349845941598E-04
(PID.TID 0000.0001) %MON dynstat_vvel_sd              =   1.2686988178551E-02
(PID.TID 0000.0001) %MON dynstat_vvel_del2            =   1.5923540121550E-03
(PID.TID 0000.0001) %MON dynstat_wvel_max             =   1.0637116070122E-04
(PID.TID 0000.0001) %MON dynstat_wvel_min             =  -2.0566068429705E-04
(PID.TID 0000.0001) %MON dynstat_wvel_mean            =   4.6285913218687E-23
(PID.TID 0000.0001) %MON dynstat_wvel_sd              =   3.9107098097729E-06
(PID.TID 0000.0001) %MON dynstat_wvel_del2            =   8.8098543919102E-07
(PID.TID 0000.0001) %MON dynstat_theta_max            =   3.0163000956965E+01
(PID.TID 0000.0001) %MON dynstat_theta_min            =  -2.1342197994122E+00
(PID.TID 0000.0001) %MON dynstat_theta_mean           =   3.9271135401147E+00
(PID.TID 0000.0001) %MON dynstat_theta_sd             =   4.5674366490634E+00
(PID.TID 0000.0001) %MON dynstat_theta_del2           =   8.5801428130977E-02
(PID.TID 0000.0001) %MON dynstat_salt_max             =   4.1429607423172E+01
(PID.TID 0000.0001) %MON dynstat_salt_min             =   1.8399102495668E+01
(PID.TID 0000.0001) %MON dynstat_salt_mean            =   3.4775525600065E+01
(PID.TID 0000.0001) %MON dynstat_salt_sd              =   5.3369668105065E-01
(PID.TID 0000.0001) %MON dynstat_salt_del2            =   1.8795509536348E-02
(PID.TID 0000.0001) %MON advcfl_uvel_max              =   8.0907200471198E-02
(PID.TID 0000.0001) %MON advcfl_vvel_max              =   7.6121527124439E-02
(PID.TID 0000.0001) %MON advcfl_wvel_max              =   6.7053143861379E-02
(PID.TID 0000.0001) %MON advcfl_W_hf_max              =   1.1540551756515E-01
(PID.TID 0000.0001) %MON pe_b_mean                    =   4.7065584057734E-04
(PID.TID 0000.0001) %MON ke_max                       =   3.9691676375952E-02
(PID.TID 0000.0001) %MON ke_mean                      =   1.4151762775212E-04
(PID.TID 0000.0001) %MON ke_vol                       =   1.3398024453628E+18
(PID.TID 0000.0001) %MON vort_r_min                   =  -1.2277207698757E-06
(PID.TID 0000.0001) %MON vort_r_max                   =   1.2327234593561E-06
(PID.TID 0000.0001) %MON vort_a_mean                  =  -2.0491686547911E-05
(PID.TID 0000.0001) %MON vort_a_sd                    =   7.5056306388860E-05
(PID.TID 0000.0001) %MON vort_p_mean                  =  -2.4712552370803E-05
(PID.TID 0000.0001) %MON vort_p_sd                    =   1.2774949522667E-04
(PID.TID 0000.0001) %MON surfExpan_theta_mean         =  -2.7459079710892E-08
(PID.TID 0000.0001) %MON surfExpan_salt_mean          =  -2.5692385515559E-10
(PID.TID 0000.0001) // =======================================================
(PID.TID 0000.0001) // End MONITOR dynamic field statistics
(PID.TID 0000.0001) // =======================================================
(PID.TID 0000.0001) // =======================================================
(PID.TID 0000.0001) // Begin MONITOR Therm.SeaIce statistics
(PID.TID 0000.0001) // =======================================================
(PID.TID 0000.0001) %MON thSI_time_sec                =   6.2215776000000E+09
(PID.TID 0000.0001) %MON thSI_Ice_Area_G              =   8.7361220327961E+12
(PID.TID 0000.0001) %MON thSI_Ice_Area_S              =   2.4888584510573E+10
(PID.TID 0000.0001) %MON thSI_Ice_Area_N              =   8.7112334482855E+12
(PID.TID 0000.0001) %MON thSI_IceH_ave_G              =   7.7811124604438E-01
(PID.TID 0000.0001) %MON thSI_IceH_ave_S              =   1.8462431674821E-01
(PID.TID 0000.0001) %MON thSI_IceH_ave_N              =   7.7980687843484E-01
(PID.TID 0000.0001) %MON thSI_IceH_max_S              =   1.8462431674821E-01
(PID.TID 0000.0001) %MON thSI_IceH_max_N              =   1.2537176618932E+00
(PID.TID 0000.0001) %MON thSI_SnwH_ave_G              =   1.1816681483679E-02
(PID.TID 0000.0001) %MON thSI_SnwH_ave_S              =   4.1522201989662E-02
(PID.TID 0000.0001) %MON thSI_SnwH_ave_N              =   1.1731810797807E-02
(PID.TID 0000.0001) %MON thSI_SnwH_max_S              =   4.1522201989662E-02
(PID.TID 0000.0001) %MON thSI_SnwH_max_N              =   6.2233646390860E-02
(PID.TID 0000.0001) %MON thSI_TotEnerg_G              =  -2.2058867560168E+21
(PID.TID 0000.0001) %MON thSI_Tsrf_ave_G              =  -2.5949413075433E+01
(PID.TID 0000.0001) %MON thSI_Tsrf_ave_S              =  -3.8244644215546E+00
(PID.TID 0000.0001) %MON thSI_Tsrf_ave_N              =  -2.6012625553624E+01
(PID.TID 0000.0001) %MON thSI_Tsrf_min_S              =  -3.8244644215546E+00
(PID.TID 0000.0001) %MON thSI_Tsrf_min_N              =  -3.4125585948503E+01
(PID.TID 0000.0001) %MON thSI_Tsrf_max_S              =  -3.8244644215546E+00
(PID.TID 0000.0001) %MON thSI_Tsrf_max_N              =  -1.6108646112428E+00
(PID.TID 0000.0001) %MON thSI_Tic1_ave_G              =  -1.8411943068730E+01
(PID.TID 0000.0001) %MON thSI_Tic1_ave_S              =  -2.4926366487587E+00
(PID.TID 0000.0001) %MON thSI_Tic1_ave_N              =  -1.8422711353375E+01
(PID.TID 0000.0001) %MON thSI_Tic1_min_S              =  -2.4926366487587E+00
(PID.TID 0000.0001) %MON thSI_Tic1_min_N              =  -2.4796580852366E+01
(PID.TID 0000.0001) %MON thSI_Tic1_max_S              =  -2.4926366487587E+00
(PID.TID 0000.0001) %MON thSI_Tic1_max_N              =  -1.6108646112428E+00
(PID.TID 0000.0001) %MON thSI_Tic2_ave_G              =  -6.8615452564961E+00
(PID.TID 0000.0001) %MON thSI_Tic2_ave_S              =  -2.0457822205926E+00
(PID.TID 0000.0001) %MON thSI_Tic2_ave_N              =  -6.8648027795179E+00
(PID.TID 0000.0001) %MON thSI_Tic2_min_S              =  -2.0457822205926E+00
(PID.TID 0000.0001) %MON thSI_Tic2_min_N              =  -9.3255122244834E+00
(PID.TID 0000.0001) %MON thSI_Tic2_max_S              =  -2.0457822205926E+00
(PID.TID 0000.0001) %MON thSI_Tic2_max_N              =  -1.6108646112428E+00
(PID.TID 0000.0001) // =======================================================
(PID.TID 0000.0001) // End MONITOR Therm.SeaIce statistics
(PID.TID 0000.0001) // =======================================================
 cg2d: Sum(rhs),rhsMax =  -3.46238426818246E-10  4.23659018291687E+00
(PID.TID 0000.0001)                    cg2d_init_res =    2.20450282480628E-01
(PID.TID 0000.0001)                       cg2d_iters =    61
(PID.TID 0000.0001)                         cg2d_res =    5.00780823379776E-07
(PID.TID 0000.0001) // =======================================================
(PID.TID 0000.0001) // Begin MONITOR dynamic field statistics
(PID.TID 0000.0001) // =======================================================
(PID.TID 0000.0001) %MON time_tsnumber                =                 72010
(PID.TID 0000.0001) %MON time_secondsf                =   6.2216640000000E+09
(PID.TID 0000.0001) %MON dynstat_eta_max              =   9.0296994698061E-01
(PID.TID 0000.0001) %MON dynstat_eta_min              =  -1.6054740284994E+00
(PID.TID 0000.0001) %MON dynstat_eta_mean             =   5.1499725180378E-13
(PID.TID 0000.0001) %MON dynstat_eta_sd               =   5.9422195529037E-01
(PID.TID 0000.0001) %MON dynstat_eta_del2             =   1.1046831620936E-02
(PID.TID 0000.0001) %MON dynstat_uvel_max             =   1.8665505031170E-01
(PID.TID 0000.0001) %MON dynstat_uvel_min             =  -2.8483292802487E-01
(PID.TID 0000.0001) %MON dynstat_uvel_mean            =  -4.9212134384471E-04
(PID.TID 0000.0001) %MON dynstat_uvel_sd              =   1.2049124960072E-02
(PID.TID 0000.0001) %MON dynstat_uvel_del2            =   1.5702534951495E-03
(PID.TID 0000.0001) %MON dynstat_vvel_max             =   1.7465580358058E-01
(PID.TID 0000.0001) %MON dynstat_vvel_min             =  -2.2443875930719E-01
(PID.TID 0000.0001) %MON dynstat_vvel_mean            =  -4.1340619437543E-04
(PID.TID 0000.0001) %MON dynstat_vvel_sd              =   1.2692177963063E-02
(PID.TID 0000.0001) %MON dynstat_vvel_del2            =   1.5919828343000E-03
(PID.TID 0000.0001) %MON dynstat_wvel_max             =   1.0689054906138E-04
(PID.TID 0000.0001) %MON dynstat_wvel_min             =  -2.0545986752902E-04
(PID.TID 0000.0001) %MON dynstat_wvel_mean            =  -6.8571254282690E-22
(PID.TID 0000.0001) %MON dynstat_wvel_sd              =   3.9081922252462E-06
(PID.TID 0000.0001) %MON dynstat_wvel_del2            =   8.8044383933127E-07
(PID.TID 0000.0001) %MON dynstat_theta_max            =   3.0141531220470E+01
(PID.TID 0000.0001) %MON dynstat_theta_min            =  -2.1621797192568E+00
(PID.TID 0000.0001) %MON dynstat_theta_mean           =   3.9271285307706E+00
(PID.TID 0000.0001) %MON dynstat_theta_sd             =   4.5670344937009E+00
(PID.TID 0000.0001) %MON dynstat_theta_del2           =   8.5735833930829E-02
(PID.TID 0000.0001) %MON dynstat_salt_max             =   4.1426439470069E+01
(PID.TID 0000.0001) %MON dynstat_salt_min             =   1.8400176379686E+01
(PID.TID 0000.0001) %MON dynstat_salt_mean            =   3.4775551597591E+01
(PID.TID 0000.0001) %MON dynstat_salt_sd              =   5.3360266020696E-01
(PID.TID 0000.0001) %MON dynstat_salt_del2            =   1.8781988709317E-02
(PID.TID 0000.0001) %MON advcfl_uvel_max              =   8.0784021294375E-02
(PID.TID 0000.0001) %MON advcfl_vvel_max              =   7.6130004192405E-02
(PID.TID 0000.0001) %MON advcfl_wvel_max              =   6.6987670017010E-02
(PID.TID 0000.0001) %MON advcfl_W_hf_max              =   1.1437828637567E-01
(PID.TID 0000.0001) %MON pe_b_mean                    =   4.7039409467277E-04
(PID.TID 0000.0001) %MON ke_max                       =   3.9560414694554E-02
(PID.TID 0000.0001) %MON ke_mean                      =   1.4162248665200E-04
(PID.TID 0000.0001) %MON ke_vol                       =   1.3398024453628E+18
(PID.TID 0000.0001) %MON vort_r_min                   =  -1.2333570057980E-06
(PID.TID 0000.0001) %MON vort_r_max                   =   1.2358739304104E-06
(PID.TID 0000.0001) %MON vort_a_mean                  =  -2.0491686559205E-05
(PID.TID 0000.0001) %MON vort_a_sd                    =   7.5056306433925E-05
(PID.TID 0000.0001) %MON vort_p_mean                  =  -2.4712552384423E-05
(PID.TID 0000.0001) %MON vort_p_sd                    =   1.2774950078662E-04
(PID.TID 0000.0001) %MON surfExpan_theta_mean         =  -2.5326229086549E-08
(PID.TID 0000.0001) %MON surfExpan_salt_mean          =  -3.7399840753939E-10
(PID.TID 0000.0001) // =======================================================
(PID.TID 0000.0001) // End MONITOR dynamic field statistics
(PID.TID 0000.0001) // =======================================================
(PID.TID 0000.0001) // =======================================================
(PID.TID 0000.0001) // Begin MONITOR Therm.SeaIce statistics
(PID.TID 0000.0001) // =======================================================
(PID.TID 0000.0001) %MON thSI_time_sec                =   6.2216640000000E+09
(PID.TID 0000.0001) %MON thSI_Ice_Area_G              =   8.9810328618397E+12
(PID.TID 0000.0001) %MON thSI_Ice_Area_S              =   2.4407409985404E+10
(PID.TID 0000.0001) %MON thSI_Ice_Area_N              =   8.9566254518543E+12
(PID.TID 0000.0001) %MON thSI_IceH_ave_G              =   8.1367164024714E-01
(PID.TID 0000.0001) %MON thSI_IceH_ave_S              =   1.7898980845041E-01
(PID.TID 0000.0001) %MON thSI_IceH_ave_N              =   8.1540119115471E-01
(PID.TID 0000.0001) %MON thSI_IceH_max_S              =   1.7898980845041E-01
(PID.TID 0000.0001) %MON thSI_IceH_max_N              =   1.3249211512106E+00
(PID.TID 0000.0001) %MON thSI_SnwH_ave_G              =   1.3518244743742E-02
(PID.TID 0000.0001) %MON thSI_SnwH_ave_S              =   4.7117399075872E-02
(PID.TID 0000.0001) %MON thSI_SnwH_ave_N              =   1.3426684776279E-02
(PID.TID 0000.0001) %MON thSI_SnwH_max_S              =   4.7117399075872E-02
(PID.TID 0000.0001) %MON thSI_SnwH_max_N              =   7.4630677332538E-02
(PID.TID 0000.0001) %MON thSI_TotEnerg_G              =  -2.3749349684050E+21
(PID.TID 0000.0001) %MON thSI_Tsrf_ave_G              =  -2.6321519628786E+01
(PID.TID 0000.0001) %MON thSI_Tsrf_ave_S              =  -3.8585915776820E+00
(PID.TID 0000.0001) %MON thSI_Tsrf_ave_N              =  -2.6382732626623E+01
(PID.TID 0000.0001) %MON thSI_Tsrf_min_S              =  -3.8585915776820E+00
(PID.TID 0000.0001) %MON thSI_Tsrf_min_N              =  -3.4369321567471E+01
(PID.TID 0000.0001) %MON thSI_Tsrf_max_S              =  -3.8585915776820E+00
(PID.TID 0000.0001) %MON thSI_Tsrf_max_N              =  -1.6190117595265E+00
(PID.TID 0000.0001) %MON thSI_Tic1_ave_G              =  -1.8531616102418E+01
(PID.TID 0000.0001) %MON thSI_Tic1_ave_S              =  -2.4395926368524E+00
(PID.TID 0000.0001) %MON thSI_Tic1_ave_N              =  -1.8541242081242E+01
(PID.TID 0000.0001) %MON thSI_Tic1_min_S              =  -2.4395926368524E+00
(PID.TID 0000.0001) %MON thSI_Tic1_min_N              =  -2.4961113671073E+01
(PID.TID 0000.0001) %MON thSI_Tic1_max_S              =  -2.4395926368524E+00
(PID.TID 0000.0001) %MON thSI_Tic1_max_N              =  -1.6190117595265E+00
(PID.TID 0000.0001) %MON thSI_Tic2_ave_G              =  -6.9122515086444E+00
(PID.TID 0000.0001) %MON thSI_Tic2_ave_S              =  -2.0273953914719E+00
(PID.TID 0000.0001) %MON thSI_Tic2_ave_N              =  -6.9151735477307E+00
(PID.TID 0000.0001) %MON thSI_Tic2_min_S              =  -2.0273953914719E+00
(PID.TID 0000.0001) %MON thSI_Tic2_min_N              =  -9.4411689010965E+00
(PID.TID 0000.0001) %MON thSI_Tic2_max_S              =  -2.0273953914719E+00
(PID.TID 0000.0001) %MON thSI_Tic2_max_N              =  -1.6190117595265E+00
(PID.TID 0000.0001) // =======================================================
(PID.TID 0000.0001) // End MONITOR Therm.SeaIce statistics
(PID.TID 0000.0001) // =======================================================
 cg2d: Sum(rhs),rhsMax =  -3.46048523169884E-10  4.23374918801640E+00
(PID.TID 0000.0001)                    cg2d_init_res =    2.12145860398624E-01
(PID.TID 0000.0001)                       cg2d_iters =    61
(PID.TID 0000.0001)                         cg2d_res =    5.70574424903226E-07
(PID.TID 0000.0001) // =======================================================
(PID.TID 0000.0001) // Begin MONITOR dynamic field statistics
(PID.TID 0000.0001) // =======================================================
(PID.TID 0000.0001) %MON time_tsnumber                =                 72011
(PID.TID 0000.0001) %MON time_secondsf                =   6.2217504000000E+09
(PID.TID 0000.0001) %MON dynstat_eta_max              =   9.0187818297877E-01
(PID.TID 0000.0001) %MON dynstat_eta_min              =  -1.6053389039648E+00
(PID.TID 0000.0001) %MON dynstat_eta_mean             =   5.1467871696135E-13
(PID.TID 0000.0001) %MON dynstat_eta_sd               =   5.9407934170215E-01
(PID.TID 0000.0001) %MON dynstat_eta_del2             =   1.1030358853866E-02
(PID.TID 0000.0001) %MON dynstat_uvel_max             =   1.8650686949863E-01
(PID.TID 0000.0001) %MON dynstat_uvel_min             =  -2.8438076081057E-01
(PID.TID 0000.0001) %MON dynstat_uvel_mean            =  -4.9190990359223E-04
(PID.TID 0000.0001) %MON dynstat_uvel_sd              =   1.2053349847151E-02
(PID.TID 0000.0001) %MON dynstat_uvel_del2            =   1.5700136675570E-03
(PID.TID 0000.0001) %MON dynstat_vvel_max             =   1.7464326983733E-01
(PID.TID 0000.0001) %MON dynstat_vvel_min             =  -2.2432807008299E-01
(PID.TID 0000.0001) %MON dynstat_vvel_mean            =  -4.1346422528653E-04
(PID.TID 0000.0001) %MON dynstat_vvel_sd              =   1.2697126856711E-02
(PID.TID 0000.0001) %MON dynstat_vvel_del2            =   1.5918045224723E-03
(PID.TID 0000.0001) %MON dynstat_wvel_max             =   1.0742508151082E-04
(PID.TID 0000.0001) %MON dynstat_wvel_min             =  -2.0521160843172E-04
(PID.TID 0000.0001) %MON dynstat_wvel_mean            =   4.3659858592735E-23
(PID.TID 0000.0001) %MON dynstat_wvel_sd              =   3.9054193813049E-06
(PID.TID 0000.0001) %MON dynstat_wvel_del2            =   8.7980606889852E-07
(PID.TID 0000.0001) %MON dynstat_theta_max            =   3.0119889500451E+01
(PID.TID 0000.0001) %MON dynstat_theta_min            =  -2.1901274696796E+00
(PID.TID 0000.0001) %MON dynstat_theta_mean           =   3.9271520472608E+00
(PID.TID 0000.0001) %MON dynstat_theta_sd             =   4.5666704159186E+00
(PID.TID 0000.0001) %MON dynstat_theta_del2           =   8.5712023093023E-02
(PID.TID 0000.0001) %MON dynstat_salt_max             =   4.1422964802736E+01
(PID.TID 0000.0001) %MON dynstat_salt_min             =   1.8401238939972E+01
(PID.TID 0000.0001) %MON dynstat_salt_mean            =   3.4775577629189E+01
(PID.TID 0000.0001) %MON dynstat_salt_sd              =   5.3350680631964E-01
(PID.TID 0000.0001) %MON dynstat_salt_del2            =   1.8769510530341E-02
(PID.TID 0000.0001) %MON advcfl_uvel_max              =   8.0655778095379E-02
(PID.TID 0000.0001) %MON advcfl_vvel_max              =   7.6124540910298E-02
(PID.TID 0000.0001) %MON advcfl_wvel_max              =   6.6906728183020E-02
(PID.TID 0000.0001) %MON advcfl_W_hf_max              =   1.1420919859302E-01
(PID.TID 0000.0001) %MON pe_b_mean                    =   4.7016833209718E-04
(PID.TID 0000.0001) %MON ke_max                       =   3.9426115795875E-02
(PID.TID 0000.0001) %MON ke_mean                      =   1.4172749280361E-04
(PID.TID 0000.0001) %MON ke_vol                       =   1.3398024453628E+18
(PID.TID 0000.0001) %MON vort_r_min                   =  -1.2390476700608E-06
(PID.TID 0000.0001) %MON vort_r_max                   =   1.2390614134979E-06
(PID.TID 0000.0001) %MON vort_a_mean                  =  -2.0491686570507E-05
(PID.TID 0000.0001) %MON vort_a_sd                    =   7.5056306464808E-05
(PID.TID 0000.0001) %MON vort_p_mean                  =  -2.4712552398053E-05
(PID.TID 0000.0001) %MON vort_p_sd                    =   1.2774950641762E-04
(PID.TID 0000.0001) %MON surfExpan_theta_mean         =  -2.5046031906079E-08
(PID.TID 0000.0001) %MON surfExpan_salt_mean          =  -2.0569177317891E-10
(PID.TID 0000.0001) // =======================================================
(PID.TID 0000.0001) // End MONITOR dynamic field statistics
(PID.TID 0000.0001) // =======================================================
(PID.TID 0000.0001) // =======================================================
(PID.TID 0000.0001) // Begin MONITOR Therm.SeaIce statistics
(PID.TID 0000.0001) // =======================================================
(PID.TID 0000.0001) %MON thSI_time_sec                =   6.2217504000000E+09
(PID.TID 0000.0001) %MON thSI_Ice_Area_G              =   9.3902967711341E+12
(PID.TID 0000.0001) %MON thSI_Ice_Area_S              =   2.3829686763104E+10
(PID.TID 0000.0001) %MON thSI_Ice_Area_N              =   9.3664670843710E+12
(PID.TID 0000.0001) %MON thSI_IceH_ave_G              =   8.3401974477823E-01
(PID.TID 0000.0001) %MON thSI_IceH_ave_S              =   1.7225867274920E-01
(PID.TID 0000.0001) %MON thSI_IceH_ave_N              =   8.3570336346993E-01
(PID.TID 0000.0001) %MON thSI_IceH_max_S              =   1.7225867274920E-01
(PID.TID 0000.0001) %MON thSI_IceH_max_N              =   1.3983010462295E+00
(PID.TID 0000.0001) %MON thSI_SnwH_ave_G              =   1.4946926926201E-02
(PID.TID 0000.0001) %MON thSI_SnwH_ave_S              =   5.2702707296543E-02
(PID.TID 0000.0001) %MON thSI_SnwH_ave_N              =   1.4850870599774E-02
(PID.TID 0000.0001) %MON thSI_SnwH_max_S              =   5.2702707296543E-02
(PID.TID 0000.0001) %MON thSI_SnwH_max_N              =   8.7105600973134E-02
(PID.TID 0000.0001) %MON thSI_TotEnerg_G              =  -2.5470632452448E+21
(PID.TID 0000.0001) %MON thSI_Tsrf_ave_G              =  -2.6092553170331E+01
(PID.TID 0000.0001) %MON thSI_Tsrf_ave_S              =  -3.8892346010957E+00
(PID.TID 0000.0001) %MON thSI_Tsrf_ave_N              =  -2.6149041718451E+01
(PID.TID 0000.0001) %MON thSI_Tsrf_min_S              =  -3.8892346010957E+00
(PID.TID 0000.0001) %MON thSI_Tsrf_min_N              =  -3.4592434565490E+01
(PID.TID 0000.0001) %MON thSI_Tsrf_max_S              =  -3.8892346010957E+00
(PID.TID 0000.0001) %MON thSI_Tsrf_max_N              =  -1.5978995522555E+00
(PID.TID 0000.0001) %MON thSI_Tic1_ave_G              =  -1.8518452781357E+01
(PID.TID 0000.0001) %MON thSI_Tic1_ave_S              =  -2.3898314403761E+00
(PID.TID 0000.0001) %MON thSI_Tic1_ave_N              =  -1.8526910801496E+01
(PID.TID 0000.0001) %MON thSI_Tic1_min_S              =  -2.3898314403761E+00
(PID.TID 0000.0001) %MON thSI_Tic1_min_N              =  -2.5079812598388E+01
(PID.TID 0000.0001) %MON thSI_Tic1_max_S              =  -2.3898314403761E+00
(PID.TID 0000.0001) %MON thSI_Tic1_max_N              =  -1.5978995522555E+00
(PID.TID 0000.0001) %MON thSI_Tic2_ave_G              =  -6.9207258796329E+00
(PID.TID 0000.0001) %MON thSI_Tic2_ave_S              =  -2.0101160400154E+00
(PID.TID 0000.0001) %MON thSI_Tic2_ave_N              =  -6.9233010555292E+00
(PID.TID 0000.0001) %MON thSI_Tic2_min_S              =  -2.0101160400154E+00
(PID.TID 0000.0001) %MON thSI_Tic2_min_N              =  -9.4916504506743E+00
(PID.TID 0000.0001) %MON thSI_Tic2_max_S              =  -2.0101160400154E+00
(PID.TID 0000.0001) %MON thSI_Tic2_max_N              =  -1.5978995522555E+00
(PID.TID 0000.0001) // =======================================================
(PID.TID 0000.0001) // End MONITOR Therm.SeaIce statistics
(PID.TID 0000.0001) // =======================================================
 cg2d: Sum(rhs),rhsMax =  -3.45766471010478E-10  4.23111141113371E+00
(PID.TID 0000.0001)                    cg2d_init_res =    2.06486639818701E-01
(PID.TID 0000.0001)                       cg2d_iters =    62
(PID.TID 0000.0001)                         cg2d_res =    5.48257987121934E-07
(PID.TID 0000.0001) // =======================================================
(PID.TID 0000.0001) // Begin MONITOR dynamic field statistics
(PID.TID 0000.0001) // =======================================================
(PID.TID 0000.0001) %MON time_tsnumber                =                 72012
(PID.TID 0000.0001) %MON time_secondsf                =   6.2218368000000E+09
(PID.TID 0000.0001) %MON dynstat_eta_max              =   9.0081482432118E-01
(PID.TID 0000.0001) %MON dynstat_eta_min              =  -1.6052071126415E+00
(PID.TID 0000.0001) %MON dynstat_eta_mean             =   5.1516718490506E-13
(PID.TID 0000.0001) %MON dynstat_eta_sd               =   5.9394795238323E-01
(PID.TID 0000.0001) %MON dynstat_eta_del2             =   1.1017389661832E-02
(PID.TID 0000.0001) %MON dynstat_uvel_max             =   1.8630247312623E-01
(PID.TID 0000.0001) %MON dynstat_uvel_min             =  -2.8391056381559E-01
(PID.TID 0000.0001) %MON dynstat_uvel_mean            =  -4.9144027180477E-04
(PID.TID 0000.0001) %MON dynstat_uvel_sd              =   1.2057850397634E-02
(PID.TID 0000.0001) %MON dynstat_uvel_del2            =   1.5696819464808E-03
(PID.TID 0000.0001) %MON dynstat_vvel_max             =   1.7459903261398E-01
(PID.TID 0000.0001) %MON dynstat_vvel_min             =  -2.2421444307038E-01
(PID.TID 0000.0001) %MON dynstat_vvel_mean            =  -4.1363893718207E-04
(PID.TID 0000.0001) %MON dynstat_vvel_sd              =   1.2701791763220E-02
(PID.TID 0000.0001) %MON dynstat_vvel_del2            =   1.5917386911362E-03
(PID.TID 0000.0001) %MON dynstat_wvel_max             =   1.0795586652064E-04
(PID.TID 0000.0001) %MON dynstat_wvel_min             =  -2.0491711311329E-04
(PID.TID 0000.0001) %MON dynstat_wvel_mean            =   3.6076353176793E-22
(PID.TID 0000.0001) %MON dynstat_wvel_sd              =   3.9024403250608E-06
(PID.TID 0000.0001) %MON dynstat_wvel_del2            =   8.7928829776179E-07
(PID.TID 0000.0001) %MON dynstat_theta_max            =   3.0098144832273E+01
(PID.TID 0000.0001) %MON dynstat_theta_min            =  -2.2180441558396E+00
(PID.TID 0000.0001) %MON dynstat_theta_mean           =   3.9271837187104E+00
(PID.TID 0000.0001) %MON dynstat_theta_sd             =   4.5663443744155E+00
(PID.TID 0000.0001) %MON dynstat_theta_del2           =   8.5705115679521E-02
(PID.TID 0000.0001) %MON dynstat_salt_max             =   4.1419193926917E+01
(PID.TID 0000.0001) %MON dynstat_salt_min             =   1.8402299853842E+01
(PID.TID 0000.0001) %MON dynstat_salt_mean            =   3.4775603026879E+01
(PID.TID 0000.0001) %MON dynstat_salt_sd              =   5.3341530586406E-01
(PID.TID 0000.0001) %MON dynstat_salt_del2            =   1.8760919767515E-02
(PID.TID 0000.0001) %MON advcfl_uvel_max              =   8.0522421308585E-02
(PID.TID 0000.0001) %MON advcfl_vvel_max              =   7.6105258527865E-02
(PID.TID 0000.0001) %MON advcfl_wvel_max              =   6.6810711596181E-02
(PID.TID 0000.0001) %MON advcfl_W_hf_max              =   1.1423711134862E-01
(PID.TID 0000.0001) %MON pe_b_mean                    =   4.6996038591436E-04
(PID.TID 0000.0001) %MON ke_max                       =   3.9288656824486E-02
(PID.TID 0000.0001) %MON ke_mean                      =   1.4183217453440E-04
(PID.TID 0000.0001) %MON ke_vol                       =   1.3398024453628E+18
(PID.TID 0000.0001) %MON vort_r_min                   =  -1.2447653278546E-06
(PID.TID 0000.0001) %MON vort_r_max                   =   1.2422554005889E-06
(PID.TID 0000.0001) %MON vort_a_mean                  =  -2.0491686581605E-05
(PID.TID 0000.0001) %MON vort_a_sd                    =   7.5056306482757E-05
(PID.TID 0000.0001) %MON vort_p_mean                  =  -2.4712552411437E-05
(PID.TID 0000.0001) %MON vort_p_sd                    =   1.2774951193259E-04
(PID.TID 0000.0001) %MON surfExpan_theta_mean         =  -2.5143607167032E-08
(PID.TID 0000.0001) %MON surfExpan_salt_mean          =  -7.3486836070099E-11
(PID.TID 0000.0001) // =======================================================
(PID.TID 0000.0001) // End MONITOR dynamic field statistics
(PID.TID 0000.0001) // =======================================================
(PID.TID 0000.0001) // =======================================================
(PID.TID 0000.0001) // Begin MONITOR Therm.SeaIce statistics
(PID.TID 0000.0001) // =======================================================
(PID.TID 0000.0001) %MON thSI_time_sec                =   6.2218368000000E+09
(PID.TID 0000.0001) %MON thSI_Ice_Area_G              =   9.5496385121373E+12
(PID.TID 0000.0001) %MON thSI_Ice_Area_S              =   2.3153397105825E+10
(PID.TID 0000.0001) %MON thSI_Ice_Area_N              =   9.5264851150315E+12
(PID.TID 0000.0001) %MON thSI_IceH_ave_G              =   8.7308398907817E-01
(PID.TID 0000.0001) %MON thSI_IceH_ave_S              =   1.6443470676417E-01
(PID.TID 0000.0001) %MON thSI_IceH_ave_N              =   8.7480630723057E-01
(PID.TID 0000.0001) %MON thSI_IceH_max_S              =   1.6443470676417E-01
(PID.TID 0000.0001) %MON thSI_IceH_max_N              =   1.4683815700037E+00
(PID.TID 0000.0001) %MON thSI_SnwH_ave_G              =   1.6768661595013E-02
(PID.TID 0000.0001) %MON thSI_SnwH_ave_S              =   5.8276444774639E-02
(PID.TID 0000.0001) %MON thSI_SnwH_ave_N              =   1.6667780086740E-02
(PID.TID 0000.0001) %MON thSI_SnwH_max_S              =   5.8276444774639E-02
(PID.TID 0000.0001) %MON thSI_SnwH_max_N              =   9.9649632111020E-02
(PID.TID 0000.0001) %MON thSI_TotEnerg_G              =  -2.7137913678396E+21
(PID.TID 0000.0001) %MON thSI_Tsrf_ave_G              =  -2.6647417044053E+01
(PID.TID 0000.0001) %MON thSI_Tsrf_ave_S              =  -3.9169938400397E+00
(PID.TID 0000.0001) %MON thSI_Tsrf_ave_N              =  -2.6702661607863E+01
(PID.TID 0000.0001) %MON thSI_Tsrf_min_S              =  -3.9169938400397E+00
(PID.TID 0000.0001) %MON thSI_Tsrf_min_N              =  -3.4801785624408E+01
(PID.TID 0000.0001) %MON thSI_Tsrf_max_S              =  -3.9169938400397E+00
(PID.TID 0000.0001) %MON thSI_Tsrf_max_N              =  -1.7696999627235E+00
(PID.TID 0000.0001) %MON thSI_Tic1_ave_G              =  -1.8589790633428E+01
(PID.TID 0000.0001) %MON thSI_Tic1_ave_S              =  -2.3425606931691E+00
(PID.TID 0000.0001) %MON thSI_Tic1_ave_N              =  -1.8597213009186E+01
(PID.TID 0000.0001) %MON thSI_Tic1_min_S              =  -2.3425606931691E+00
(PID.TID 0000.0001) %MON thSI_Tic1_min_N              =  -2.5183778730550E+01
(PID.TID 0000.0001) %MON thSI_Tic1_max_S              =  -2.3425606931691E+00
(PID.TID 0000.0001) %MON thSI_Tic1_max_N              =  -1.7696999627235E+00
(PID.TID 0000.0001) %MON thSI_Tic2_ave_G              =  -6.9507878352851E+00
(PID.TID 0000.0001) %MON thSI_Tic2_ave_S              =  -1.9936958102285E+00
(PID.TID 0000.0001) %MON thSI_Tic2_ave_N              =  -6.9530524305306E+00
(PID.TID 0000.0001) %MON thSI_Tic2_min_S              =  -1.9936958102285E+00
(PID.TID 0000.0001) %MON thSI_Tic2_min_N              =  -9.5114408889124E+00
(PID.TID 0000.0001) %MON thSI_Tic2_max_S              =  -1.9936958102285E+00
(PID.TID 0000.0001) %MON thSI_Tic2_max_N              =  -1.7696999627235E+00
(PID.TID 0000.0001) // =======================================================
(PID.TID 0000.0001) // End MONITOR Therm.SeaIce statistics
(PID.TID 0000.0001) // =======================================================
 cg2d: Sum(rhs),rhsMax =  -3.45781459021310E-10  4.22871593237755E+00
(PID.TID 0000.0001)                    cg2d_init_res =    2.00432452209473E-01
(PID.TID 0000.0001)                       cg2d_iters =    62
(PID.TID 0000.0001)                         cg2d_res =    5.47105525973660E-07
(PID.TID 0000.0001) // =======================================================
(PID.TID 0000.0001) // Begin MONITOR dynamic field statistics
(PID.TID 0000.0001) // =======================================================
(PID.TID 0000.0001) %MON time_tsnumber                =                 72013
(PID.TID 0000.0001) %MON time_secondsf                =   6.2219232000000E+09
(PID.TID 0000.0001) %MON dynstat_eta_max              =   8.9982905417428E-01
(PID.TID 0000.0001) %MON dynstat_eta_min              =  -1.6050378314908E+00
(PID.TID 0000.0001) %MON dynstat_eta_mean             =   5.1472407405553E-13
(PID.TID 0000.0001) %MON dynstat_eta_sd               =   5.9382207604465E-01
(PID.TID 0000.0001) %MON dynstat_eta_del2             =   1.1009503214802E-02
(PID.TID 0000.0001) %MON dynstat_uvel_max             =   1.8604412924443E-01
(PID.TID 0000.0001) %MON dynstat_uvel_min             =  -2.8342230397264E-01
(PID.TID 0000.0001) %MON dynstat_uvel_mean            =  -4.9078667969981E-04
(PID.TID 0000.0001) %MON dynstat_uvel_sd              =   1.2062475976966E-02
(PID.TID 0000.0001) %MON dynstat_uvel_del2            =   1.5692891567346E-03
(PID.TID 0000.0001) %MON dynstat_vvel_max             =   1.7452355675923E-01
(PID.TID 0000.0001) %MON dynstat_vvel_min             =  -2.2409827347979E-01
(PID.TID 0000.0001) %MON dynstat_vvel_mean            =  -4.1385872219672E-04
(PID.TID 0000.0001) %MON dynstat_vvel_sd              =   1.2706096323473E-02
(PID.TID 0000.0001) %MON dynstat_vvel_del2            =   1.5916961505373E-03
(PID.TID 0000.0001) %MON dynstat_wvel_max             =   1.0847505386135E-04
(PID.TID 0000.0001) %MON dynstat_wvel_min             =  -2.0458276288241E-04
(PID.TID 0000.0001) %MON dynstat_wvel_mean            =  -7.3630810098988E-23
(PID.TID 0000.0001) %MON dynstat_wvel_sd              =   3.8993685409756E-06
(PID.TID 0000.0001) %MON dynstat_wvel_del2            =   8.7882827788420E-07
(PID.TID 0000.0001) %MON dynstat_theta_max            =   3.0076364482220E+01
(PID.TID 0000.0001) %MON dynstat_theta_min            =  -2.2459157090476E+00
(PID.TID 0000.0001) %MON dynstat_theta_mean           =   3.9272183071265E+00
(PID.TID 0000.0001) %MON dynstat_theta_sd             =   4.5660588032074E+00
(PID.TID 0000.0001) %MON dynstat_theta_del2           =   8.5679993500312E-02
(PID.TID 0000.0001) %MON dynstat_salt_max             =   4.1415145458276E+01
(PID.TID 0000.0001) %MON dynstat_salt_min             =   1.8403375002025E+01
(PID.TID 0000.0001) %MON dynstat_salt_mean            =   3.4775626990148E+01
(PID.TID 0000.0001) %MON dynstat_salt_sd              =   5.3333333393318E-01
(PID.TID 0000.0001) %MON dynstat_salt_del2            =   1.8744080110330E-02
(PID.TID 0000.0001) %MON advcfl_uvel_max              =   8.0383941555477E-02
(PID.TID 0000.0001) %MON advcfl_vvel_max              =   7.6072359666101E-02
(PID.TID 0000.0001) %MON advcfl_wvel_max              =   6.6701700803926E-02
(PID.TID 0000.0001) %MON advcfl_W_hf_max              =   1.1418843433351E-01
(PID.TID 0000.0001) %MON pe_b_mean                    =   4.6976120811163E-04
(PID.TID 0000.0001) %MON ke_max                       =   3.9147961564310E-02
(PID.TID 0000.0001) %MON ke_mean                      =   1.4193396801990E-04
(PID.TID 0000.0001) %MON ke_vol                       =   1.3398024453628E+18
(PID.TID 0000.0001) %MON vort_r_min                   =  -1.2504830090875E-06
(PID.TID 0000.0001) %MON vort_r_max                   =   1.2454281226171E-06
(PID.TID 0000.0001) %MON vort_a_mean                  =  -2.0491686592388E-05
(PID.TID 0000.0001) %MON vort_a_sd                    =   7.5056306487664E-05
(PID.TID 0000.0001) %MON vort_p_mean                  =  -2.4712552424440E-05
(PID.TID 0000.0001) %MON vort_p_sd                    =   1.2774951739341E-04
(PID.TID 0000.0001) %MON surfExpan_theta_mean         =  -2.5158293317368E-08
(PID.TID 0000.0001) %MON surfExpan_salt_mean          =   6.1706616104093E-11
(PID.TID 0000.0001) // =======================================================
(PID.TID 0000.0001) // End MONITOR dynamic field statistics
(PID.TID 0000.0001) // =======================================================
(PID.TID 0000.0001) // =======================================================
(PID.TID 0000.0001) // Begin MONITOR Therm.SeaIce statistics
(PID.TID 0000.0001) // =======================================================
(PID.TID 0000.0001) %MON thSI_time_sec                =   6.2219232000000E+09
(PID.TID 0000.0001) %MON thSI_Ice_Area_G              =   9.7390811323583E+12
(PID.TID 0000.0001) %MON thSI_Ice_Area_S              =   2.2375843808965E+10
(PID.TID 0000.0001) %MON thSI_Ice_Area_N              =   9.7167052885494E+12
(PID.TID 0000.0001) %MON thSI_IceH_ave_G              =   9.0186676569460E-01
(PID.TID 0000.0001) %MON thSI_IceH_ave_S              =   1.5559087374942E-01
(PID.TID 0000.0001) %MON thSI_IceH_ave_N              =   9.0358530632136E-01
(PID.TID 0000.0001) %MON thSI_IceH_max_S              =   1.5559087374942E-01
(PID.TID 0000.0001) %MON thSI_IceH_max_N              =   1.5356203764195E+00
(PID.TID 0000.0001) %MON thSI_SnwH_ave_G              =   1.8533840075418E-02
(PID.TID 0000.0001) %MON thSI_SnwH_ave_S              =   6.3650811988400E-02
(PID.TID 0000.0001) %MON thSI_SnwH_ave_N              =   1.8429943714802E-02
(PID.TID 0000.0001) %MON thSI_SnwH_max_S              =   6.3650811988400E-02
(PID.TID 0000.0001) %MON thSI_SnwH_max_N              =   1.1226543791668E-01
(PID.TID 0000.0001) %MON thSI_TotEnerg_G              =  -2.8616477914537E+21
(PID.TID 0000.0001) %MON thSI_Tsrf_ave_G              =  -2.6790224722240E+01
(PID.TID 0000.0001) %MON thSI_Tsrf_ave_S              =  -3.9423353831257E+00
(PID.TID 0000.0001) %MON thSI_Tsrf_ave_N              =  -2.6842839347057E+01
(PID.TID 0000.0001) %MON thSI_Tsrf_min_S              =  -3.9423353831257E+00
(PID.TID 0000.0001) %MON thSI_Tsrf_min_N              =  -3.4999361997379E+01
(PID.TID 0000.0001) %MON thSI_Tsrf_max_S              =  -3.9423353831257E+00
(PID.TID 0000.0001) %MON thSI_Tsrf_max_N              =  -1.7572430005822E+00
(PID.TID 0000.0001) %MON thSI_Tic1_ave_G              =  -1.8603386366105E+01
(PID.TID 0000.0001) %MON thSI_Tic1_ave_S              =  -2.2971663294670E+00
(PID.TID 0000.0001) %MON thSI_Tic1_ave_N              =  -1.8609852261128E+01
(PID.TID 0000.0001) %MON thSI_Tic1_min_S              =  -2.2971663294670E+00
(PID.TID 0000.0001) %MON thSI_Tic1_min_N              =  -2.5277547893645E+01
(PID.TID 0000.0001) %MON thSI_Tic1_max_S              =  -2.2971663294670E+00
(PID.TID 0000.0001) %MON thSI_Tic1_max_N              =  -1.7572430005822E+00
(PID.TID 0000.0001) %MON thSI_Tic2_ave_G              =  -6.9529434393944E+00
(PID.TID 0000.0001) %MON thSI_Tic2_ave_S              =  -1.9779455021047E+00
(PID.TID 0000.0001) %MON thSI_Tic2_ave_N              =  -6.9549161721508E+00
(PID.TID 0000.0001) %MON thSI_Tic2_min_S              =  -1.9779455021047E+00
(PID.TID 0000.0001) %MON thSI_Tic2_min_N              =  -9.5171303714664E+00
(PID.TID 0000.0001) %MON thSI_Tic2_max_S              =  -1.9779455021047E+00
(PID.TID 0000.0001) %MON thSI_Tic2_max_N              =  -1.7572430005822E+00
(PID.TID 0000.0001) // =======================================================
(PID.TID 0000.0001) // End MONITOR Therm.SeaIce statistics
(PID.TID 0000.0001) // =======================================================
 cg2d: Sum(rhs),rhsMax =  -3.45938278023539E-10  4.22658835160170E+00
(PID.TID 0000.0001)                    cg2d_init_res =    1.96883798265276E-01
(PID.TID 0000.0001)                       cg2d_iters =    62
(PID.TID 0000.0001)                         cg2d_res =    5.54409317678999E-07
(PID.TID 0000.0001) // =======================================================
(PID.TID 0000.0001) // Begin MONITOR dynamic field statistics
(PID.TID 0000.0001) // =======================================================
(PID.TID 0000.0001) %MON time_tsnumber                =                 72014
(PID.TID 0000.0001) %MON time_secondsf                =   6.2220096000000E+09
(PID.TID 0000.0001) %MON dynstat_eta_max              =   8.9888125945207E-01
(PID.TID 0000.0001) %MON dynstat_eta_min              =  -1.6048067945568E+00
(PID.TID 0000.0001) %MON dynstat_eta_mean             =   5.1484423976586E-13
(PID.TID 0000.0001) %MON dynstat_eta_sd               =   5.9370257405088E-01
(PID.TID 0000.0001) %MON dynstat_eta_del2             =   1.1003717418832E-02
(PID.TID 0000.0001) %MON dynstat_uvel_max             =   1.8573486118567E-01
(PID.TID 0000.0001) %MON dynstat_uvel_min             =  -2.8291611946064E-01
(PID.TID 0000.0001) %MON dynstat_uvel_mean            =  -4.9003436977699E-04
(PID.TID 0000.0001) %MON dynstat_uvel_sd              =   1.2067185803713E-02
(PID.TID 0000.0001) %MON dynstat_uvel_del2            =   1.5690343870873E-03
(PID.TID 0000.0001) %MON dynstat_vvel_max             =   1.7441721973294E-01
(PID.TID 0000.0001) %MON dynstat_vvel_min             =  -2.2397987244962E-01
(PID.TID 0000.0001) %MON dynstat_vvel_mean            =  -4.1404128432368E-04
(PID.TID 0000.0001) %MON dynstat_vvel_sd              =   1.2710005723204E-02
(PID.TID 0000.0001) %MON dynstat_vvel_del2            =   1.5918013312570E-03
(PID.TID 0000.0001) %MON dynstat_wvel_max             =   1.0898304916045E-04
(PID.TID 0000.0001) %MON dynstat_wvel_min             =  -2.0421672811507E-04
(PID.TID 0000.0001) %MON dynstat_wvel_mean            =   4.0120278546488E-22
(PID.TID 0000.0001) %MON dynstat_wvel_sd              =   3.8962737226539E-06
(PID.TID 0000.0001) %MON dynstat_wvel_del2            =   8.7827676329497E-07
(PID.TID 0000.0001) %MON dynstat_theta_max            =   3.0054613545640E+01
(PID.TID 0000.0001) %MON dynstat_theta_min            =  -2.2737321123372E+00
(PID.TID 0000.0001) %MON dynstat_theta_mean           =   3.9272583172064E+00
(PID.TID 0000.0001) %MON dynstat_theta_sd             =   4.5658082353701E+00
(PID.TID 0000.0001) %MON dynstat_theta_del2           =   8.5657079563834E-02
(PID.TID 0000.0001) %MON dynstat_salt_max             =   4.1410843211084E+01
(PID.TID 0000.0001) %MON dynstat_salt_min             =   1.8404497188953E+01
(PID.TID 0000.0001) %MON dynstat_salt_mean            =   3.4775650513533E+01
(PID.TID 0000.0001) %MON dynstat_salt_sd              =   5.3325514778264E-01
(PID.TID 0000.0001) %MON dynstat_salt_del2            =   1.8737199286831E-02
(PID.TID 0000.0001) %MON advcfl_uvel_max              =   8.0240378026218E-02
(PID.TID 0000.0001) %MON advcfl_vvel_max              =   7.6026008854437E-02
(PID.TID 0000.0001) %MON advcfl_wvel_max              =   6.6582359657141E-02
(PID.TID 0000.0001) %MON advcfl_W_hf_max              =   1.1406455497227E-01
(PID.TID 0000.0001) %MON pe_b_mean                    =   4.6957215568455E-04
(PID.TID 0000.0001) %MON ke_max                       =   3.9004010506951E-02
(PID.TID 0000.0001) %MON ke_mean                      =   1.4203201481894E-04
(PID.TID 0000.0001) %MON ke_vol                       =   1.3398024453628E+18
(PID.TID 0000.0001) %MON vort_r_min                   =  -1.2561743835376E-06
(PID.TID 0000.0001) %MON vort_r_max                   =   1.2485501671327E-06
(PID.TID 0000.0001) %MON vort_a_mean                  =  -2.0491686602856E-05
(PID.TID 0000.0001) %MON vort_a_sd                    =   7.5056306488498E-05
(PID.TID 0000.0001) %MON vort_p_mean                  =  -2.4712552437065E-05
(PID.TID 0000.0001) %MON vort_p_sd                    =   1.2774952256404E-04
(PID.TID 0000.0001) %MON surfExpan_theta_mean         =  -2.3955046090708E-08
(PID.TID 0000.0001) %MON surfExpan_salt_mean          =   1.7295518066219E-10
(PID.TID 0000.0001) // =======================================================
(PID.TID 0000.0001) // End MONITOR dynamic field statistics
(PID.TID 0000.0001) // =======================================================
(PID.TID 0000.0001) // =======================================================
(PID.TID 0000.0001) // Begin MONITOR Therm.SeaIce statistics
(PID.TID 0000.0001) // =======================================================
(PID.TID 0000.0001) %MON thSI_time_sec                =   6.2220096000000E+09
(PID.TID 0000.0001) %MON thSI_Ice_Area_G              =   9.9169918739165E+12
(PID.TID 0000.0001) %MON thSI_Ice_Area_S              =   2.1493582594605E+10
(PID.TID 0000.0001) %MON thSI_Ice_Area_N              =   9.8954982913219E+12
(PID.TID 0000.0001) %MON thSI_IceH_ave_G              =   9.2947558646427E-01
(PID.TID 0000.0001) %MON thSI_IceH_ave_S              =   1.4866876888694E-01
(PID.TID 0000.0001) %MON thSI_IceH_ave_N              =   9.3117154308313E-01
(PID.TID 0000.0001) %MON thSI_IceH_max_S              =   1.4866876888694E-01
(PID.TID 0000.0001) %MON thSI_IceH_max_N              =   1.6003805225761E+00
(PID.TID 0000.0001) %MON thSI_SnwH_ave_G              =   2.0318859705283E-02
(PID.TID 0000.0001) %MON thSI_SnwH_ave_S              =   6.0819041817386E-02
(PID.TID 0000.0001) %MON thSI_SnwH_ave_N              =   2.0230891016522E-02
(PID.TID 0000.0001) %MON thSI_SnwH_max_S              =   6.0819041817386E-02
(PID.TID 0000.0001) %MON thSI_SnwH_max_N              =   1.2496842908809E-01
(PID.TID 0000.0001) %MON thSI_TotEnerg_G              =  -3.0050860533737E+21
(PID.TID 0000.0001) %MON thSI_Tsrf_ave_G              =  -2.6862529413534E+01
(PID.TID 0000.0001) %MON thSI_Tsrf_ave_S              =  -3.9649621841938E+00
(PID.TID 0000.0001) %MON thSI_Tsrf_ave_N              =  -2.6912264226069E+01
(PID.TID 0000.0001) %MON thSI_Tsrf_min_S              =  -3.9649621841938E+00
(PID.TID 0000.0001) %MON thSI_Tsrf_min_N              =  -3.5186841107174E+01
(PID.TID 0000.0001) %MON thSI_Tsrf_max_S              =  -3.9649621841938E+00
(PID.TID 0000.0001) %MON thSI_Tsrf_max_N              =  -1.7369588214217E+00
(PID.TID 0000.0001) %MON thSI_Tic1_ave_G              =  -1.8604271507430E+01
(PID.TID 0000.0001) %MON thSI_Tic1_ave_S              =  -2.2539718434412E+00
(PID.TID 0000.0001) %MON thSI_Tic1_ave_N              =  -1.8609941557695E+01
(PID.TID 0000.0001) %MON thSI_Tic1_min_S              =  -2.2539718434412E+00
(PID.TID 0000.0001) %MON thSI_Tic1_min_N              =  -2.5363010316093E+01
(PID.TID 0000.0001) %MON thSI_Tic1_max_S              =  -2.2539718434412E+00
(PID.TID 0000.0001) %MON thSI_Tic1_max_N              =  -1.7369588214217E+00
(PID.TID 0000.0001) %MON thSI_Tic2_ave_G              =  -6.9571132855498E+00
(PID.TID 0000.0001) %MON thSI_Tic2_ave_S              =  -1.9629517540796E+00
(PID.TID 0000.0001) %MON thSI_Tic2_ave_N              =  -6.9588451893985E+00
(PID.TID 0000.0001) %MON thSI_Tic2_min_S              =  -1.9629517540796E+00
(PID.TID 0000.0001) %MON thSI_Tic2_min_N              =  -9.5166164092198E+00
(PID.TID 0000.0001) %MON thSI_Tic2_max_S              =  -1.9629517540796E+00
(PID.TID 0000.0001) %MON thSI_Tic2_max_N              =  -1.7369588214217E+00
(PID.TID 0000.0001) // =======================================================
(PID.TID 0000.0001) // End MONITOR Therm.SeaIce statistics
(PID.TID 0000.0001) // =======================================================
 cg2d: Sum(rhs),rhsMax =  -3.46102480008881E-10  4.22474083912708E+00
(PID.TID 0000.0001)                    cg2d_init_res =    1.93042257391088E-01
(PID.TID 0000.0001)                       cg2d_iters =    62
(PID.TID 0000.0001)                         cg2d_res =    5.75119591029525E-07
(PID.TID 0000.0001) // =======================================================
(PID.TID 0000.0001) // Begin MONITOR dynamic field statistics
(PID.TID 0000.0001) // =======================================================
(PID.TID 0000.0001) %MON time_tsnumber                =                 72015
(PID.TID 0000.0001) %MON time_secondsf                =   6.2220960000000E+09
(PID.TID 0000.0001) %MON dynstat_eta_max              =   8.9792519072866E-01
(PID.TID 0000.0001) %MON dynstat_eta_min              =  -1.6045039952382E+00
(PID.TID 0000.0001) %MON dynstat_eta_mean             =   5.1454974419882E-13
(PID.TID 0000.0001) %MON dynstat_eta_sd               =   5.9359131928530E-01
(PID.TID 0000.0001) %MON dynstat_eta_del2             =   1.0995618351000E-02
(PID.TID 0000.0001) %MON dynstat_uvel_max             =   1.8537839158834E-01
(PID.TID 0000.0001) %MON dynstat_uvel_min             =  -2.8239230916252E-01
(PID.TID 0000.0001) %MON dynstat_uvel_mean            =  -4.8923097156759E-04
(PID.TID 0000.0001) %MON dynstat_uvel_sd              =   1.2071871316279E-02
(PID.TID 0000.0001) %MON dynstat_uvel_del2            =   1.5689974269155E-03
(PID.TID 0000.0001) %MON dynstat_vvel_max             =   1.7428080243628E-01
(PID.TID 0000.0001) %MON dynstat_vvel_min             =  -2.2385950219512E-01
(PID.TID 0000.0001) %MON dynstat_vvel_mean            =  -4.1414162021325E-04
(PID.TID 0000.0001) %MON dynstat_vvel_sd              =   1.2713479870577E-02
(PID.TID 0000.0001) %MON dynstat_vvel_del2            =   1.5919058047588E-03
(PID.TID 0000.0001) %MON dynstat_wvel_max             =   1.0946311609583E-04
(PID.TID 0000.0001) %MON dynstat_wvel_min             =  -2.0382322638352E-04
(PID.TID 0000.0001) %MON dynstat_wvel_mean            =  -4.0075082976398E-23
(PID.TID 0000.0001) %MON dynstat_wvel_sd              =   3.8931677698757E-06
(PID.TID 0000.0001) %MON dynstat_wvel_del2            =   8.7791660766630E-07
(PID.TID 0000.0001) %MON dynstat_theta_max            =   3.0032954129821E+01
(PID.TID 0000.0001) %MON dynstat_theta_min            =  -2.3014875135189E+00
(PID.TID 0000.0001) %MON dynstat_theta_mean           =   3.9273030667835E+00
(PID.TID 0000.0001) %MON dynstat_theta_sd             =   4.5655841165001E+00
(PID.TID 0000.0001) %MON dynstat_theta_del2           =   8.5704971442778E-02
(PID.TID 0000.0001) %MON dynstat_salt_max             =   4.1406312812150E+01
(PID.TID 0000.0001) %MON dynstat_salt_min             =   1.8405752955651E+01
(PID.TID 0000.0001) %MON dynstat_salt_mean            =   3.4775673725093E+01
(PID.TID 0000.0001) %MON dynstat_salt_sd              =   5.3317628763515E-01
(PID.TID 0000.0001) %MON dynstat_salt_del2            =   1.8725289389652E-02
(PID.TID 0000.0001) %MON advcfl_uvel_max              =   8.0091815489678E-02
(PID.TID 0000.0001) %MON advcfl_vvel_max              =   7.5966546476702E-02
(PID.TID 0000.0001) %MON advcfl_wvel_max              =   6.6454063243532E-02
(PID.TID 0000.0001) %MON advcfl_W_hf_max              =   1.1386736982930E-01
(PID.TID 0000.0001) %MON pe_b_mean                    =   4.6939618459221E-04
(PID.TID 0000.0001) %MON ke_max                       =   3.8856837020453E-02
(PID.TID 0000.0001) %MON ke_mean                      =   1.4212463876660E-04
(PID.TID 0000.0001) %MON ke_vol                       =   1.3398024453628E+18
(PID.TID 0000.0001) %MON vort_r_min                   =  -1.2618141196545E-06
(PID.TID 0000.0001) %MON vort_r_max                   =   1.2515940299559E-06
(PID.TID 0000.0001) %MON vort_a_mean                  =  -2.0491686613085E-05
(PID.TID 0000.0001) %MON vort_a_sd                    =   7.5056306485292E-05
(PID.TID 0000.0001) %MON vort_p_mean                  =  -2.4712552449401E-05
(PID.TID 0000.0001) %MON vort_p_sd                    =   1.2774952740587E-04
(PID.TID 0000.0001) %MON surfExpan_theta_mean         =  -2.1423208107415E-08
(PID.TID 0000.0001) %MON surfExpan_salt_mean          =   5.3789951440423E-10
(PID.TID 0000.0001) // =======================================================
(PID.TID 0000.0001) // End MONITOR dynamic field statistics
(PID.TID 0000.0001) // =======================================================
(PID.TID 0000.0001) // =======================================================
(PID.TID 0000.0001) // Begin MONITOR Therm.SeaIce statistics
(PID.TID 0000.0001) // =======================================================
(PID.TID 0000.0001) %MON thSI_time_sec                =   6.2220960000000E+09
(PID.TID 0000.0001) %MON thSI_Ice_Area_G              =   1.0097049104394E+13
(PID.TID 0000.0001) %MON thSI_Ice_Area_S              =   2.0508785693202E+10
(PID.TID 0000.0001) %MON thSI_Ice_Area_N              =   1.0076540318701E+13
(PID.TID 0000.0001) %MON thSI_IceH_ave_G              =   9.5537237167489E-01
(PID.TID 0000.0001) %MON thSI_IceH_ave_S              =   1.4086512777279E-01
(PID.TID 0000.0001) %MON thSI_IceH_ave_N              =   9.5703013852566E-01
(PID.TID 0000.0001) %MON thSI_IceH_max_S              =   1.4086512777279E-01
(PID.TID 0000.0001) %MON thSI_IceH_max_N              =   1.6629526355971E+00
(PID.TID 0000.0001) %MON thSI_SnwH_ave_G              =   2.2090129907021E-02
(PID.TID 0000.0001) %MON thSI_SnwH_ave_S              =   5.7626643179778E-02
(PID.TID 0000.0001) %MON thSI_SnwH_ave_N              =   2.2017802430333E-02
(PID.TID 0000.0001) %MON thSI_SnwH_max_S              =   5.7626643179778E-02
(PID.TID 0000.0001) %MON thSI_SnwH_max_N              =   1.3782434350065E-01
(PID.TID 0000.0001) %MON thSI_TotEnerg_G              =  -3.1465797250157E+21
(PID.TID 0000.0001) %MON thSI_Tsrf_ave_G              =  -2.6990548250040E+01
(PID.TID 0000.0001) %MON thSI_Tsrf_ave_S              =  -3.9565841447789E+00
(PID.TID 0000.0001) %MON thSI_Tsrf_ave_N              =  -2.7037429284459E+01
(PID.TID 0000.0001) %MON thSI_Tsrf_min_S              =  -3.9565841447789E+00
(PID.TID 0000.0001) %MON thSI_Tsrf_min_N              =  -3.5365538837201E+01
(PID.TID 0000.0001) %MON thSI_Tsrf_max_S              =  -3.9565841447789E+00
(PID.TID 0000.0001) %MON thSI_Tsrf_max_N              =  -1.4759384818879E+00
(PID.TID 0000.0001) %MON thSI_Tic1_ave_G              =  -1.8599907266422E+01
(PID.TID 0000.0001) %MON thSI_Tic1_ave_S              =  -2.2463002720798E+00
(PID.TID 0000.0001) %MON thSI_Tic1_ave_N              =  -1.8604806407384E+01
(PID.TID 0000.0001) %MON thSI_Tic1_min_S              =  -2.2463002720798E+00
(PID.TID 0000.0001) %MON thSI_Tic1_min_N              =  -2.5441578409094E+01
(PID.TID 0000.0001) %MON thSI_Tic1_max_S              =  -2.2463002720798E+00
(PID.TID 0000.0001) %MON thSI_Tic1_max_N              =  -1.4759384818879E+00
(PID.TID 0000.0001) %MON thSI_Tic2_ave_G              =  -6.9574691460294E+00
(PID.TID 0000.0001) %MON thSI_Tic2_ave_S              =  -1.9583408177701E+00
(PID.TID 0000.0001) %MON thSI_Tic2_ave_N              =  -6.9589667626945E+00
(PID.TID 0000.0001) %MON thSI_Tic2_min_S              =  -1.9583408177701E+00
(PID.TID 0000.0001) %MON thSI_Tic2_min_N              =  -9.5129549524476E+00
(PID.TID 0000.0001) %MON thSI_Tic2_max_S              =  -1.9583408177701E+00
(PID.TID 0000.0001) %MON thSI_Tic2_max_N              =  -1.4759384818879E+00
(PID.TID 0000.0001) // =======================================================
(PID.TID 0000.0001) // End MONITOR Therm.SeaIce statistics
(PID.TID 0000.0001) // =======================================================
 S/R BULKF_FIELDS_LOAD
(PID.TID 0000.0001)  MDSREADFIELD: opening global file: ncep_tair_cs.bin
(PID.TID 0000.0001)  MDSREADFIELD: opening global file: ncep_tair_cs.bin
(PID.TID 0000.0001)  MDSREADFIELD: opening global file: ncep_qair_cs.bin
(PID.TID 0000.0001)  MDSREADFIELD: opening global file: ncep_qair_cs.bin
(PID.TID 0000.0001)  MDSREADFIELD: opening global file: ncep_precip_cs.bin
(PID.TID 0000.0001)  MDSREADFIELD: opening global file: ncep_precip_cs.bin
(PID.TID 0000.0001)  MDSREADFIELD: opening global file: ncep_downsolar_cs.bin
(PID.TID 0000.0001)  MDSREADFIELD: opening global file: ncep_downsolar_cs.bin
(PID.TID 0000.0001)  MDSREADFIELD: opening global file: ncep_downlw_cs.bin
(PID.TID 0000.0001)  MDSREADFIELD: opening global file: ncep_downlw_cs.bin
(PID.TID 0000.0001)  MDSREADFIELD: opening global file: ncep_windspeed_cs.bin
(PID.TID 0000.0001)  MDSREADFIELD: opening global file: ncep_windspeed_cs.bin
(PID.TID 0000.0001)  MDSREADFIELD: opening global file: trenberth_taux.bin
(PID.TID 0000.0001)  MDSREADFIELD: opening global file: trenberth_taux.bin
(PID.TID 0000.0001)  MDSREADFIELD: opening global file: trenberth_tauy.bin
(PID.TID 0000.0001)  MDSREADFIELD: opening global file: trenberth_tauy.bin
(PID.TID 0000.0001)  MDSREADFIELD: opening global file: lev_surfT_cs_12m.bin
(PID.TID 0000.0001)  MDSREADFIELD: opening global file: lev_surfT_cs_12m.bin
(PID.TID 0000.0001)  MDSREADFIELD: opening global file: lev_surfS_cs_12m.bin
(PID.TID 0000.0001)  MDSREADFIELD: opening global file: lev_surfS_cs_12m.bin
 cg2d: Sum(rhs),rhsMax =  -3.45647455102238E-10  4.22317354745724E+00
(PID.TID 0000.0001)                    cg2d_init_res =    1.89468120475043E-01
(PID.TID 0000.0001)                       cg2d_iters =    63
(PID.TID 0000.0001)                         cg2d_res =    5.18694679774472E-07
(PID.TID 0000.0001) // =======================================================
(PID.TID 0000.0001) // Begin MONITOR dynamic field statistics
(PID.TID 0000.0001) // =======================================================
(PID.TID 0000.0001) %MON time_tsnumber                =                 72016
(PID.TID 0000.0001) %MON time_secondsf                =   6.2221824000000E+09
(PID.TID 0000.0001) %MON dynstat_eta_max              =   8.9697510711764E-01
(PID.TID 0000.0001) %MON dynstat_eta_min              =  -1.6041298896335E+00
(PID.TID 0000.0001) %MON dynstat_eta_mean             =   5.1495075434880E-13
(PID.TID 0000.0001) %MON dynstat_eta_sd               =   5.9349144594020E-01
(PID.TID 0000.0001) %MON dynstat_eta_del2             =   1.0988576855048E-02
(PID.TID 0000.0001) %MON dynstat_uvel_max             =   1.8514135261637E-01
(PID.TID 0000.0001) %MON dynstat_uvel_min             =  -2.8185129584565E-01
(PID.TID 0000.0001) %MON dynstat_uvel_mean            =  -4.8841052763277E-04
(PID.TID 0000.0001) %MON dynstat_uvel_sd              =   1.2076430085823E-02
(PID.TID 0000.0001) %MON dynstat_uvel_del2            =   1.5690415255886E-03
(PID.TID 0000.0001) %MON dynstat_vvel_max             =   1.7411580079264E-01
(PID.TID 0000.0001) %MON dynstat_vvel_min             =  -2.2373739911225E-01
(PID.TID 0000.0001) %MON dynstat_vvel_mean            =  -4.1412963517599E-04
(PID.TID 0000.0001) %MON dynstat_vvel_sd              =   1.2716479317359E-02
(PID.TID 0000.0001) %MON dynstat_vvel_del2            =   1.5919408681650E-03
(PID.TID 0000.0001) %MON dynstat_wvel_max             =   1.0990897982384E-04
(PID.TID 0000.0001) %MON dynstat_wvel_min             =  -2.0341133405365E-04
(PID.TID 0000.0001) %MON dynstat_wvel_mean            =   2.2869589255949E-23
(PID.TID 0000.0001) %MON dynstat_wvel_sd              =   3.8900976396519E-06
(PID.TID 0000.0001) %MON dynstat_wvel_del2            =   8.7784961223476E-07
(PID.TID 0000.0001) %MON dynstat_theta_max            =   3.0011444480149E+01
(PID.TID 0000.0001) %MON dynstat_theta_min            =  -2.3291789625208E+00
(PID.TID 0000.0001) %MON dynstat_theta_mean           =   3.9273515886088E+00
(PID.TID 0000.0001) %MON dynstat_theta_sd             =   4.5653942930497E+00
(PID.TID 0000.0001) %MON dynstat_theta_del2           =   8.5725034911607E-02
(PID.TID 0000.0001) %MON dynstat_salt_max             =   4.1401578537437E+01
(PID.TID 0000.0001) %MON dynstat_salt_min             =   1.8407503038756E+01
(PID.TID 0000.0001) %MON dynstat_salt_mean            =   3.4775696313221E+01
(PID.TID 0000.0001) %MON dynstat_salt_sd              =   5.3309813753303E-01
(PID.TID 0000.0001) %MON dynstat_salt_del2            =   1.8709965432916E-02
(PID.TID 0000.0001) %MON advcfl_uvel_max              =   7.9938373850702E-02
(PID.TID 0000.0001) %MON advcfl_vvel_max              =   7.5894624584816E-02
(PID.TID 0000.0001) %MON advcfl_wvel_max              =   6.6319770800889E-02
(PID.TID 0000.0001) %MON advcfl_W_hf_max              =   1.1359929845871E-01
(PID.TID 0000.0001) %MON pe_b_mean                    =   4.6923824352485E-04
(PID.TID 0000.0001) %MON ke_max                       =   3.8706515118893E-02
(PID.TID 0000.0001) %MON ke_mean                      =   1.4221023692235E-04
(PID.TID 0000.0001) %MON ke_vol                       =   1.3398024453628E+18
(PID.TID 0000.0001) %MON vort_r_min                   =  -1.2673782543434E-06
(PID.TID 0000.0001) %MON vort_r_max                   =   1.2545366672517E-06
(PID.TID 0000.0001) %MON vort_a_mean                  =  -2.0491686623159E-05
(PID.TID 0000.0001) %MON vort_a_sd                    =   7.5056306478696E-05
(PID.TID 0000.0001) %MON vort_p_mean                  =  -2.4712552461549E-05
(PID.TID 0000.0001) %MON vort_p_sd                    =   1.2774953185590E-04
(PID.TID 0000.0001) %MON surfExpan_theta_mean         =  -1.8042369014418E-08
(PID.TID 0000.0001) %MON surfExpan_salt_mean          =   8.7971104941288E-10
(PID.TID 0000.0001) // =======================================================
(PID.TID 0000.0001) // End MONITOR dynamic field statistics
(PID.TID 0000.0001) // =======================================================
(PID.TID 0000.0001) // =======================================================
(PID.TID 0000.0001) // Begin MONITOR Therm.SeaIce statistics
(PID.TID 0000.0001) // =======================================================
(PID.TID 0000.0001) %MON thSI_time_sec                =   6.2221824000000E+09
(PID.TID 0000.0001) %MON thSI_Ice_Area_G              =   1.0210563478679E+13
(PID.TID 0000.0001) %MON thSI_Ice_Area_S              =   1.9419171062006E+10
(PID.TID 0000.0001) %MON thSI_Ice_Area_N              =   1.0191144307617E+13
(PID.TID 0000.0001) %MON thSI_IceH_ave_G              =   9.8469529820284E-01
(PID.TID 0000.0001) %MON thSI_IceH_ave_S              =   1.3220936089653E-01
(PID.TID 0000.0001) %MON thSI_IceH_ave_N              =   9.8631970560448E-01
(PID.TID 0000.0001) %MON thSI_IceH_max_S              =   1.3220936089653E-01
(PID.TID 0000.0001) %MON thSI_IceH_max_N              =   1.7235742126055E+00
(PID.TID 0000.0001) %MON thSI_SnwH_ave_G              =   2.3998711164073E-02
(PID.TID 0000.0001) %MON thSI_SnwH_ave_S              =   5.4085647639490E-02
(PID.TID 0000.0001) %MON thSI_SnwH_ave_N              =   2.3941380667270E-02
(PID.TID 0000.0001) %MON thSI_SnwH_max_S              =   5.4085647639490E-02
(PID.TID 0000.0001) %MON thSI_SnwH_max_N              =   1.5087213490471E-01
(PID.TID 0000.0001) %MON thSI_TotEnerg_G              =  -3.2815089597907E+21
(PID.TID 0000.0001) %MON thSI_Tsrf_ave_G              =  -2.7231158320985E+01
(PID.TID 0000.0001) %MON thSI_Tsrf_ave_S              =  -3.9450326269777E+00
(PID.TID 0000.0001) %MON thSI_Tsrf_ave_N              =  -2.7275529909158E+01
(PID.TID 0000.0001) %MON thSI_Tsrf_min_S              =  -3.9450326269777E+00
(PID.TID 0000.0001) %MON thSI_Tsrf_min_N              =  -3.5536528705648E+01
(PID.TID 0000.0001) %MON thSI_Tsrf_max_S              =  -3.9450326269777E+00
(PID.TID 0000.0001) %MON thSI_Tsrf_max_N              =  -1.5778655900485E+00
(PID.TID 0000.0001) %MON thSI_Tic1_ave_G              =  -1.8609451766720E+01
(PID.TID 0000.0001) %MON thSI_Tic1_ave_S              =  -2.2426771030137E+00
(PID.TID 0000.0001) %MON thSI_Tic1_ave_N              =  -1.8613632142618E+01
(PID.TID 0000.0001) %MON thSI_Tic1_min_S              =  -2.2426771030137E+00
(PID.TID 0000.0001) %MON thSI_Tic1_min_N              =  -2.5514306787509E+01
(PID.TID 0000.0001) %MON thSI_Tic1_max_S              =  -2.2426771030137E+00
(PID.TID 0000.0001) %MON thSI_Tic1_max_N              =  -1.5778655900485E+00
(PID.TID 0000.0001) %MON thSI_Tic2_ave_G              =  -6.9595362422065E+00
(PID.TID 0000.0001) %MON thSI_Tic2_ave_S              =  -1.9567788579240E+00
(PID.TID 0000.0001) %MON thSI_Tic2_ave_N              =  -6.9608140386461E+00
(PID.TID 0000.0001) %MON thSI_Tic2_min_S              =  -1.9567788579240E+00
(PID.TID 0000.0001) %MON thSI_Tic2_min_N              =  -9.5045394123591E+00
(PID.TID 0000.0001) %MON thSI_Tic2_max_S              =  -1.9567788579240E+00
(PID.TID 0000.0001) %MON thSI_Tic2_max_N              =  -1.5778655900485E+00
(PID.TID 0000.0001) // =======================================================
(PID.TID 0000.0001) // End MONITOR Therm.SeaIce statistics
(PID.TID 0000.0001) // =======================================================
 cg2d: Sum(rhs),rhsMax =  -3.45798667478192E-10  4.22178251782589E+00
(PID.TID 0000.0001)                    cg2d_init_res =    1.87652701408693E-01
(PID.TID 0000.0001)                       cg2d_iters =    63
(PID.TID 0000.0001)                         cg2d_res =    5.25568997665594E-07
(PID.TID 0000.0001) // =======================================================
(PID.TID 0000.0001) // Begin MONITOR dynamic field statistics
(PID.TID 0000.0001) // =======================================================
(PID.TID 0000.0001) %MON time_tsnumber                =                 72017
(PID.TID 0000.0001) %MON time_secondsf                =   6.2222688000000E+09
(PID.TID 0000.0001) %MON dynstat_eta_max              =   8.9606304933182E-01
(PID.TID 0000.0001) %MON dynstat_eta_min              =  -1.6036344181538E+00
(PID.TID 0000.0001) %MON dynstat_eta_mean             =   5.1463284457860E-13
(PID.TID 0000.0001) %MON dynstat_eta_sd               =   5.9339992393960E-01
(PID.TID 0000.0001) %MON dynstat_eta_del2             =   1.0981076883751E-02
(PID.TID 0000.0001) %MON dynstat_uvel_max             =   1.8531284034186E-01
(PID.TID 0000.0001) %MON dynstat_uvel_min             =  -2.8129798030220E-01
(PID.TID 0000.0001) %MON dynstat_uvel_mean            =  -4.8762682945303E-04
(PID.TID 0000.0001) %MON dynstat_uvel_sd              =   1.2080781736605E-02
(PID.TID 0000.0001) %MON dynstat_uvel_del2            =   1.5690504308724E-03
(PID.TID 0000.0001) %MON dynstat_vvel_max             =   1.7392409869940E-01
(PID.TID 0000.0001) %MON dynstat_vvel_min             =  -2.2360662558100E-01
(PID.TID 0000.0001) %MON dynstat_vvel_mean            =  -4.1399986839003E-04
(PID.TID 0000.0001) %MON dynstat_vvel_sd              =   1.2718551211605E-02
(PID.TID 0000.0001) %MON dynstat_vvel_del2            =   1.5918683492831E-03
(PID.TID 0000.0001) %MON dynstat_wvel_max             =   1.1031692085787E-04
(PID.TID 0000.0001) %MON dynstat_wvel_min             =  -2.0298182852932E-04
(PID.TID 0000.0001) %MON dynstat_wvel_mean            =  -8.8167214356759E-23
(PID.TID 0000.0001) %MON dynstat_wvel_sd              =   3.8870773336245E-06
(PID.TID 0000.0001) %MON dynstat_wvel_del2            =   8.7780090306903E-07
(PID.TID 0000.0001) %MON dynstat_theta_max            =   2.9990267411275E+01
(PID.TID 0000.0001) %MON dynstat_theta_min            =  -2.3568065155911E+00
(PID.TID 0000.0001) %MON dynstat_theta_mean           =   3.9274050333002E+00
(PID.TID 0000.0001) %MON dynstat_theta_sd             =   4.5652398532743E+00
(PID.TID 0000.0001) %MON dynstat_theta_del2           =   8.5743376427375E-02
(PID.TID 0000.0001) %MON dynstat_salt_max             =   4.1396683217280E+01
(PID.TID 0000.0001) %MON dynstat_salt_min             =   1.8415193301193E+01
(PID.TID 0000.0001) %MON dynstat_salt_mean            =   3.4775718666670E+01
(PID.TID 0000.0001) %MON dynstat_salt_sd              =   5.3302267896636E-01
(PID.TID 0000.0001) %MON dynstat_salt_del2            =   1.8706190189245E-02
(PID.TID 0000.0001) %MON advcfl_uvel_max              =   7.9781443066908E-02
(PID.TID 0000.0001) %MON advcfl_vvel_max              =   7.5811064343112E-02
(PID.TID 0000.0001) %MON advcfl_wvel_max              =   6.6179735792202E-02
(PID.TID 0000.0001) %MON advcfl_W_hf_max              =   1.1326507733331E-01
(PID.TID 0000.0001) %MON pe_b_mean                    =   4.6909353272307E-04
(PID.TID 0000.0001) %MON ke_max                       =   3.8555722056396E-02
(PID.TID 0000.0001) %MON ke_mean                      =   1.4228258898839E-04
(PID.TID 0000.0001) %MON ke_vol                       =   1.3398024453628E+18
(PID.TID 0000.0001) %MON vort_r_min                   =  -1.2726718828152E-06
(PID.TID 0000.0001) %MON vort_r_max                   =   1.2571711402724E-06
(PID.TID 0000.0001) %MON vort_a_mean                  =  -2.0491686633075E-05
(PID.TID 0000.0001) %MON vort_a_sd                    =   7.5056306468876E-05
(PID.TID 0000.0001) %MON vort_p_mean                  =  -2.4712552473509E-05
(PID.TID 0000.0001) %MON vort_p_sd                    =   1.2774953592560E-04
(PID.TID 0000.0001) %MON surfExpan_theta_mean         =  -1.4233128717449E-08
(PID.TID 0000.0001) %MON surfExpan_salt_mean          =   1.2979222421546E-09
(PID.TID 0000.0001) // =======================================================
(PID.TID 0000.0001) // End MONITOR dynamic field statistics
(PID.TID 0000.0001) // =======================================================
(PID.TID 0000.0001) // =======================================================
(PID.TID 0000.0001) // Begin MONITOR Therm.SeaIce statistics
(PID.TID 0000.0001) // =======================================================
(PID.TID 0000.0001) %MON thSI_time_sec                =   6.2222688000000E+09
(PID.TID 0000.0001) %MON thSI_Ice_Area_G              =   1.0338735160739E+13
(PID.TID 0000.0001) %MON thSI_Ice_Area_S              =   1.8226075384956E+10
(PID.TID 0000.0001) %MON thSI_Ice_Area_N              =   1.0320509085354E+13
(PID.TID 0000.0001) %MON thSI_IceH_ave_G              =   1.0117526052182E+00
(PID.TID 0000.0001) %MON thSI_IceH_ave_S              =   1.2278181926355E-01
(PID.TID 0000.0001) %MON thSI_IceH_ave_N              =   1.0133225324792E+00
(PID.TID 0000.0001) %MON thSI_IceH_max_S              =   1.2278181926355E-01
(PID.TID 0000.0001) %MON thSI_IceH_max_N              =   1.7824402405071E+00
(PID.TID 0000.0001) %MON thSI_SnwH_ave_G              =   2.5866707863040E-02
(PID.TID 0000.0001) %MON thSI_SnwH_ave_S              =   5.0228926062359E-02
(PID.TID 0000.0001) %MON thSI_SnwH_ave_N              =   2.5823684052706E-02
(PID.TID 0000.0001) %MON thSI_SnwH_max_S              =   5.0228926062359E-02
(PID.TID 0000.0001) %MON thSI_SnwH_max_N              =   1.6394749255461E-01
(PID.TID 0000.0001) %MON thSI_TotEnerg_G              =  -3.4155732832417E+21
(PID.TID 0000.0001) %MON thSI_Tsrf_ave_G              =  -2.7355444035339E+01
(PID.TID 0000.0001) %MON thSI_Tsrf_ave_S              =  -4.0455788248151E+00
(PID.TID 0000.0001) %MON thSI_Tsrf_ave_N              =  -2.7396609384551E+01
(PID.TID 0000.0001) %MON thSI_Tsrf_min_S              =  -4.0455788248151E+00
(PID.TID 0000.0001) %MON thSI_Tsrf_min_N              =  -3.5679999148365E+01
(PID.TID 0000.0001) %MON thSI_Tsrf_max_S              =  -4.0455788248151E+00
(PID.TID 0000.0001) %MON thSI_Tsrf_max_N              =  -1.7525383056230E+00
(PID.TID 0000.0001) %MON thSI_Tic1_ave_G              =  -1.8593509216901E+01
(PID.TID 0000.0001) %MON thSI_Tic1_ave_S              =  -2.2590899318886E+00
(PID.TID 0000.0001) %MON thSI_Tic1_ave_N              =  -1.8597004497973E+01
(PID.TID 0000.0001) %MON thSI_Tic1_min_S              =  -2.2590899318886E+00
(PID.TID 0000.0001) %MON thSI_Tic1_min_N              =  -2.5576786938404E+01
(PID.TID 0000.0001) %MON thSI_Tic1_max_S              =  -2.2590899318886E+00
(PID.TID 0000.0001) %MON thSI_Tic1_max_N              =  -1.7525383056230E+00
(PID.TID 0000.0001) %MON thSI_Tic2_ave_G              =  -6.9542755303530E+00
(PID.TID 0000.0001) %MON thSI_Tic2_ave_S              =  -1.9619764632672E+00
(PID.TID 0000.0001) %MON thSI_Tic2_ave_N              =  -6.9553437953541E+00
(PID.TID 0000.0001) %MON thSI_Tic2_min_S              =  -1.9619764632672E+00
(PID.TID 0000.0001) %MON thSI_Tic2_min_N              =  -9.4878013851933E+00
(PID.TID 0000.0001) %MON thSI_Tic2_max_S              =  -1.9619764632672E+00
(PID.TID 0000.0001) %MON thSI_Tic2_max_N              =  -1.7525383056230E+00
(PID.TID 0000.0001) // =======================================================
(PID.TID 0000.0001) // End MONITOR Therm.SeaIce statistics
(PID.TID 0000.0001) // =======================================================
 cg2d: Sum(rhs),rhsMax =  -3.46256856520455E-10  4.22072345819499E+00
(PID.TID 0000.0001)                    cg2d_init_res =    1.78980610817663E-01
(PID.TID 0000.0001)                       cg2d_iters =    63
(PID.TID 0000.0001)                         cg2d_res =    5.23124720712038E-07
(PID.TID 0000.0001) // =======================================================
(PID.TID 0000.0001) // Begin MONITOR dynamic field statistics
(PID.TID 0000.0001) // =======================================================
(PID.TID 0000.0001) %MON time_tsnumber                =                 72018
(PID.TID 0000.0001) %MON time_secondsf                =   6.2223552000000E+09
(PID.TID 0000.0001) %MON dynstat_eta_max              =   8.9520551567720E-01
(PID.TID 0000.0001) %MON dynstat_eta_min              =  -1.6030809938966E+00
(PID.TID 0000.0001) %MON dynstat_eta_mean             =   5.1549861970123E-13
(PID.TID 0000.0001) %MON dynstat_eta_sd               =   5.9331884957054E-01
(PID.TID 0000.0001) %MON dynstat_eta_del2             =   1.0974572542476E-02
(PID.TID 0000.0001) %MON dynstat_uvel_max             =   1.8540675095330E-01
(PID.TID 0000.0001) %MON dynstat_uvel_min             =  -2.8073133319295E-01
(PID.TID 0000.0001) %MON dynstat_uvel_mean            =  -4.8687533962067E-04
(PID.TID 0000.0001) %MON dynstat_uvel_sd              =   1.2084826817793E-02
(PID.TID 0000.0001) %MON dynstat_uvel_del2            =   1.5690621442733E-03
(PID.TID 0000.0001) %MON dynstat_vvel_max             =   1.7370780546529E-01
(PID.TID 0000.0001) %MON dynstat_vvel_min             =  -2.2347033979940E-01
(PID.TID 0000.0001) %MON dynstat_vvel_mean            =  -4.1374841410196E-04
(PID.TID 0000.0001) %MON dynstat_vvel_sd              =   1.2719823054316E-02
(PID.TID 0000.0001) %MON dynstat_vvel_del2            =   1.5917775719616E-03
(PID.TID 0000.0001) %MON dynstat_wvel_max             =   1.1068519738153E-04
(PID.TID 0000.0001) %MON dynstat_wvel_min             =  -2.0254030080906E-04
(PID.TID 0000.0001) %MON dynstat_wvel_mean            =  -1.1217560554427E-22
(PID.TID 0000.0001) %MON dynstat_wvel_sd              =   3.8840931646251E-06
(PID.TID 0000.0001) %MON dynstat_wvel_del2            =   8.7766572782309E-07
(PID.TID 0000.0001) %MON dynstat_theta_max            =   2.9969465789636E+01
(PID.TID 0000.0001) %MON dynstat_theta_min            =  -2.3844364539128E+00
(PID.TID 0000.0001) %MON dynstat_theta_mean           =   3.9274623353961E+00
(PID.TID 0000.0001) %MON dynstat_theta_sd             =   4.5651180412070E+00
(PID.TID 0000.0001) %MON dynstat_theta_del2           =   8.5707534945222E-02
(PID.TID 0000.0001) %MON dynstat_salt_max             =   4.1391637971036E+01
(PID.TID 0000.0001) %MON dynstat_salt_min             =   1.8438811697464E+01
(PID.TID 0000.0001) %MON dynstat_salt_mean            =   3.4775740600587E+01
(PID.TID 0000.0001) %MON dynstat_salt_sd              =   5.3294992612329E-01
(PID.TID 0000.0001) %MON dynstat_salt_del2            =   1.8687053709473E-02
(PID.TID 0000.0001) %MON advcfl_uvel_max              =   7.9620731198176E-02
(PID.TID 0000.0001) %MON advcfl_vvel_max              =   7.5716785169551E-02
(PID.TID 0000.0001) %MON advcfl_wvel_max              =   6.6035781093972E-02
(PID.TID 0000.0001) %MON advcfl_W_hf_max              =   1.1286556901204E-01
(PID.TID 0000.0001) %MON pe_b_mean                    =   4.6896535992559E-04
(PID.TID 0000.0001) %MON ke_max                       =   3.8403607670782E-02
(PID.TID 0000.0001) %MON ke_mean                      =   1.4234208428187E-04
(PID.TID 0000.0001) %MON ke_vol                       =   1.3398024453628E+18
(PID.TID 0000.0001) %MON vort_r_min                   =  -1.2777450108496E-06
(PID.TID 0000.0001) %MON vort_r_max                   =   1.2595702963000E-06
(PID.TID 0000.0001) %MON vort_a_mean                  =  -2.0491686642762E-05
(PID.TID 0000.0001) %MON vort_a_sd                    =   7.5056306460350E-05
(PID.TID 0000.0001) %MON vort_p_mean                  =  -2.4712552485190E-05
(PID.TID 0000.0001) %MON vort_p_sd                    =   1.2774953954509E-04
(PID.TID 0000.0001) %MON surfExpan_theta_mean         =  -1.0540466029123E-08
(PID.TID 0000.0001) %MON surfExpan_salt_mean          =   1.5904829285094E-09
(PID.TID 0000.0001) // =======================================================
(PID.TID 0000.0001) // End MONITOR dynamic field statistics
(PID.TID 0000.0001) // =======================================================
(PID.TID 0000.0001) // =======================================================
(PID.TID 0000.0001) // Begin MONITOR Therm.SeaIce statistics
(PID.TID 0000.0001) // =======================================================
(PID.TID 0000.0001) %MON thSI_time_sec                =   6.2223552000000E+09
(PID.TID 0000.0001) %MON thSI_Ice_Area_G              =   1.0450097937308E+13
(PID.TID 0000.0001) %MON thSI_Ice_Area_S              =   1.6930087895716E+10
(PID.TID 0000.0001) %MON thSI_Ice_Area_N              =   1.0433167849413E+13
(PID.TID 0000.0001) %MON thSI_IceH_ave_G              =   1.0387023610835E+00
(PID.TID 0000.0001) %MON thSI_IceH_ave_S              =   1.1267357829181E-01
(PID.TID 0000.0001) %MON thSI_IceH_ave_N              =   1.0402050445362E+00
(PID.TID 0000.0001) %MON thSI_IceH_max_S              =   1.1267357829181E-01
(PID.TID 0000.0001) %MON thSI_IceH_max_N              =   1.8394213364399E+00
(PID.TID 0000.0001) %MON thSI_SnwH_ave_G              =   2.7774401353047E-02
(PID.TID 0000.0001) %MON thSI_SnwH_ave_S              =   4.6093736573921E-02
(PID.TID 0000.0001) %MON thSI_SnwH_ave_N              =   2.7744674240443E-02
(PID.TID 0000.0001) %MON thSI_SnwH_max_S              =   4.6093736573921E-02
(PID.TID 0000.0001) %MON thSI_SnwH_max_N              =   1.7698196263603E-01
(PID.TID 0000.0001) %MON thSI_TotEnerg_G              =  -3.5457018162756E+21
(PID.TID 0000.0001) %MON thSI_Tsrf_ave_G              =  -2.7394056135974E+01
(PID.TID 0000.0001) %MON thSI_Tsrf_ave_S              =  -4.1423013794109E+00
(PID.TID 0000.0001) %MON thSI_Tsrf_ave_N              =  -2.7431787173895E+01
(PID.TID 0000.0001) %MON thSI_Tsrf_min_S              =  -4.1423013794109E+00
(PID.TID 0000.0001) %MON thSI_Tsrf_min_N              =  -3.5818466988720E+01
(PID.TID 0000.0001) %MON thSI_Tsrf_max_S              =  -4.1423013794109E+00
(PID.TID 0000.0001) %MON thSI_Tsrf_max_N              =  -1.7738817784879E+00
(PID.TID 0000.0001) %MON thSI_Tic1_ave_G              =  -1.8562587413980E+01
(PID.TID 0000.0001) %MON thSI_Tic1_ave_S              =  -2.2781045161551E+00
(PID.TID 0000.0001) %MON thSI_Tic1_ave_N              =  -1.8565449746746E+01
(PID.TID 0000.0001) %MON thSI_Tic1_min_S              =  -2.2781045161551E+00
(PID.TID 0000.0001) %MON thSI_Tic1_min_N              =  -2.5632384192274E+01
(PID.TID 0000.0001) %MON thSI_Tic1_max_S              =  -2.2781045161551E+00
(PID.TID 0000.0001) %MON thSI_Tic1_max_N              =  -1.7738817784879E+00
(PID.TID 0000.0001) %MON thSI_Tic2_ave_G              =  -6.9439640092314E+00
(PID.TID 0000.0001) %MON thSI_Tic2_ave_S              =  -1.9683596868222E+00
(PID.TID 0000.0001) %MON thSI_Tic2_ave_N              =  -6.9448385740164E+00
(PID.TID 0000.0001) %MON thSI_Tic2_min_S              =  -1.9683596868222E+00
(PID.TID 0000.0001) %MON thSI_Tic2_min_N              =  -9.4667942752819E+00
(PID.TID 0000.0001) %MON thSI_Tic2_max_S              =  -1.9683596868222E+00
(PID.TID 0000.0001) %MON thSI_Tic2_max_N              =  -1.7738817784879E+00
(PID.TID 0000.0001) // =======================================================
(PID.TID 0000.0001) // End MONITOR Therm.SeaIce statistics
(PID.TID 0000.0001) // =======================================================
 cg2d: Sum(rhs),rhsMax =  -3.46171702414466E-10  4.21989479619021E+00
(PID.TID 0000.0001)                    cg2d_init_res =    1.75427867020952E-01
(PID.TID 0000.0001)                       cg2d_iters =    63
(PID.TID 0000.0001)                         cg2d_res =    5.18894209428024E-07
(PID.TID 0000.0001) // =======================================================
(PID.TID 0000.0001) // Begin MONITOR dynamic field statistics
(PID.TID 0000.0001) // =======================================================
(PID.TID 0000.0001) %MON time_tsnumber                =                 72019
(PID.TID 0000.0001) %MON time_secondsf                =   6.2224416000000E+09
(PID.TID 0000.0001) %MON dynstat_eta_max              =   8.9440578317768E-01
(PID.TID 0000.0001) %MON dynstat_eta_min              =  -1.6024911972879E+00
(PID.TID 0000.0001) %MON dynstat_eta_mean             =   5.1407694932959E-13
(PID.TID 0000.0001) %MON dynstat_eta_sd               =   5.9324983488590E-01
(PID.TID 0000.0001) %MON dynstat_eta_del2             =   1.0970115438163E-02
(PID.TID 0000.0001) %MON dynstat_uvel_max             =   1.8542285824641E-01
(PID.TID 0000.0001) %MON dynstat_uvel_min             =  -2.8015186000036E-01
(PID.TID 0000.0001) %MON dynstat_uvel_mean            =  -4.8612625126086E-04
(PID.TID 0000.0001) %MON dynstat_uvel_sd              =   1.2088475077205E-02
(PID.TID 0000.0001) %MON dynstat_uvel_del2            =   1.5691628183830E-03
(PID.TID 0000.0001) %MON dynstat_vvel_max             =   1.7346904326591E-01
(PID.TID 0000.0001) %MON dynstat_vvel_min             =  -2.2332890050683E-01
(PID.TID 0000.0001) %MON dynstat_vvel_mean            =  -4.1338142393449E-04
(PID.TID 0000.0001) %MON dynstat_vvel_sd              =   1.2720324472933E-02
(PID.TID 0000.0001) %MON dynstat_vvel_del2            =   1.5917074178449E-03
(PID.TID 0000.0001) %MON dynstat_wvel_max             =   1.1100111838645E-04
(PID.TID 0000.0001) %MON dynstat_wvel_min             =  -2.0209006988989E-04
(PID.TID 0000.0001) %MON dynstat_wvel_mean            =   4.2102688882602E-22
(PID.TID 0000.0001) %MON dynstat_wvel_sd              =   3.8811225142239E-06
(PID.TID 0000.0001) %MON dynstat_wvel_del2            =   8.7774397043860E-07
(PID.TID 0000.0001) %MON dynstat_theta_max            =   2.9949066365337E+01
(PID.TID 0000.0001) %MON dynstat_theta_min            =  -2.4120935765534E+00
(PID.TID 0000.0001) %MON dynstat_theta_mean           =   3.9275228861998E+00
(PID.TID 0000.0001) %MON dynstat_theta_sd             =   4.5650251542578E+00
(PID.TID 0000.0001) %MON dynstat_theta_del2           =   8.5670725813805E-02
(PID.TID 0000.0001) %MON dynstat_salt_max             =   4.1386460510858E+01
(PID.TID 0000.0001) %MON dynstat_salt_min             =   1.8437635357728E+01
(PID.TID 0000.0001) %MON dynstat_salt_mean            =   3.4775762164553E+01
(PID.TID 0000.0001) %MON dynstat_salt_sd              =   5.3288037487828E-01
(PID.TID 0000.0001) %MON dynstat_salt_del2            =   1.8671246050025E-02
(PID.TID 0000.0001) %MON advcfl_uvel_max              =   7.9456381608911E-02
(PID.TID 0000.0001) %MON advcfl_vvel_max              =   7.5612712090571E-02
(PID.TID 0000.0001) %MON advcfl_wvel_max              =   6.5888988824476E-02
(PID.TID 0000.0001) %MON advcfl_W_hf_max              =   1.1240314463431E-01
(PID.TID 0000.0001) %MON pe_b_mean                    =   4.6885626642865E-04
(PID.TID 0000.0001) %MON ke_max                       =   3.8250263143400E-02
(PID.TID 0000.0001) %MON ke_mean                      =   1.4238805276624E-04
(PID.TID 0000.0001) %MON ke_vol                       =   1.3398024453628E+18
(PID.TID 0000.0001) %MON vort_r_min                   =  -1.2825816960153E-06
(PID.TID 0000.0001) %MON vort_r_max                   =   1.2617190222031E-06
(PID.TID 0000.0001) %MON vort_a_mean                  =  -2.0491686652125E-05
(PID.TID 0000.0001) %MON vort_a_sd                    =   7.5056306453900E-05
(PID.TID 0000.0001) %MON vort_p_mean                  =  -2.4712552496482E-05
(PID.TID 0000.0001) %MON vort_p_sd                    =   1.2774954261711E-04
(PID.TID 0000.0001) %MON surfExpan_theta_mean         =  -6.8945665777063E-09
(PID.TID 0000.0001) %MON surfExpan_salt_mean          =   1.8455972088666E-09
(PID.TID 0000.0001) // =======================================================
(PID.TID 0000.0001) // End MONITOR dynamic field statistics
(PID.TID 0000.0001) // =======================================================
(PID.TID 0000.0001) // =======================================================
(PID.TID 0000.0001) // Begin MONITOR Therm.SeaIce statistics
(PID.TID 0000.0001) // =======================================================
(PID.TID 0000.0001) %MON thSI_time_sec                =   6.2224416000000E+09
(PID.TID 0000.0001) %MON thSI_Ice_Area_G              =   1.0526639904267E+13
(PID.TID 0000.0001) %MON thSI_Ice_Area_S              =   1.5530162178030E+10
(PID.TID 0000.0001) %MON thSI_Ice_Area_N              =   1.0511109742089E+13
(PID.TID 0000.0001) %MON thSI_IceH_ave_G              =   1.0676117431066E+00
(PID.TID 0000.0001) %MON thSI_IceH_ave_S              =   1.0195723932050E-01
(PID.TID 0000.0001) %MON thSI_IceH_ave_N              =   1.0690384974094E+00
(PID.TID 0000.0001) %MON thSI_IceH_max_S              =   1.0195723932050E-01
(PID.TID 0000.0001) %MON thSI_IceH_max_N              =   1.8946829562562E+00
(PID.TID 0000.0001) %MON thSI_SnwH_ave_G              =   2.9799930066142E-02
(PID.TID 0000.0001) %MON thSI_SnwH_ave_S              =   4.1709779722024E-02
(PID.TID 0000.0001) %MON thSI_SnwH_ave_N              =   2.9782333266070E-02
(PID.TID 0000.0001) %MON thSI_SnwH_max_S              =   4.1709779722024E-02
(PID.TID 0000.0001) %MON thSI_SnwH_max_N              =   1.8995972531013E-01
(PID.TID 0000.0001) %MON thSI_TotEnerg_G              =  -3.6724138486342E+21
(PID.TID 0000.0001) %MON thSI_Tsrf_ave_G              =  -2.7509935202146E+01
(PID.TID 0000.0001) %MON thSI_Tsrf_ave_S              =  -4.2308819493487E+00
(PID.TID 0000.0001) %MON thSI_Tsrf_ave_N              =  -2.7544329997865E+01
(PID.TID 0000.0001) %MON thSI_Tsrf_min_S              =  -4.2308819493487E+00
(PID.TID 0000.0001) %MON thSI_Tsrf_min_N              =  -3.5950574357028E+01
(PID.TID 0000.0001) %MON thSI_Tsrf_max_S              =  -4.2308819493487E+00
(PID.TID 0000.0001) %MON thSI_Tsrf_max_N              =  -1.7225741275417E+00
(PID.TID 0000.0001) %MON thSI_Tic1_ave_G              =  -1.8530793790706E+01
(PID.TID 0000.0001) %MON thSI_Tic1_ave_S              =  -2.2961347167733E+00
(PID.TID 0000.0001) %MON thSI_Tic1_ave_N              =  -1.8533081470921E+01
(PID.TID 0000.0001) %MON thSI_Tic1_min_S              =  -2.2961347167733E+00
(PID.TID 0000.0001) %MON thSI_Tic1_min_N              =  -2.5682051467933E+01
(PID.TID 0000.0001) %MON thSI_Tic1_max_S              =  -2.2961347167733E+00
(PID.TID 0000.0001) %MON thSI_Tic1_max_N              =  -1.7225741275417E+00
(PID.TID 0000.0001) %MON thSI_Tic2_ave_G              =  -6.9320580369507E+00
(PID.TID 0000.0001) %MON thSI_Tic2_ave_S              =  -1.9745662452894E+00
(PID.TID 0000.0001) %MON thSI_Tic2_ave_N              =  -6.9327566137324E+00
(PID.TID 0000.0001) %MON thSI_Tic2_min_S              =  -1.9745662452894E+00
(PID.TID 0000.0001) %MON thSI_Tic2_min_N              =  -9.4443164465463E+00
(PID.TID 0000.0001) %MON thSI_Tic2_max_S              =  -1.9745662452894E+00
(PID.TID 0000.0001) %MON thSI_Tic2_max_N              =  -1.7225741275417E+00
(PID.TID 0000.0001) // =======================================================
(PID.TID 0000.0001) // End MONITOR Therm.SeaIce statistics
(PID.TID 0000.0001) // =======================================================
 cg2d: Sum(rhs),rhsMax =  -3.45859896278000E-10  4.21926946962274E+00
(PID.TID 0000.0001)                    cg2d_init_res =    1.72773733703223E-01
(PID.TID 0000.0001)                       cg2d_iters =    63
(PID.TID 0000.0001)                         cg2d_res =    5.11835667666840E-07
(PID.TID 0000.0001) // =======================================================
(PID.TID 0000.0001) // Begin MONITOR dynamic field statistics
(PID.TID 0000.0001) // =======================================================
(PID.TID 0000.0001) %MON time_tsnumber                =                 72020
(PID.TID 0000.0001) %MON time_secondsf                =   6.2225280000000E+09
(PID.TID 0000.0001) %MON dynstat_eta_max              =   8.9366686724720E-01
(PID.TID 0000.0001) %MON dynstat_eta_min              =  -1.6018727771398E+00
(PID.TID 0000.0001) %MON dynstat_eta_mean             =   5.1497676702098E-13
(PID.TID 0000.0001) %MON dynstat_eta_sd               =   5.9319329698006E-01
(PID.TID 0000.0001) %MON dynstat_eta_del2             =   1.0966747226417E-02
(PID.TID 0000.0001) %MON dynstat_uvel_max             =   1.8536046772651E-01
(PID.TID 0000.0001) %MON dynstat_uvel_min             =  -2.7956006645378E-01
(PID.TID 0000.0001) %MON dynstat_uvel_mean            =  -4.8536261310304E-04
(PID.TID 0000.0001) %MON dynstat_uvel_sd              =   1.2091645288397E-02
(PID.TID 0000.0001) %MON dynstat_uvel_del2            =   1.5693254558006E-03
(PID.TID 0000.0001) %MON dynstat_vvel_max             =   1.7321030178962E-01
(PID.TID 0000.0001) %MON dynstat_vvel_min             =  -2.2318259116319E-01
(PID.TID 0000.0001) %MON dynstat_vvel_mean            =  -4.1291618560249E-04
(PID.TID 0000.0001) %MON dynstat_vvel_sd              =   1.2720092230849E-02
(PID.TID 0000.0001) %MON dynstat_vvel_del2            =   1.5917461517730E-03
(PID.TID 0000.0001) %MON dynstat_wvel_max             =   1.1126082584928E-04
(PID.TID 0000.0001) %MON dynstat_wvel_min             =  -2.0163950419885E-04
(PID.TID 0000.0001) %MON dynstat_wvel_mean            =   2.6902431253133E-22
(PID.TID 0000.0001) %MON dynstat_wvel_sd              =   3.8781735391265E-06
(PID.TID 0000.0001) %MON dynstat_wvel_del2            =   8.7793264326717E-07
(PID.TID 0000.0001) %MON dynstat_theta_max            =   2.9929090941511E+01
(PID.TID 0000.0001) %MON dynstat_theta_min            =  -2.4398020990941E+00
(PID.TID 0000.0001) %MON dynstat_theta_mean           =   3.9275858982548E+00
(PID.TID 0000.0001) %MON dynstat_theta_sd             =   4.5649635190826E+00
(PID.TID 0000.0001) %MON dynstat_theta_del2           =   8.5667849078658E-02
(PID.TID 0000.0001) %MON dynstat_salt_max             =   4.1381160452957E+01
(PID.TID 0000.0001) %MON dynstat_salt_min             =   1.8436552061692E+01
(PID.TID 0000.0001) %MON dynstat_salt_mean            =   3.4775783325082E+01
(PID.TID 0000.0001) %MON dynstat_salt_sd              =   5.3281267743868E-01
(PID.TID 0000.0001) %MON dynstat_salt_del2            =   1.8664300359726E-02
(PID.TID 0000.0001) %MON advcfl_uvel_max              =   7.9288537733554E-02
(PID.TID 0000.0001) %MON advcfl_vvel_max              =   7.5499930326265E-02
(PID.TID 0000.0001) %MON advcfl_wvel_max              =   6.5742087406720E-02
(PID.TID 0000.0001) %MON advcfl_W_hf_max              =   1.1188004558313E-01
(PID.TID 0000.0001) %MON pe_b_mean                    =   4.6876690479129E-04
(PID.TID 0000.0001) %MON ke_max                       =   3.8095774254417E-02
(PID.TID 0000.0001) %MON ke_mean                      =   1.4242001999624E-04
(PID.TID 0000.0001) %MON ke_vol                       =   1.3398024453628E+18
(PID.TID 0000.0001) %MON vort_r_min                   =  -1.2871693018931E-06
(PID.TID 0000.0001) %MON vort_r_max                   =   1.2636051248749E-06
(PID.TID 0000.0001) %MON vort_a_mean                  =  -2.0491686661046E-05
(PID.TID 0000.0001) %MON vort_a_sd                    =   7.5056306450654E-05
(PID.TID 0000.0001) %MON vort_p_mean                  =  -2.4712552507241E-05
(PID.TID 0000.0001) %MON vort_p_sd                    =   1.2774954512855E-04
(PID.TID 0000.0001) %MON surfExpan_theta_mean         =  -3.2924951931686E-09
(PID.TID 0000.0001) %MON surfExpan_salt_mean          =   2.1176340374551E-09
(PID.TID 0000.0001) // =======================================================
(PID.TID 0000.0001) // End MONITOR dynamic field statistics
(PID.TID 0000.0001) // =======================================================
(PID.TID 0000.0001) // =======================================================
(PID.TID 0000.0001) // Begin MONITOR Therm.SeaIce statistics
(PID.TID 0000.0001) // =======================================================
(PID.TID 0000.0001) %MON thSI_time_sec                =   6.2225280000000E+09
(PID.TID 0000.0001) %MON thSI_Ice_Area_G              =   1.0582732101528E+13
(PID.TID 0000.0001) %MON thSI_Ice_Area_S              =   1.4024534644258E+10
(PID.TID 0000.0001) %MON thSI_Ice_Area_N              =   1.0568707566884E+13
(PID.TID 0000.0001) %MON thSI_IceH_ave_G              =   1.0969945169697E+00
(PID.TID 0000.0001) %MON thSI_IceH_ave_S              =   9.0713465481578E-02
(PID.TID 0000.0001) %MON thSI_IceH_ave_N              =   1.0983298385669E+00
(PID.TID 0000.0001) %MON thSI_IceH_max_S              =   9.0713465481578E-02
(PID.TID 0000.0001) %MON thSI_IceH_max_N              =   1.9483672064523E+00
(PID.TID 0000.0001) %MON thSI_SnwH_ave_G              =   3.1901604097859E-02
(PID.TID 0000.0001) %MON thSI_SnwH_ave_S              =   3.7110054060645E-02
(PID.TID 0000.0001) %MON thSI_SnwH_ave_N              =   3.1894692553899E-02
(PID.TID 0000.0001) %MON thSI_SnwH_max_S              =   3.7110054060645E-02
(PID.TID 0000.0001) %MON thSI_SnwH_max_N              =   2.0289110992920E-01
(PID.TID 0000.0001) %MON thSI_TotEnerg_G              =  -3.7948845320670E+21
(PID.TID 0000.0001) %MON thSI_Tsrf_ave_G              =  -2.7610100989957E+01
(PID.TID 0000.0001) %MON thSI_Tsrf_ave_S              =  -4.3087239874428E+00
(PID.TID 0000.0001) %MON thSI_Tsrf_ave_N              =  -2.7641021607920E+01
(PID.TID 0000.0001) %MON thSI_Tsrf_min_S              =  -4.3087239874428E+00
(PID.TID 0000.0001) %MON thSI_Tsrf_min_N              =  -3.6077367159441E+01
(PID.TID 0000.0001) %MON thSI_Tsrf_max_S              =  -4.3087239874428E+00
(PID.TID 0000.0001) %MON thSI_Tsrf_max_N              =  -9.4347249607375E+00
(PID.TID 0000.0001) %MON thSI_Tic1_ave_G              =  -1.8496508184811E+01
(PID.TID 0000.0001) %MON thSI_Tic1_ave_S              =  -2.3121666387106E+00
(PID.TID 0000.0001) %MON thSI_Tic1_ave_N              =  -1.8498281968224E+01
(PID.TID 0000.0001) %MON thSI_Tic1_min_S              =  -2.3121666387106E+00
(PID.TID 0000.0001) %MON thSI_Tic1_min_N              =  -2.5727150046945E+01
(PID.TID 0000.0001) %MON thSI_Tic1_max_S              =  -2.3121666387106E+00
(PID.TID 0000.0001) %MON thSI_Tic1_max_N              =  -6.1008238815158E+00
(PID.TID 0000.0001) %MON thSI_Tic2_ave_G              =  -6.9183563954906E+00
(PID.TID 0000.0001) %MON thSI_Tic2_ave_S              =  -1.9802201040726E+00
(PID.TID 0000.0001) %MON thSI_Tic2_ave_N              =  -6.9188976089974E+00
(PID.TID 0000.0001) %MON thSI_Tic2_min_S              =  -1.9802201040726E+00
(PID.TID 0000.0001) %MON thSI_Tic2_min_N              =  -9.4218926188063E+00
(PID.TID 0000.0001) %MON thSI_Tic2_max_S              =  -1.9802201040726E+00
(PID.TID 0000.0001) %MON thSI_Tic2_max_N              =  -3.2027173067459E+00
(PID.TID 0000.0001) // =======================================================
(PID.TID 0000.0001) // End MONITOR Therm.SeaIce statistics
(PID.TID 0000.0001) // =======================================================
(PID.TID 0000.0001) %CHECKPOINT     72020 ckptA
(PID.TID 0000.0001)   Seconds in section "ALL                    [THE_MODEL_MAIN]":
(PID.TID 0000.0001)           User time:  36.3600006
(PID.TID 0000.0001)         System time:  0.419999987
(PID.TID 0000.0001)     Wall clock time:  36.801048
(PID.TID 0000.0001)          No. starts: 1
(PID.TID 0000.0001)           No. stops: 1
(PID.TID 0000.0001)   Seconds in section "INITIALISE_FIXED       [THE_MODEL_MAIN]":
(PID.TID 0000.0001)           User time:  0.340000004
(PID.TID 0000.0001)         System time:  0.0599999987
(PID.TID 0000.0001)     Wall clock time:  0.393679023
(PID.TID 0000.0001)          No. starts: 1
(PID.TID 0000.0001)           No. stops: 1
(PID.TID 0000.0001)   Seconds in section "THE_MAIN_LOOP          [THE_MODEL_MAIN]":
(PID.TID 0000.0001)           User time:  35.7400018
(PID.TID 0000.0001)         System time:  0.280000005
(PID.TID 0000.0001)     Wall clock time:  36.0492849
(PID.TID 0000.0001)          No. starts: 1
(PID.TID 0000.0001)           No. stops: 1
(PID.TID 0000.0001)   Seconds in section "INITIALISE_VARIA    [THE_MAIN_LOOP]":
(PID.TID 0000.0001)           User time:  0.400000006
(PID.TID 0000.0001)         System time:  0.0999999978
(PID.TID 0000.0001)     Wall clock time:  0.508970022
(PID.TID 0000.0001)          No. starts: 1
(PID.TID 0000.0001)           No. stops: 1
(PID.TID 0000.0001)   Seconds in section "MONITOR             [THE_MAIN_LOOP]":
(PID.TID 0000.0001)           User time:  0.189999998
(PID.TID 0000.0001)         System time:  0.
(PID.TID 0000.0001)     Wall clock time:  0.184610009
(PID.TID 0000.0001)          No. starts: 1
(PID.TID 0000.0001)           No. stops: 1
(PID.TID 0000.0001)   Seconds in section "DO_THE_MODEL_IO     [THE_MAIN_LOOP]":
(PID.TID 0000.0001)           User time:  0.0400000215
(PID.TID 0000.0001)         System time:  0.099999994
(PID.TID 0000.0001)     Wall clock time:  0.139966011
(PID.TID 0000.0001)          No. starts: 1
(PID.TID 0000.0001)           No. stops: 1
(PID.TID 0000.0001)   Seconds in section "MAIN LOOP           [THE_MAIN_LOOP]":
(PID.TID 0000.0001)           User time:  35.1100018
(PID.TID 0000.0001)         System time:  0.0800000131
(PID.TID 0000.0001)     Wall clock time:  35.215627
(PID.TID 0000.0001)          No. starts: 1
(PID.TID 0000.0001)           No. stops: 1
(PID.TID 0000.0001)   Seconds in section "FORWARD_STEP        [THE_MAIN_LOOP]":
(PID.TID 0000.0001)           User time:  35.1100018
(PID.TID 0000.0001)         System time:  0.0800000131
(PID.TID 0000.0001)     Wall clock time:  35.2151932
(PID.TID 0000.0001)          No. starts: 20
(PID.TID 0000.0001)           No. stops: 20
(PID.TID 0000.0001)   Seconds in section "UPDATE_ETAH        [FORWARD_STEP]":
(PID.TID 0000.0001)           User time:  0.0100002289
(PID.TID 0000.0001)         System time:  0.
(PID.TID 0000.0001)     Wall clock time:  0.00427591801
(PID.TID 0000.0001)          No. starts: 20
(PID.TID 0000.0001)           No. stops: 20
(PID.TID 0000.0001)   Seconds in section "BULKF_FORCING      [FORWARD_STEP]":
(PID.TID 0000.0001)           User time:  1.00000119
(PID.TID 0000.0001)         System time:  0.
(PID.TID 0000.0001)     Wall clock time:  0.996935964
(PID.TID 0000.0001)          No. starts: 20
(PID.TID 0000.0001)           No. stops: 20
(PID.TID 0000.0001)   Seconds in section "THSICE_MAIN        [FORWARD_STEP]":
(PID.TID 0000.0001)           User time:  0.159997225
(PID.TID 0000.0001)         System time:  0.
(PID.TID 0000.0001)     Wall clock time:  0.164793015
(PID.TID 0000.0001)          No. starts: 20
(PID.TID 0000.0001)           No. stops: 20
(PID.TID 0000.0001)   Seconds in section "THERMODYNAMICS      [FORWARD_STEP]":
(PID.TID 0000.0001)           User time:  12.3399967
(PID.TID 0000.0001)         System time:  0.
(PID.TID 0000.0001)     Wall clock time:  12.3594486
(PID.TID 0000.0001)          No. starts: 20
(PID.TID 0000.0001)           No. stops: 20
(PID.TID 0000.0001)   Seconds in section "BLOCKING_EXCHANGES  [FORWARD_STEP]":
(PID.TID 0000.0001)           User time:  0.149997473
(PID.TID 0000.0001)         System time:  0.
(PID.TID 0000.0001)     Wall clock time:  0.146281958
(PID.TID 0000.0001)          No. starts: 40
(PID.TID 0000.0001)           No. stops: 40
(PID.TID 0000.0001)   Seconds in section "DYNAMICS            [FORWARD_STEP]":
(PID.TID 0000.0001)           User time:  10.5799996
(PID.TID 0000.0001)         System time:  0.
(PID.TID 0000.0001)     Wall clock time:  10.5654755
(PID.TID 0000.0001)          No. starts: 20
(PID.TID 0000.0001)           No. stops: 20
(PID.TID 0000.0001)   Seconds in section "SOLVE_FOR_PRESSURE  [FORWARD_STEP]":
(PID.TID 0000.0001)           User time:  4.72000146
(PID.TID 0000.0001)         System time:  0.
(PID.TID 0000.0001)     Wall clock time:  4.71507406
(PID.TID 0000.0001)          No. starts: 20
(PID.TID 0000.0001)           No. stops: 20
(PID.TID 0000.0001)   Seconds in section "THE_CORRECTION_STEP [FORWARD_STEP]":
(PID.TID 0000.0001)           User time:  2.32000613
(PID.TID 0000.0001)         System time:  0.
(PID.TID 0000.0001)     Wall clock time:  2.33653212
(PID.TID 0000.0001)          No. starts: 20
(PID.TID 0000.0001)           No. stops: 20
(PID.TID 0000.0001)   Seconds in section "MONITOR             [FORWARD_STEP]":
(PID.TID 0000.0001)           User time:  3.71000123
(PID.TID 0000.0001)         System time:  0.
(PID.TID 0000.0001)     Wall clock time:  3.69289553
(PID.TID 0000.0001)          No. starts: 20
(PID.TID 0000.0001)           No. stops: 20
(PID.TID 0000.0001)   Seconds in section "DO_THE_MODEL_IO     [FORWARD_STEP]":
(PID.TID 0000.0001)           User time:  0.120000601
(PID.TID 0000.0001)         System time:  0.0800000131
(PID.TID 0000.0001)     Wall clock time:  0.227379799
(PID.TID 0000.0001)          No. starts: 20
(PID.TID 0000.0001)           No. stops: 20
(PID.TID 0000.0001)   Seconds in section "WRITE_CHECKPOINT    [FORWARD_STEP]":
(PID.TID 0000.0001)           User time:  0.
(PID.TID 0000.0001)         System time:  0.
(PID.TID 0000.0001)     Wall clock time:  0.000437021255
(PID.TID 0000.0001)          No. starts: 20
(PID.TID 0000.0001)           No. stops: 20
(PID.TID 0000.0001)   Seconds in section "WRITE_CHECKPOINT       [THE_MODEL_MAIN]":
(PID.TID 0000.0001)           User time:  0.270000458
(PID.TID 0000.0001)         System time:  0.0799999833
(PID.TID 0000.0001)     Wall clock time:  0.357961059
(PID.TID 0000.0001)          No. starts: 1
(PID.TID 0000.0001)           No. stops: 1
(PID.TID 0000.0001) // ======================================================
(PID.TID 0000.0001) // Tile <-> Tile communication statistics
(PID.TID 0000.0001) // ======================================================
(PID.TID 0000.0001) // o Tile number: 000001
(PID.TID 0000.0001) //         No. X exchanges =              0
(PID.TID 0000.0001) //            Max. X spins =              0
(PID.TID 0000.0001) //            Min. X spins =     1000000000
(PID.TID 0000.0001) //          Total. X spins =              0
(PID.TID 0000.0001) //            Avg. X spins =       0.00E+00
(PID.TID 0000.0001) //         No. Y exchanges =              0
(PID.TID 0000.0001) //            Max. Y spins =              0
(PID.TID 0000.0001) //            Min. Y spins =     1000000000
(PID.TID 0000.0001) //          Total. Y spins =              0
(PID.TID 0000.0001) //            Avg. Y spins =       0.00E+00
(PID.TID 0000.0001) // o Tile number: 000002
(PID.TID 0000.0001) //         No. X exchanges =              0
(PID.TID 0000.0001) //            Max. X spins =              0
(PID.TID 0000.0001) //            Min. X spins =     1000000000
(PID.TID 0000.0001) //          Total. X spins =              0
(PID.TID 0000.0001) //            Avg. X spins =       0.00E+00
(PID.TID 0000.0001) //         No. Y exchanges =              0
(PID.TID 0000.0001) //            Max. Y spins =              0
(PID.TID 0000.0001) //            Min. Y spins =     1000000000
(PID.TID 0000.0001) //          Total. Y spins =              0
(PID.TID 0000.0001) //            Avg. Y spins =       0.00E+00
(PID.TID 0000.0001) // o Tile number: 000003
(PID.TID 0000.0001) //         No. X exchanges =              0
(PID.TID 0000.0001) //            Max. X spins =              0
(PID.TID 0000.0001) //            Min. X spins =     1000000000
(PID.TID 0000.0001) //          Total. X spins =              0
(PID.TID 0000.0001) //            Avg. X spins =       0.00E+00
(PID.TID 0000.0001) //         No. Y exchanges =              0
(PID.TID 0000.0001) //            Max. Y spins =              0
(PID.TID 0000.0001) //            Min. Y spins =     1000000000
(PID.TID 0000.0001) //          Total. Y spins =              0
(PID.TID 0000.0001) //            Avg. Y spins =       0.00E+00
(PID.TID 0000.0001) // o Tile number: 000004
(PID.TID 0000.0001) //         No. X exchanges =              0
(PID.TID 0000.0001) //            Max. X spins =              0
(PID.TID 0000.0001) //            Min. X spins =     1000000000
(PID.TID 0000.0001) //          Total. X spins =              0
(PID.TID 0000.0001) //            Avg. X spins =       0.00E+00
(PID.TID 0000.0001) //         No. Y exchanges =              0
(PID.TID 0000.0001) //            Max. Y spins =              0
(PID.TID 0000.0001) //            Min. Y spins =     1000000000
(PID.TID 0000.0001) //          Total. Y spins =              0
(PID.TID 0000.0001) //            Avg. Y spins =       0.00E+00
(PID.TID 0000.0001) // o Tile number: 000005
(PID.TID 0000.0001) //         No. X exchanges =              0
(PID.TID 0000.0001) //            Max. X spins =              0
(PID.TID 0000.0001) //            Min. X spins =     1000000000
(PID.TID 0000.0001) //          Total. X spins =              0
(PID.TID 0000.0001) //            Avg. X spins =       0.00E+00
(PID.TID 0000.0001) //         No. Y exchanges =              0
(PID.TID 0000.0001) //            Max. Y spins =              0
(PID.TID 0000.0001) //            Min. Y spins =     1000000000
(PID.TID 0000.0001) //          Total. Y spins =              0
(PID.TID 0000.0001) //            Avg. Y spins =       0.00E+00
(PID.TID 0000.0001) // o Tile number: 000006
(PID.TID 0000.0001) //         No. X exchanges =              0
(PID.TID 0000.0001) //            Max. X spins =              0
(PID.TID 0000.0001) //            Min. X spins =     1000000000
(PID.TID 0000.0001) //          Total. X spins =              0
(PID.TID 0000.0001) //            Avg. X spins =       0.00E+00
(PID.TID 0000.0001) //         No. Y exchanges =              0
(PID.TID 0000.0001) //            Max. Y spins =              0
(PID.TID 0000.0001) //            Min. Y spins =     1000000000
(PID.TID 0000.0001) //          Total. Y spins =              0
(PID.TID 0000.0001) //            Avg. Y spins =       0.00E+00
(PID.TID 0000.0001) // o Thread number: 000001
(PID.TID 0000.0001) //            No. barriers =          33838
(PID.TID 0000.0001) //      Max. barrier spins =              1
(PID.TID 0000.0001) //      Min. barrier spins =              1
(PID.TID 0000.0001) //     Total barrier spins =          33838
(PID.TID 0000.0001) //      Avg. barrier spins =       1.00E+00
