(PID.TID 0000.0001) 
(PID.TID 0000.0001) // ======================================================
(PID.TID 0000.0001) //                      MITgcm UV
(PID.TID 0000.0001) //                      =========
(PID.TID 0000.0001) // ======================================================
(PID.TID 0000.0001) // execution environment starting up...
(PID.TID 0000.0001) 
(PID.TID 0000.0001) // MITgcmUV version:  checkpoint63j
(PID.TID 0000.0001) // Build user:        heimbach
(PID.TID 0000.0001) // Build host:        baudelaire
(PID.TID 0000.0001) // Build date:        Sun Mar 11 18:38:52 EDT 2012
(PID.TID 0000.0001) 
(PID.TID 0000.0001) // =======================================================
(PID.TID 0000.0001) // Execution Environment parameter file "eedata"
(PID.TID 0000.0001) // =======================================================
(PID.TID 0000.0001) ># Example "eedata" file
(PID.TID 0000.0001) ># Lines beginning "#" are comments
(PID.TID 0000.0001) ># nTx - No. threads per process in X
(PID.TID 0000.0001) ># nTy - No. threads per process in Y
(PID.TID 0000.0001) > &EEPARMS
(PID.TID 0000.0001) > useCubedSphereExchange=.TRUE.,
(PID.TID 0000.0001) > nTx=1,
(PID.TID 0000.0001) > nTy=1,
(PID.TID 0000.0001) > /
(PID.TID 0000.0001) ># Note: Some systems use & as the
(PID.TID 0000.0001) ># namelist terminator. Other systems
(PID.TID 0000.0001) ># use a / character (as shown here).
(PID.TID 0000.0001) 
(PID.TID 0000.0001) // =======================================================
(PID.TID 0000.0001) // Computational Grid Specification ( see files "SIZE.h" )
(PID.TID 0000.0001) //                                  ( and "eedata"       )
(PID.TID 0000.0001) // =======================================================
(PID.TID 0000.0001)      nPx =    1 ; /* No. processes in X */
(PID.TID 0000.0001)      nPy =    1 ; /* No. processes in Y */
(PID.TID 0000.0001)      nSx =   12 ; /* No. tiles in X per process */
(PID.TID 0000.0001)      nSy =    1 ; /* No. tiles in Y per process */
(PID.TID 0000.0001)      sNx =   32 ; /* Tile size in X */
(PID.TID 0000.0001)      sNy =   16 ; /* Tile size in Y */
(PID.TID 0000.0001)      OLx =    4 ; /* Tile overlap distance in X */
(PID.TID 0000.0001)      OLy =    4 ; /* Tile overlap distance in Y */
(PID.TID 0000.0001)      nTx =    1 ; /* No. threads in X per process */
(PID.TID 0000.0001)      nTy =    1 ; /* No. threads in Y per process */
(PID.TID 0000.0001)       Nr =   15 ; /* No. levels in the vertical   */
(PID.TID 0000.0001)       Nx =  384 ; /* Total domain size in X ( = nPx*nSx*sNx ) */
(PID.TID 0000.0001)       Ny =   16 ; /* Total domain size in Y ( = nPy*nSy*sNy ) */
(PID.TID 0000.0001)   nTiles =   12 ; /* Total no. tiles per process ( = nSx*nSy ) */
(PID.TID 0000.0001)   nProcs =    1 ; /* Total no. processes ( = nPx*nPy ) */
(PID.TID 0000.0001) nThreads =    1 ; /* Total no. threads per process ( = nTx*nTy ) */
(PID.TID 0000.0001) usingMPI =    F ; /* Flag used to control whether MPI is in use */
(PID.TID 0000.0001)                   /*  note: To execute a program with MPI calls */
(PID.TID 0000.0001)                   /*  it must be launched appropriately e.g     */
(PID.TID 0000.0001)                   /*  "mpirun -np 64 ......"                    */
(PID.TID 0000.0001) useCoupler=    F ;/* Flag used to control communications with   */
(PID.TID 0000.0001)                   /*  other model components, through a coupler */
(PID.TID 0000.0001) debugMode =    F ; /* print debug msg. (sequence of S/R calls)  */
(PID.TID 0000.0001) printMapIncludesZeros=    F ; /* print zeros in Std.Output maps */
(PID.TID 0000.0001) maxLengthPrt1D=   65 /* maxLength of 1D array printed to StdOut */
(PID.TID 0000.0001) 
(PID.TID 0000.0001) // ======================================================
(PID.TID 0000.0001) // Mapping of tiles to threads
(PID.TID 0000.0001) // ======================================================
(PID.TID 0000.0001) // -o- Thread   1, tiles (   1:  12,   1:   1)
(PID.TID 0000.0001) 
(PID.TID 0000.0001) W2_READPARMS: file data.exch2 not found
(PID.TID 0000.0001) => use W2_EXCH2 default: regular 6-facets Cube
(PID.TID 0000.0001) W2_useE2ioLayOut=    T ;/* T: use Exch2 glob IO map; F: use model default */
(PID.TID 0000.0001) W2_mapIO        =  -1 ; /* select option for Exch2 global-IO map */
(PID.TID 0000.0001) W2_printMsg     =  -1 ; /* select option for printing information */
(PID.TID 0000.0001) ===== Start setting W2 TOPOLOGY:
(PID.TID 0000.0001)  write to log-file: w2_tile_topology.0000.log
(PID.TID 0000.0001) =====       setting W2 TOPOLOGY: Done
(PID.TID 0000.0001) 
(PID.TID 0000.0001)  INI_PARMS: opening model parameter file "data"
(PID.TID 0000.0001)  OPEN_COPY_DATA_FILE: opening file data
(PID.TID 0000.0001) // =======================================================
(PID.TID 0000.0001) // Parameter file "data"
(PID.TID 0000.0001) // =======================================================
(PID.TID 0000.0001) ># ====================
(PID.TID 0000.0001) ># | Model parameters |
(PID.TID 0000.0001) ># ====================
(PID.TID 0000.0001) >#
(PID.TID 0000.0001) ># Continuous equation parameters
(PID.TID 0000.0001) > &PARM01
(PID.TID 0000.0001) > tRef=15*20.,
(PID.TID 0000.0001) > sRef=15*35.,
(PID.TID 0000.0001) > viscAh =3.E5,
(PID.TID 0000.0001) >#- biharmonic Viscosity: 3.e15 is close to the stability limit with deltaTmom=20mn
(PID.TID 0000.0001) >#viscA4 =3.E15,
(PID.TID 0000.0001) > viscAr =1.E-3,
(PID.TID 0000.0001) > diffKhT=0.,
(PID.TID 0000.0001) > diffK4T=0.,
(PID.TID 0000.0001) > diffKrT=3.E-5,
(PID.TID 0000.0001) > diffKhS=0.,
(PID.TID 0000.0001) > diffK4S=0.,
(PID.TID 0000.0001) > diffKrS=3.E-5,
(PID.TID 0000.0001) > ivdc_kappa=10.,
(PID.TID 0000.0001) > implicitDiffusion=.TRUE.,
(PID.TID 0000.0001) > rotationPeriod=86400.,
(PID.TID 0000.0001) > gravity=9.81,
(PID.TID 0000.0001) > rhonil=1035.,
(PID.TID 0000.0001) > rhoConstFresh=1000.,
(PID.TID 0000.0001) > eosType='JMD95Z',
(PID.TID 0000.0001) > staggerTimeStep=.TRUE.,
(PID.TID 0000.0001) > vectorInvariantMomentum=.TRUE.,
(PID.TID 0000.0001) > implicitFreeSurface=.TRUE.,
(PID.TID 0000.0001) > tempAdvScheme=30,
(PID.TID 0000.0001) > saltAdvScheme=30,
(PID.TID 0000.0001) > tempVertAdvScheme=30,
(PID.TID 0000.0001) > saltVertAdvScheme=30,
(PID.TID 0000.0001) > tempImplVertAdv=.TRUE.,
(PID.TID 0000.0001) > saltImplVertAdv=.TRUE.,
(PID.TID 0000.0001) > exactConserv=.TRUE.,
(PID.TID 0000.0001) > select_rStar=2,
(PID.TID 0000.0001) > nonlinFreeSurf=2,
(PID.TID 0000.0001) > hFacInf=0.2,
(PID.TID 0000.0001) > hFacSup=2.0,
(PID.TID 0000.0001) > useRealFreshWaterFlux=.TRUE.,
(PID.TID 0000.0001) > allowFreezing=.TRUE.,
(PID.TID 0000.0001) > hFacMin=.1,
(PID.TID 0000.0001) > hFacMinDr=20.,
(PID.TID 0000.0001) > readBinaryPrec=64,
(PID.TID 0000.0001) > /
(PID.TID 0000.0001) >
(PID.TID 0000.0001) ># Elliptic solver parameters
(PID.TID 0000.0001) > &PARM02
(PID.TID 0000.0001) > cg2dMaxIters=200,
(PID.TID 0000.0001) >#cg2dTargetResidual=1.E-9,
(PID.TID 0000.0001) > cg2dTargetResWunit=1.E-14,
(PID.TID 0000.0001) > /
(PID.TID 0000.0001) >
(PID.TID 0000.0001) ># Time stepping parameters
(PID.TID 0000.0001) > &PARM03
(PID.TID 0000.0001) > nIter0=72000,
(PID.TID 0000.0001) ># nIter0=0,
(PID.TID 0000.0001) ># nTimeSteps=365,
(PID.TID 0000.0001) > nTimeSteps=20,
(PID.TID 0000.0001) > deltaTmom   =1200.,
(PID.TID 0000.0001) > deltaTtracer=86400.,
(PID.TID 0000.0001) > deltaTfreesurf=86400.,
(PID.TID 0000.0001) > deltaTClock =86400.,
(PID.TID 0000.0001) > abEps = 0.1,
(PID.TID 0000.0001) >#forcing_In_AB=.FALSE.,
(PID.TID 0000.0001) > tracForcingOutAB=1,
(PID.TID 0000.0001) > pChkptFreq  =1728000.,
(PID.TID 0000.0001) ># chkptFreq   =864000.,
(PID.TID 0000.0001) ># taveFreq    =1244160000.,
(PID.TID 0000.0001) ># dumpFreq    =6307200.,
(PID.TID 0000.0001) ># adjDumpFreq  =6307200.,
(PID.TID 0000.0001) > dumpFreq    =86400.,
(PID.TID 0000.0001) ># adjDumpFreq  =86400.,
(PID.TID 0000.0001) ># monitorFreq =31104000.,
(PID.TID 0000.0001) > periodicExternalForcing=.TRUE.,
(PID.TID 0000.0001) > externForcingPeriod=2592000.,
(PID.TID 0000.0001) > externForcingCycle=31104000.,
(PID.TID 0000.0001) ># 2 months restoring timescale for temperature
(PID.TID 0000.0001) > tauThetaClimRelax = 5184000.,
(PID.TID 0000.0001) ># 2yrs restoring timescale for salinity
(PID.TID 0000.0001) > tauSaltClimRelax = 62208000.,
(PID.TID 0000.0001) > monitorFreq =1.,
(PID.TID 0000.0001) > adjMonitorFreq =1.,
(PID.TID 0000.0001) > adjDumpFreq    =86400.,
(PID.TID 0000.0001) > pickupStrictlyMatch=.FALSE.,
(PID.TID 0000.0001) > /
(PID.TID 0000.0001) >
(PID.TID 0000.0001) ># Gridding parameters
(PID.TID 0000.0001) > &PARM04
(PID.TID 0000.0001) > usingCurvilinearGrid=.TRUE.,
(PID.TID 0000.0001) > horizGridFile='grid_cs32',
(PID.TID 0000.0001) > delR= 50., 70., 100., 140., 190.,
(PID.TID 0000.0001) >       240., 290., 340., 390., 440.,
(PID.TID 0000.0001) >       490., 540., 590., 640., 690.,
(PID.TID 0000.0001) > /
(PID.TID 0000.0001) >
(PID.TID 0000.0001) ># Input datasets
(PID.TID 0000.0001) > &PARM05
(PID.TID 0000.0001) > bathyFile      ='bathy_Hmin50.bin',
(PID.TID 0000.0001) > hydrogThetaFile='lev_T_cs_15k.bin',
(PID.TID 0000.0001) > hydrogSaltFile ='lev_S_cs_15k.bin',
(PID.TID 0000.0001) > zonalWindFile  ='trenberth_taux.bin',
(PID.TID 0000.0001) > meridWindFile  ='trenberth_tauy.bin',
(PID.TID 0000.0001) > thetaClimFile  ='lev_surfT_cs_12m.bin',
(PID.TID 0000.0001) > saltClimFile   ='lev_surfS_cs_12m.bin',
(PID.TID 0000.0001) > surfQFile      ='shiQnet_cs32.bin',
(PID.TID 0000.0001) > EmPmRFile      ='shiEmPR_cs32.bin',
(PID.TID 0000.0001) > /
(PID.TID 0000.0001) 
(PID.TID 0000.0001)  INI_PARMS ; starts to read PARM01
(PID.TID 0000.0001)  INI_PARMS ; read PARM01 : OK
(PID.TID 0000.0001)  INI_PARMS ; starts to read PARM02
(PID.TID 0000.0001)  INI_PARMS ; read PARM02 : OK
(PID.TID 0000.0001)  INI_PARMS ; starts to read PARM03
(PID.TID 0000.0001)  INI_PARMS ; read PARM03 : OK
(PID.TID 0000.0001)  INI_PARMS ; starts to read PARM04
(PID.TID 0000.0001)  INI_PARMS ; read PARM04 : OK
(PID.TID 0000.0001)  INI_PARMS ; starts to read PARM05
(PID.TID 0000.0001)  INI_PARMS ; read PARM05 : OK
(PID.TID 0000.0001)  INI_PARMS: finished reading file "data"
(PID.TID 0000.0001)  PACKAGES_BOOT: opening data.pkg
(PID.TID 0000.0001)  OPEN_COPY_DATA_FILE: opening file data.pkg
(PID.TID 0000.0001) // =======================================================
(PID.TID 0000.0001) // Parameter file "data.pkg"
(PID.TID 0000.0001) // =======================================================
(PID.TID 0000.0001) ># Packages
(PID.TID 0000.0001) > &PACKAGES
(PID.TID 0000.0001) > useGMRedi = .TRUE.,
(PID.TID 0000.0001) > useEXF    = .FALSE.,
(PID.TID 0000.0001) > useTHSICE = .FALSE.,
(PID.TID 0000.0001) >#useDiagnostics=.TRUE.,
(PID.TID 0000.0001) >#useMNC=.TRUE.,
(PID.TID 0000.0001) > useGrdchk=.TRUE.,
(PID.TID 0000.0001) > /
(PID.TID 0000.0001) 
(PID.TID 0000.0001)  PACKAGES_BOOT: finished reading data.pkg
(PID.TID 0000.0001)  GM_READPARMS: opening data.gmredi
(PID.TID 0000.0001)  OPEN_COPY_DATA_FILE: opening file data.gmredi
(PID.TID 0000.0001) // =======================================================
(PID.TID 0000.0001) // Parameter file "data.gmredi"
(PID.TID 0000.0001) // =======================================================
(PID.TID 0000.0001) ># GM+Redi package parameters:
(PID.TID 0000.0001) >#     GM_Small_Number  :: epsilon used in computing the slope
(PID.TID 0000.0001) >#     GM_slopeSqCutoff :: slope^2 cut-off value
(PID.TID 0000.0001) >
(PID.TID 0000.0001) >#-from MOM :
(PID.TID 0000.0001) ># GM_background_K: 	G & Mc.W  diffusion coefficient
(PID.TID 0000.0001) ># GM_maxSlope    :	max slope of isopycnals
(PID.TID 0000.0001) ># GM_Scrit       :	transition for scaling diffusion coefficient
(PID.TID 0000.0001) ># GM_Sd          :	half width scaling for diffusion coefficient
(PID.TID 0000.0001) ># GM_taper_scheme:	slope clipping or one of the tapering schemes
(PID.TID 0000.0001) ># GM_Kmin_horiz  :	horizontal diffusion minimum value
(PID.TID 0000.0001) >
(PID.TID 0000.0001) >#-Option parameters (needs to "define" options in GMREDI_OPTIONS.h")
(PID.TID 0000.0001) ># GM_isopycK     :	isopycnal diffusion coefficient (default=GM_background_K)
(PID.TID 0000.0001) ># GM_AdvForm     :	turn on GM Advective form       (default=Skew flux form)
(PID.TID 0000.0001) >
(PID.TID 0000.0001) > &GM_PARM01
(PID.TID 0000.0001) >  GM_Small_Number  = 1.D-20,
(PID.TID 0000.0001) >  GM_slopeSqCutoff = 1.D+08,
(PID.TID 0000.0001) >  GM_AdvForm         = .FALSE.,
(PID.TID 0000.0001) >  GM_background_K    = 1.D+3,
(PID.TID 0000.0001) >  GM_taper_scheme    = 'dm95',
(PID.TID 0000.0001) >  GM_maxSlope        = 1.D-2,
(PID.TID 0000.0001) >  GM_Kmin_horiz      = 50.,
(PID.TID 0000.0001) >  GM_Scrit           = 4.D-3,
(PID.TID 0000.0001) >  GM_Sd              = 1.D-3,
(PID.TID 0000.0001) >#  GM_Visbeck_alpha   = 1.5D-2,
(PID.TID 0000.0001) >  GM_Visbeck_alpha   = 0.,
(PID.TID 0000.0001) >  GM_Visbeck_length  = 2.D+5,
(PID.TID 0000.0001) >  GM_Visbeck_depth   = 1.D+3,
(PID.TID 0000.0001) >  GM_Visbeck_maxval_K= 2.5D+3,
(PID.TID 0000.0001) > /
(PID.TID 0000.0001) >
(PID.TID 0000.0001) >
(PID.TID 0000.0001) 
(PID.TID 0000.0001)  GM_READPARMS: finished reading data.gmredi
(PID.TID 0000.0001) OPTIM_READPARMS: opening data.optim
(PID.TID 0000.0001)  OPEN_COPY_DATA_FILE: opening file data.optim
(PID.TID 0000.0001) // =======================================================
(PID.TID 0000.0001) // Parameter file "data.optim"
(PID.TID 0000.0001) // =======================================================
(PID.TID 0000.0001) > &OPTIM
(PID.TID 0000.0001) > optimcycle=0,
(PID.TID 0000.0001) > /
(PID.TID 0000.0001) 
(PID.TID 0000.0001) OPTIM_READPARMS: finished reading data.optim
(PID.TID 0000.0001) CTRL_READPARMS: opening data.ctrl
(PID.TID 0000.0001)  OPEN_COPY_DATA_FILE: opening file data.ctrl
(PID.TID 0000.0001) // =======================================================
(PID.TID 0000.0001) // Parameter file "data.ctrl"
(PID.TID 0000.0001) // =======================================================
(PID.TID 0000.0001) >#
(PID.TID 0000.0001) >#
(PID.TID 0000.0001) ># *********************
(PID.TID 0000.0001) ># ECCO controlvariables
(PID.TID 0000.0001) ># *********************
(PID.TID 0000.0001) > &CTRL_NML
(PID.TID 0000.0001) > xx_theta_file      ='xx_theta',
(PID.TID 0000.0001) > xx_salt_file       ='xx_salt',
(PID.TID 0000.0001) >#
(PID.TID 0000.0001) > xx_hfluxstartdate1 = 19790101,
(PID.TID 0000.0001) > xx_hfluxstartdate2 = 000000,
(PID.TID 0000.0001) > xx_hfluxperiod     = 864000.0,
(PID.TID 0000.0001) > xx_hflux_file      = 'xx_hfl',
(PID.TID 0000.0001) >#
(PID.TID 0000.0001) > xx_sfluxstartdate1 = 19790101,
(PID.TID 0000.0001) > xx_sfluxstartdate2 = 000000,
(PID.TID 0000.0001) > xx_sfluxperiod     = 864000.0,
(PID.TID 0000.0001) > xx_sflux_file      = 'xx_sfl',
(PID.TID 0000.0001) >#
(PID.TID 0000.0001) > xx_tauustartdate1 = 19790101,
(PID.TID 0000.0001) > xx_tauustartdate2 = 000000,
(PID.TID 0000.0001) > xx_tauuperiod     = 864000.0,
(PID.TID 0000.0001) > xx_tauu_file      = 'xx_tauu',
(PID.TID 0000.0001) >#
(PID.TID 0000.0001) > xx_tauvstartdate1 = 19790101,
(PID.TID 0000.0001) > xx_tauvstartdate2 = 000000,
(PID.TID 0000.0001) > xx_tauvperiod     = 864000.0,
(PID.TID 0000.0001) > xx_tauv_file      = 'xx_tauv',
(PID.TID 0000.0001) >#
(PID.TID 0000.0001) > xx_atempstartdate1 = 19790101,
(PID.TID 0000.0001) > xx_atempstartdate2 = 000000,
(PID.TID 0000.0001) > xx_atempperiod     = 864000.0,
(PID.TID 0000.0001) > xx_atemp_file      = 'xx_atemp',
(PID.TID 0000.0001) >#
(PID.TID 0000.0001) > xx_aqhstartdate1 = 19790101,
(PID.TID 0000.0001) > xx_aqhstartdate2 = 000000,
(PID.TID 0000.0001) > xx_aqhperiod     = 864000.0,
(PID.TID 0000.0001) > xx_aqh_file      = 'xx_aqh',
(PID.TID 0000.0001) >#
(PID.TID 0000.0001) > xx_precipstartdate1 = 19790101,
(PID.TID 0000.0001) > xx_precipstartdate2 = 000000,
(PID.TID 0000.0001) > xx_precipperiod     = 864000.0,
(PID.TID 0000.0001) > xx_precip_file      = 'xx_precip',
(PID.TID 0000.0001) >#
(PID.TID 0000.0001) > xx_swdownstartdate1 = 19790101,
(PID.TID 0000.0001) > xx_swdownstartdate2 = 000000,
(PID.TID 0000.0001) > xx_swdownperiod     = 864000.0,
(PID.TID 0000.0001) > xx_swdown_file      = 'xx_swdown',
(PID.TID 0000.0001) >#
(PID.TID 0000.0001) > xx_uwindstartdate1 = 19790101,
(PID.TID 0000.0001) > xx_uwindstartdate2 = 000000,
(PID.TID 0000.0001) > xx_uwindperiod     = 864000.0,
(PID.TID 0000.0001) > xx_uwind_file      = 'xx_uwind',
(PID.TID 0000.0001) >#
(PID.TID 0000.0001) > xx_vwindstartdate1 = 19790101,
(PID.TID 0000.0001) > xx_vwindstartdate2 = 000000,
(PID.TID 0000.0001) > xx_vwindperiod     = 864000.0,
(PID.TID 0000.0001) > xx_vwind_file      = 'xx_vwind',
(PID.TID 0000.0001) >#
(PID.TID 0000.0001) > xx_sststartdate1 = 19790101,
(PID.TID 0000.0001) > xx_sststartdate2 = 000000,
(PID.TID 0000.0001) > xx_sstperiod     = 864000.0,
(PID.TID 0000.0001) > xx_sst_file      = 'xx_sst',
(PID.TID 0000.0001) >#
(PID.TID 0000.0001) > xx_sssstartdate1 = 19790101,
(PID.TID 0000.0001) > xx_sssstartdate2 = 000000,
(PID.TID 0000.0001) > xx_sssperiod     = 864000.0,
(PID.TID 0000.0001) > xx_sss_file      = 'xx_sss',
(PID.TID 0000.0001) > /
(PID.TID 0000.0001) >#
(PID.TID 0000.0001) ># *********************
(PID.TID 0000.0001) ># names for ctrl_pack/unpack
(PID.TID 0000.0001) ># *********************
(PID.TID 0000.0001) > &CTRL_PACKNAMES
(PID.TID 0000.0001) > /
(PID.TID 0000.0001) 
(PID.TID 0000.0001) CTRL_READPARMS: finished reading data.ctrl
(PID.TID 0000.0001) COST_READPARMS: opening data.cost
(PID.TID 0000.0001)  OPEN_COPY_DATA_FILE: opening file data.cost
(PID.TID 0000.0001) // =======================================================
(PID.TID 0000.0001) // Parameter file "data.cost"
(PID.TID 0000.0001) // =======================================================
(PID.TID 0000.0001) >#
(PID.TID 0000.0001) >#
(PID.TID 0000.0001) ># ******************
(PID.TID 0000.0001) ># cost function
(PID.TID 0000.0001) ># ******************
(PID.TID 0000.0001) > &COST_NML
(PID.TID 0000.0001) >#revert to default 1 month
(PID.TID 0000.0001) ># lastinterval=7776000.,
(PID.TID 0000.0001) > mult_test=1.,
(PID.TID 0000.0001) > /
(PID.TID 0000.0001) 
(PID.TID 0000.0001) COST_READPARMS: finished reading data.cost
(PID.TID 0000.0001) GRDCHK_READPARMS: opening data.grdchk
(PID.TID 0000.0001)  OPEN_COPY_DATA_FILE: opening file data.grdchk
(PID.TID 0000.0001) // =======================================================
(PID.TID 0000.0001) // Parameter file "data.grdchk"
(PID.TID 0000.0001) // =======================================================
(PID.TID 0000.0001) ># *******************
(PID.TID 0000.0001) ># ECCO gradient check
(PID.TID 0000.0001) ># *******************
(PID.TID 0000.0001) > &GRDCHK_NML
(PID.TID 0000.0001) > grdchk_eps       = 1.d-2,
(PID.TID 0000.0001) >#  iglopos         = 6,
(PID.TID 0000.0001) >#  jglopos         = 17,
(PID.TID 0000.0001) >#  kglopos         = 1,
(PID.TID 0000.0001) > nbeg             = 1,
(PID.TID 0000.0001) > nstep            = 1,
(PID.TID 0000.0001) > nend             = 4,
(PID.TID 0000.0001) > grdchkvarindex   = 1,
(PID.TID 0000.0001) > /
(PID.TID 0000.0001) 
(PID.TID 0000.0001) GRDCHK_READPARMS: finished reading data.grdchk
(PID.TID 0000.0001) 
(PID.TID 0000.0001) // =======================================================
(PID.TID 0000.0001) // Gradient check configuration  >>> START <<<
(PID.TID 0000.0001) // =======================================================
(PID.TID 0000.0001) 
(PID.TID 0000.0001)   eps:                              0.100E-01
(PID.TID 0000.0001)   First location:                           1
(PID.TID 0000.0001)   Last location:                            4
(PID.TID 0000.0001)   Increment:                                1
(PID.TID 0000.0001)   grdchkWhichProc:                          0
(PID.TID 0000.0001)   iLocTile =       1  ,    jLocTile =       1
(PID.TID 0000.0001) 
(PID.TID 0000.0001) // =======================================================
(PID.TID 0000.0001) // Gradient check configuration  >>> END <<<
(PID.TID 0000.0001) // =======================================================
(PID.TID 0000.0001) 
(PID.TID 0000.0001) SET_PARMS: done
(PID.TID 0000.0001) Enter INI_VERTICAL_GRID: setInterFDr=    T ; setCenterDr=    F
(PID.TID 0000.0001) tile:   1 ; Read from file grid_cs32.face001.bin
(PID.TID 0000.0001)   => xC yC dxF dyF rA xG yG dxV dyU rAz dxC dyC rAw rAs dxG dyG AngleCS AngleSN
(PID.TID 0000.0001) tile:   2 ; Read from file grid_cs32.face001.bin
(PID.TID 0000.0001)   => xC yC dxF dyF rA xG yG dxV dyU rAz dxC dyC rAw rAs dxG dyG AngleCS AngleSN
(PID.TID 0000.0001) tile:   3 ; Read from file grid_cs32.face002.bin
(PID.TID 0000.0001)   => xC yC dxF dyF rA xG yG dxV dyU rAz dxC dyC rAw rAs dxG dyG AngleCS AngleSN
(PID.TID 0000.0001) tile:   4 ; Read from file grid_cs32.face002.bin
(PID.TID 0000.0001)   => xC yC dxF dyF rA xG yG dxV dyU rAz dxC dyC rAw rAs dxG dyG AngleCS AngleSN
(PID.TID 0000.0001) tile:   5 ; Read from file grid_cs32.face003.bin
(PID.TID 0000.0001)   => xC yC dxF dyF rA xG yG dxV dyU rAz dxC dyC rAw rAs dxG dyG AngleCS AngleSN
(PID.TID 0000.0001) tile:   6 ; Read from file grid_cs32.face003.bin
(PID.TID 0000.0001)   => xC yC dxF dyF rA xG yG dxV dyU rAz dxC dyC rAw rAs dxG dyG AngleCS AngleSN
(PID.TID 0000.0001) tile:   7 ; Read from file grid_cs32.face004.bin
(PID.TID 0000.0001)   => xC yC dxF dyF rA xG yG dxV dyU rAz dxC dyC rAw rAs dxG dyG AngleCS AngleSN
(PID.TID 0000.0001) tile:   8 ; Read from file grid_cs32.face004.bin
(PID.TID 0000.0001)   => xC yC dxF dyF rA xG yG dxV dyU rAz dxC dyC rAw rAs dxG dyG AngleCS AngleSN
(PID.TID 0000.0001) tile:   9 ; Read from file grid_cs32.face005.bin
(PID.TID 0000.0001)   => xC yC dxF dyF rA xG yG dxV dyU rAz dxC dyC rAw rAs dxG dyG AngleCS AngleSN
(PID.TID 0000.0001) tile:  10 ; Read from file grid_cs32.face005.bin
(PID.TID 0000.0001)   => xC yC dxF dyF rA xG yG dxV dyU rAz dxC dyC rAw rAs dxG dyG AngleCS AngleSN
(PID.TID 0000.0001) tile:  11 ; Read from file grid_cs32.face006.bin
(PID.TID 0000.0001)   => xC yC dxF dyF rA xG yG dxV dyU rAz dxC dyC rAw rAs dxG dyG AngleCS AngleSN
(PID.TID 0000.0001) tile:  12 ; Read from file grid_cs32.face006.bin
(PID.TID 0000.0001)   => xC yC dxF dyF rA xG yG dxV dyU rAz dxC dyC rAw rAs dxG dyG AngleCS AngleSN
(PID.TID 0000.0001) %MON XC_max                       =   1.7854351589505E+02
(PID.TID 0000.0001) %MON XC_min                       =  -1.7854351589505E+02
(PID.TID 0000.0001) %MON XC_mean                      =  -1.4199289892029E-14
(PID.TID 0000.0001) %MON XC_sd                        =   1.0355545336287E+02
(PID.TID 0000.0001) %MON XG_max                       =   1.8000000000000E+02
(PID.TID 0000.0001) %MON XG_min                       =  -1.7708797161002E+02
(PID.TID 0000.0001) %MON XG_mean                      =   1.8603515625000E+00
(PID.TID 0000.0001) %MON XG_sd                        =   1.0357130300504E+02
(PID.TID 0000.0001) %MON DXC_max                      =   3.2375185836900E+05
(PID.TID 0000.0001) %MON DXC_min                      =   1.1142031410131E+05
(PID.TID 0000.0001) %MON DXC_mean                     =   2.8605689051214E+05
(PID.TID 0000.0001) %MON DXC_sd                       =   3.4042087138252E+04
(PID.TID 0000.0001) %MON DXF_max                      =   3.2369947500827E+05
(PID.TID 0000.0001) %MON DXF_min                      =   1.2020820513318E+05
(PID.TID 0000.0001) %MON DXF_mean                     =   2.8605437324820E+05
(PID.TID 0000.0001) %MON DXF_sd                       =   3.4050524252539E+04
(PID.TID 0000.0001) %MON DXG_max                      =   3.2375195872773E+05
(PID.TID 0000.0001) %MON DXG_min                      =   1.0098378008791E+05
(PID.TID 0000.0001) %MON DXG_mean                     =   2.8603818508931E+05
(PID.TID 0000.0001) %MON DXG_sd                       =   3.4140406908005E+04
(PID.TID 0000.0001) %MON DXV_max                      =   3.2380418162750E+05
(PID.TID 0000.0001) %MON DXV_min                      =   8.0152299824136E+04
(PID.TID 0000.0001) %MON DXV_mean                     =   2.8603970633619E+05
(PID.TID 0000.0001) %MON DXV_sd                       =   3.4145142117723E+04
(PID.TID 0000.0001) %MON YC_max                       =   8.7940663871962E+01
(PID.TID 0000.0001) %MON YC_min                       =  -8.7940663871962E+01
(PID.TID 0000.0001) %MON YC_mean                      =  -2.3684757858670E-15
(PID.TID 0000.0001) %MON YC_sd                        =   3.8676242969072E+01
(PID.TID 0000.0001) %MON YG_max                       =   9.0000000000000E+01
(PID.TID 0000.0001) %MON YG_min                       =  -9.0000000000000E+01
(PID.TID 0000.0001) %MON YG_mean                      =  -4.1448326252673E-15
(PID.TID 0000.0001) %MON YG_sd                        =   3.8676895860710E+01
(PID.TID 0000.0001) %MON DYC_max                      =   3.2375185836900E+05
(PID.TID 0000.0001) %MON DYC_min                      =   1.1142031410131E+05
(PID.TID 0000.0001) %MON DYC_mean                     =   2.8605689051214E+05
(PID.TID 0000.0001) %MON DYC_sd                       =   3.4042087138252E+04
(PID.TID 0000.0001) %MON DYF_max                      =   3.2369947500827E+05
(PID.TID 0000.0001) %MON DYF_min                      =   1.2020820513318E+05
(PID.TID 0000.0001) %MON DYF_mean                     =   2.8605437324820E+05
(PID.TID 0000.0001) %MON DYF_sd                       =   3.4050524252539E+04
(PID.TID 0000.0001) %MON DYG_max                      =   3.2375195872773E+05
(PID.TID 0000.0001) %MON DYG_min                      =   1.0098378008791E+05
(PID.TID 0000.0001) %MON DYG_mean                     =   2.8603818508931E+05
(PID.TID 0000.0001) %MON DYG_sd                       =   3.4140406908005E+04
(PID.TID 0000.0001) %MON DYU_max                      =   3.2380418162750E+05
(PID.TID 0000.0001) %MON DYU_min                      =   8.0152299824136E+04
(PID.TID 0000.0001) %MON DYU_mean                     =   2.8603970633619E+05
(PID.TID 0000.0001) %MON DYU_sd                       =   3.4145142117723E+04
(PID.TID 0000.0001) %MON RA_max                       =   1.0479260248419E+11
(PID.TID 0000.0001) %MON RA_min                       =   1.4019007022556E+10
(PID.TID 0000.0001) %MON RA_mean                      =   8.2992246709265E+10
(PID.TID 0000.0001) %MON RA_sd                        =   1.7509089299457E+10
(PID.TID 0000.0001) %MON RAW_max                      =   1.0480965274559E+11
(PID.TID 0000.0001) %MON RAW_min                      =   1.2166903467143E+10
(PID.TID 0000.0001) %MON RAW_mean                     =   8.2992246709235E+10
(PID.TID 0000.0001) %MON RAW_sd                       =   1.7481917919656E+10
(PID.TID 0000.0001) %MON RAS_max                      =   1.0480965274559E+11
(PID.TID 0000.0001) %MON RAS_min                      =   1.2166903467143E+10
(PID.TID 0000.0001) %MON RAS_mean                     =   8.2992246709235E+10
(PID.TID 0000.0001) %MON RAS_sd                       =   1.7481917919656E+10
(PID.TID 0000.0001) %MON RAZ_max                      =   1.0484349334619E+11
(PID.TID 0000.0001) %MON RAZ_min                      =   8.8317900612505E+09
(PID.TID 0000.0001) %MON RAZ_mean                     =   8.2992246709235E+10
(PID.TID 0000.0001) %MON RAZ_sd                       =   1.7482297311044E+10
(PID.TID 0000.0001) %MON AngleCS_max                  =   9.9999994756719E-01
(PID.TID 0000.0001) %MON AngleCS_min                  =  -9.9968286884824E-01
(PID.TID 0000.0001) %MON AngleCS_mean                 =   3.3078922539000E-01
(PID.TID 0000.0001) %MON AngleCS_sd                   =   6.2496278958502E-01
(PID.TID 0000.0001) %MON AngleSN_max                  =   9.9968286884824E-01
(PID.TID 0000.0001) %MON AngleSN_min                  =  -9.9999994756719E-01
(PID.TID 0000.0001) %MON AngleSN_mean                 =  -3.3078922539000E-01
(PID.TID 0000.0001) %MON AngleSN_sd                   =   6.2496278958502E-01
(PID.TID 0000.0001) GAD_INIT_FIXED: GAD_OlMinSize=  2  0  2
(PID.TID 0000.0001) 
(PID.TID 0000.0001) // ===================================
(PID.TID 0000.0001) // GAD parameters :
(PID.TID 0000.0001) // ===================================
(PID.TID 0000.0001) tempAdvScheme =   /* Temp. Horiz.Advection scheme selector */
(PID.TID 0000.0001)                      30
(PID.TID 0000.0001)     ;
(PID.TID 0000.0001) tempVertAdvScheme =   /* Temp. Vert. Advection scheme selector */
(PID.TID 0000.0001)                      30
(PID.TID 0000.0001)     ;
(PID.TID 0000.0001) tempMultiDimAdvec =   /* use Muti-Dim Advec method for Temp */
(PID.TID 0000.0001)                   T
(PID.TID 0000.0001)     ;
(PID.TID 0000.0001) tempSOM_Advection = /* use 2nd Order Moment Advection for Temp */
(PID.TID 0000.0001)                   F
(PID.TID 0000.0001)     ;
(PID.TID 0000.0001) AdamsBashforthGt = /* apply Adams-Bashforth extrapolation on Gt */
(PID.TID 0000.0001)                   F
(PID.TID 0000.0001)     ;
(PID.TID 0000.0001) AdamsBashforth_T = /* apply Adams-Bashforth extrapolation on Temp */
(PID.TID 0000.0001)                   F
(PID.TID 0000.0001)     ;
(PID.TID 0000.0001) saltAdvScheme =   /* Salt. Horiz.advection scheme selector */
(PID.TID 0000.0001)                      30
(PID.TID 0000.0001)     ;
(PID.TID 0000.0001) saltVertAdvScheme =   /* Salt. Vert. Advection scheme selector */
(PID.TID 0000.0001)                      30
(PID.TID 0000.0001)     ;
(PID.TID 0000.0001) saltMultiDimAdvec =   /* use Muti-Dim Advec method for Salt */
(PID.TID 0000.0001)                   T
(PID.TID 0000.0001)     ;
(PID.TID 0000.0001) saltSOM_Advection = /* use 2nd Order Moment Advection for Salt */
(PID.TID 0000.0001)                   F
(PID.TID 0000.0001)     ;
(PID.TID 0000.0001) AdamsBashforthGs = /* apply Adams-Bashforth extrapolation on Gs */
(PID.TID 0000.0001)                   F
(PID.TID 0000.0001)     ;
(PID.TID 0000.0001) AdamsBashforth_S = /* apply Adams-Bashforth extrapolation on Salt */
(PID.TID 0000.0001)                   F
(PID.TID 0000.0001)     ;
(PID.TID 0000.0001) // ===================================
(PID.TID 0000.0001) ctrl-wet 1:    nvarlength =       239366
(PID.TID 0000.0001) ctrl-wet 2: surface wet C =          389
(PID.TID 0000.0001) ctrl-wet 3: surface wet W =          367
(PID.TID 0000.0001) ctrl-wet 4: surface wet S =          384
(PID.TID 0000.0001) ctrl-wet 4a:surface wet V =            0
(PID.TID 0000.0001) ctrl-wet 5: 3D wet points =         5204
(PID.TID 0000.0001) ctrl-wet 6: no recs for i =     1           1
(PID.TID 0000.0001) ctrl-wet 6: no recs for i =     2           1
(PID.TID 0000.0001) ctrl-wet 6: no recs for i =     3           1
(PID.TID 0000.0001) ctrl-wet 6: no recs for i =     4           1
(PID.TID 0000.0001) ctrl-wet 6: no recs for i =     5           1
(PID.TID 0000.0001) ctrl-wet 6: no recs for i =     6           1
(PID.TID 0000.0001) ctrl-wet 6: no recs for i =     7           0
(PID.TID 0000.0001) ctrl-wet 6: no recs for i =     8           0
(PID.TID 0000.0001) ctrl-wet 6: no recs for i =     9           0
(PID.TID 0000.0001) ctrl-wet 6: no recs for i =    10           0
(PID.TID 0000.0001) ctrl-wet 6: no recs for i =    11           0
(PID.TID 0000.0001) ctrl-wet 6: no recs for i =    12           0
(PID.TID 0000.0001) ctrl-wet 6: no recs for i =    13           0
(PID.TID 0000.0001) ctrl-wet 6: no recs for i =    14           0
(PID.TID 0000.0001) ctrl-wet 6: no recs for i =    15           1
(PID.TID 0000.0001) ctrl-wet 6: no recs for i =    16           0
(PID.TID 0000.0001) ctrl-wet 6: no recs for i =    17           1
(PID.TID 0000.0001) ctrl-wet 6: no recs for i =    18           0
(PID.TID 0000.0001) ctrl-wet 6: no recs for i =    19           0
(PID.TID 0000.0001) ctrl-wet 6: no recs for i =    20           0
(PID.TID 0000.0001) ctrl-wet 6: no recs for i =    21           0
(PID.TID 0000.0001) ctrl-wet 6: no recs for i =    22           0
(PID.TID 0000.0001) ctrl-wet 6: no recs for i =    23           0
(PID.TID 0000.0001) ctrl-wet 6: no recs for i =    24           0
(PID.TID 0000.0001) ctrl-wet 6: no recs for i =    25           0
(PID.TID 0000.0001) ctrl-wet 6: no recs for i =    26           0
(PID.TID 0000.0001) ctrl-wet 6: no recs for i =    27           0
(PID.TID 0000.0001) ctrl-wet 6: no recs for i =    28           0
(PID.TID 0000.0001) ctrl-wet 6: no recs for i =    29           0
(PID.TID 0000.0001) ctrl-wet 6: no recs for i =    30           0
(PID.TID 0000.0001) ctrl-wet 6: no recs for i =    31           0
(PID.TID 0000.0001) ctrl-wet 6: no recs for i =    32           0
(PID.TID 0000.0001) ctrl-wet 6: no recs for i =    33           0
(PID.TID 0000.0001) ctrl-wet 6: no recs for i =    34           0
(PID.TID 0000.0001) ctrl-wet 6: no recs for i =    35           0
(PID.TID 0000.0001) ctrl-wet 6: no recs for i =    36           0
(PID.TID 0000.0001) ctrl-wet 6: no recs for i =    37           0
(PID.TID 0000.0001) ctrl-wet 6: no recs for i =    38           0
(PID.TID 0000.0001) ctrl-wet 6: no recs for i =    39           0
(PID.TID 0000.0001) ctrl-wet 6: no recs for i =    40           0
(PID.TID 0000.0001) ctrl-wet 6: no recs for i =    41           0
(PID.TID 0000.0001) ctrl-wet 6: no recs for i =    42           0
(PID.TID 0000.0001) ctrl-wet 6: no recs for i =    43           0
(PID.TID 0000.0001) ctrl-wet 6: no recs for i =    44           0
(PID.TID 0000.0001) ctrl-wet 6: no recs for i =    45           0
(PID.TID 0000.0001) ctrl-wet 6: no recs for i =    46           0
(PID.TID 0000.0001) ctrl-wet 6: no recs for i =    47           0
(PID.TID 0000.0001) ctrl-wet 6: no recs for i =    48           0
(PID.TID 0000.0001) ctrl-wet 6: no recs for i =    49           0
(PID.TID 0000.0001) ctrl-wet 6: no recs for i =    50           0
(PID.TID 0000.0001) ctrl-wet 6: no recs for i =    51           0
(PID.TID 0000.0001) ctrl-wet 6: no recs for i =    52           0
(PID.TID 0000.0001) ctrl-wet 6: no recs for i =    53           0
(PID.TID 0000.0001) ctrl-wet 6: no recs for i =    54           0
(PID.TID 0000.0001) ctrl-wet 6: no recs for i =    55           0
(PID.TID 0000.0001) ctrl-wet 6: no recs for i =    56           0
(PID.TID 0000.0001) ctrl-wet 6: no recs for i =    57           0
(PID.TID 0000.0001) ctrl-wet 6: no recs for i =    58           0
(PID.TID 0000.0001) ctrl-wet 6: no recs for i =    59           0
(PID.TID 0000.0001) ctrl-wet 6: no recs for i =    60           0
(PID.TID 0000.0001) ctrl-wet 7: flux         11937
(PID.TID 0000.0001) ctrl-wet 8: atmos        10408
(PID.TID 0000.0001) ctrl-wet -------------------------------------------------
(PID.TID 0000.0001) ctrl-wet 13: global nvarlength for Nr =   15      239366
(PID.TID 0000.0001) ctrl-wet -------------------------------------------------
(PID.TID 0000.0001) ctrl-wet 14: global nWet C/S/W/V k=    1        4420        4232        4206           0
(PID.TID 0000.0001) ctrl-wet 14: global nWet C/S/W/V k=    2        4299        4112        4096           0
(PID.TID 0000.0001) ctrl-wet 14: global nWet C/S/W/V k=    3        4222        4038        4023           0
(PID.TID 0000.0001) ctrl-wet 14: global nWet C/S/W/V k=    4        4140        3960        3939           0
(PID.TID 0000.0001) ctrl-wet 14: global nWet C/S/W/V k=    5        4099        3919        3893           0
(PID.TID 0000.0001) ctrl-wet 14: global nWet C/S/W/V k=    6        4038        3856        3839           0
(PID.TID 0000.0001) ctrl-wet 14: global nWet C/S/W/V k=    7        3995        3814        3795           0
(PID.TID 0000.0001) ctrl-wet 14: global nWet C/S/W/V k=    8        3944        3756        3737           0
(PID.TID 0000.0001) ctrl-wet 14: global nWet C/S/W/V k=    9        3887        3699        3673           0
(PID.TID 0000.0001) ctrl-wet 14: global nWet C/S/W/V k=   10        3799        3605        3585           0
(PID.TID 0000.0001) ctrl-wet 14: global nWet C/S/W/V k=   11        3703        3502        3461           0
(PID.TID 0000.0001) ctrl-wet 14: global nWet C/S/W/V k=   12        3554        3338        3303           0
(PID.TID 0000.0001) ctrl-wet 14: global nWet C/S/W/V k=   13        3202        2910        2911           0
(PID.TID 0000.0001) ctrl-wet 14: global nWet C/S/W/V k=   14        2599        2296        2276           0
(PID.TID 0000.0001) ctrl-wet 14: global nWet C/S/W/V k=   15        1621        1368        1334           0
(PID.TID 0000.0001) ctrl-wet -------------------------------------------------
(PID.TID 0000.0001) ctrl-wet -------------------------------------------------
(PID.TID 0000.0001) ctrl-wet -------------------------------------------------
(PID.TID 0000.0001) ctrl_init: no. of control variables:            8
(PID.TID 0000.0001) ctrl_init: control vector length:          239366
(PID.TID 0000.0001) %MON fCori_max                    =   1.4535016908525E-04
(PID.TID 0000.0001) %MON fCori_min                    =  -1.4535016908525E-04
(PID.TID 0000.0001) %MON fCori_mean                   =   2.5975677049132E-20
(PID.TID 0000.0001) %MON fCori_sd                     =   8.3972192788621E-05
(PID.TID 0000.0001) %MON fCoriG_max                   =   1.4544410433286E-04
(PID.TID 0000.0001) %MON fCoriG_min                   =  -1.4544410433286E-04
(PID.TID 0000.0001) %MON fCoriG_mean                  =   9.0350181040459E-21
(PID.TID 0000.0001) %MON fCoriG_sd                    =   8.3972192788621E-05
(PID.TID 0000.0001) %MON fCoriCos_max                 =   1.4540341538469E-04
(PID.TID 0000.0001) %MON fCoriCos_min                 =   5.2264550201501E-06
(PID.TID 0000.0001) %MON fCoriCos_mean                =   1.1482595466044E-04
(PID.TID 0000.0001) %MON fCoriCos_sd                  =   3.0292878037194E-05
(PID.TID 0000.0001) INI_CG2D: CG2D normalisation factor =  1.9156564154949553E-04
(PID.TID 0000.0001) INI_CG2D: cg2dTolerance = 5.809016360175296E-07 (Area=3.6388673751E+14)
(PID.TID 0000.0001) 
(PID.TID 0000.0001) // =======================================================
(PID.TID 0000.0001) // Model configuration
(PID.TID 0000.0001) // =======================================================
(PID.TID 0000.0001) //
(PID.TID 0000.0001) // "Physical" paramters ( PARM01 in namelist )
(PID.TID 0000.0001) //
(PID.TID 0000.0001) buoyancyRelation = /* Type of relation to get Buoyancy */
(PID.TID 0000.0001)               'OCEANIC'
(PID.TID 0000.0001)     ;
(PID.TID 0000.0001) fluidIsAir   =  /* fluid major constituent is Air */
(PID.TID 0000.0001)                   F
(PID.TID 0000.0001)     ;
(PID.TID 0000.0001) fluidIsWater =  /* fluid major constituent is Water */
(PID.TID 0000.0001)                   T
(PID.TID 0000.0001)     ;
(PID.TID 0000.0001) usingPCoords =  /* use p (or p*) vertical coordinate */
(PID.TID 0000.0001)                   F
(PID.TID 0000.0001)     ;
(PID.TID 0000.0001) usingZCoords =  /* use z (or z*) vertical coordinate */
(PID.TID 0000.0001)                   T
(PID.TID 0000.0001)     ;
(PID.TID 0000.0001) tRef =   /* Reference temperature profile ( oC or K ) */
(PID.TID 0000.0001)    15 @  2.000000000000000E+01              /* K =  1: 15 */
(PID.TID 0000.0001)     ;
(PID.TID 0000.0001) sRef =   /* Reference salinity profile ( psu ) */
(PID.TID 0000.0001)    15 @  3.500000000000000E+01              /* K =  1: 15 */
(PID.TID 0000.0001)     ;
(PID.TID 0000.0001) viscAh  =   /* Lateral eddy viscosity ( m^2/s ) */
(PID.TID 0000.0001)                 3.000000000000000E+05
(PID.TID 0000.0001)     ;
(PID.TID 0000.0001) viscAhMax = /* Maximum lateral eddy viscosity ( m^2/s ) */
(PID.TID 0000.0001)                 1.000000000000000E+21
(PID.TID 0000.0001)     ;
(PID.TID 0000.0001) viscAhGrid = /* Grid dependent lateral eddy viscosity ( non-dim. ) */
(PID.TID 0000.0001)                 0.000000000000000E+00
(PID.TID 0000.0001)     ;
(PID.TID 0000.0001) useFullLeith = /* Use Full Form of Leith Viscosity on/off flag*/
(PID.TID 0000.0001)                   F
(PID.TID 0000.0001)     ;
(PID.TID 0000.0001) useStrainTensionVisc= /* Use StrainTension Form of Viscous Operator flag*/
(PID.TID 0000.0001)                   F
(PID.TID 0000.0001)     ;
(PID.TID 0000.0001) useAreaViscLength = /* Use area for visc length instead of geom. mean*/
(PID.TID 0000.0001)                   F
(PID.TID 0000.0001)     ;
(PID.TID 0000.0001) viscC2leith = /* Leith harmonic visc. factor (on grad(vort),non-dim.) */
(PID.TID 0000.0001)                 0.000000000000000E+00
(PID.TID 0000.0001)     ;
(PID.TID 0000.0001) viscC2leithD = /* Leith harmonic viscosity factor (on grad(div),non-dim.)*/
(PID.TID 0000.0001)                 0.000000000000000E+00
(PID.TID 0000.0001)     ;
(PID.TID 0000.0001) viscC2smag = /* Smagorinsky harmonic viscosity factor (non-dim.) */
(PID.TID 0000.0001)                 0.000000000000000E+00
(PID.TID 0000.0001)     ;
(PID.TID 0000.0001) viscA4  =   /* Lateral biharmonic viscosity ( m^4/s ) */
(PID.TID 0000.0001)                 0.000000000000000E+00
(PID.TID 0000.0001)     ;
(PID.TID 0000.0001) viscA4Max = /* Maximum biharmonic viscosity ( m^2/s ) */
(PID.TID 0000.0001)                 1.000000000000000E+21
(PID.TID 0000.0001)     ;
(PID.TID 0000.0001) viscA4Grid = /* Grid dependent biharmonic viscosity ( non-dim. ) */
(PID.TID 0000.0001)                 0.000000000000000E+00
(PID.TID 0000.0001)     ;
(PID.TID 0000.0001) viscC4leith = /* Leith biharm viscosity factor (on grad(vort), non-dim.)*/
(PID.TID 0000.0001)                 0.000000000000000E+00
(PID.TID 0000.0001)     ;
(PID.TID 0000.0001) viscC4leithD = /* Leith biharm viscosity factor (on grad(div), non-dim.) */
(PID.TID 0000.0001)                 0.000000000000000E+00
(PID.TID 0000.0001)     ;
(PID.TID 0000.0001) viscC4Smag = /* Smagorinsky biharm viscosity factor (non-dim) */
(PID.TID 0000.0001)                 0.000000000000000E+00
(PID.TID 0000.0001)     ;
(PID.TID 0000.0001) no_slip_sides =  /* Viscous BCs: No-slip sides */
(PID.TID 0000.0001)                   T
(PID.TID 0000.0001)     ;
(PID.TID 0000.0001) sideDragFactor = /* side-drag scaling factor (non-dim) */
(PID.TID 0000.0001)                 2.000000000000000E+00
(PID.TID 0000.0001)     ;
(PID.TID 0000.0001) viscArNr = /* vertical profile of vertical viscosity ( m^2/s )*/
(PID.TID 0000.0001)    15 @  1.000000000000000E-03              /* K =  1: 15 */
(PID.TID 0000.0001)     ;
(PID.TID 0000.0001) no_slip_bottom =  /* Viscous BCs: No-slip bottom */
(PID.TID 0000.0001)                   T
(PID.TID 0000.0001)     ;
(PID.TID 0000.0001) bottomDragLinear = /* linear bottom-drag coefficient ( m/s ) */
(PID.TID 0000.0001)                 0.000000000000000E+00
(PID.TID 0000.0001)     ;
(PID.TID 0000.0001) bottomDragQuadratic = /* quadratic bottom-drag coefficient (-) */
(PID.TID 0000.0001)                 0.000000000000000E+00
(PID.TID 0000.0001)     ;
(PID.TID 0000.0001) diffKhT =   /* Laplacian diffusion of heat laterally ( m^2/s ) */
(PID.TID 0000.0001)                 0.000000000000000E+00
(PID.TID 0000.0001)     ;
(PID.TID 0000.0001) diffK4T =   /* Biharmonic diffusion of heat laterally ( m^4/s ) */
(PID.TID 0000.0001)                 0.000000000000000E+00
(PID.TID 0000.0001)     ;
(PID.TID 0000.0001) diffKhS =   /* Laplacian diffusion of salt laterally ( m^2/s ) */
(PID.TID 0000.0001)                 0.000000000000000E+00
(PID.TID 0000.0001)     ;
(PID.TID 0000.0001) diffK4S =   /* Biharmonic diffusion of salt laterally ( m^4/s ) */
(PID.TID 0000.0001)                 0.000000000000000E+00
(PID.TID 0000.0001)     ;
(PID.TID 0000.0001) diffKrNrT = /* vertical profile of vertical diffusion of Temp ( m^2/s )*/
(PID.TID 0000.0001)    15 @  3.000000000000000E-05              /* K =  1: 15 */
(PID.TID 0000.0001)     ;
(PID.TID 0000.0001) diffKrNrS = /* vertical profile of vertical diffusion of Salt ( m^2/s )*/
(PID.TID 0000.0001)    15 @  3.000000000000000E-05              /* K =  1: 15 */
(PID.TID 0000.0001)     ;
(PID.TID 0000.0001) diffKrBL79surf = /* Surface diffusion for Bryan and Lewis 79 ( m^2/s ) */
(PID.TID 0000.0001)                 0.000000000000000E+00
(PID.TID 0000.0001)     ;
(PID.TID 0000.0001) diffKrBL79deep = /* Deep diffusion for Bryan and Lewis 1979 ( m^2/s ) */
(PID.TID 0000.0001)                 0.000000000000000E+00
(PID.TID 0000.0001)     ;
(PID.TID 0000.0001) diffKrBL79scl = /* Depth scale for Bryan and Lewis 1979 ( m ) */
(PID.TID 0000.0001)                 2.000000000000000E+02
(PID.TID 0000.0001)     ;
(PID.TID 0000.0001) diffKrBL79Ho = /* Turning depth for Bryan and Lewis 1979 ( m ) */
(PID.TID 0000.0001)                -2.000000000000000E+03
(PID.TID 0000.0001)     ;
(PID.TID 0000.0001) ivdc_kappa = /* Implicit Vertical Diffusivity for Convection ( m^2/s) */
(PID.TID 0000.0001)                 1.000000000000000E+01
(PID.TID 0000.0001)     ;
(PID.TID 0000.0001) hMixCriteria=  /* Criteria for mixed-layer diagnostic */
(PID.TID 0000.0001)                -8.000000000000000E-01
(PID.TID 0000.0001)     ;
(PID.TID 0000.0001) dRhoSmall =  /* Parameter for mixed-layer diagnostic */
(PID.TID 0000.0001)                 1.000000000000000E-06
(PID.TID 0000.0001)     ;
(PID.TID 0000.0001) hMixSmooth=  /* Smoothing parameter for mixed-layer diagnostic */
(PID.TID 0000.0001)                 0.000000000000000E+00
(PID.TID 0000.0001)     ;
(PID.TID 0000.0001) eosType =  /* Type of Equation of State */
(PID.TID 0000.0001)               'JMD95Z'
(PID.TID 0000.0001)     ;
(PID.TID 0000.0001) celsius2K = /* 0 degree Celsius converted to Kelvin ( K ) */
(PID.TID 0000.0001)                 2.731500000000000E+02
(PID.TID 0000.0001)     ;
(PID.TID 0000.0001) rhoConst  = /* Reference density (Boussinesq)  ( kg/m^3 ) */
(PID.TID 0000.0001)                 1.035000000000000E+03
(PID.TID 0000.0001)     ;
(PID.TID 0000.0001) rhoFacC = /* normalized Reference density @ cell-Center (-) */
(PID.TID 0000.0001)    15 @  1.000000000000000E+00              /* K =  1: 15 */
(PID.TID 0000.0001)     ;
(PID.TID 0000.0001) rhoFacF = /* normalized Reference density @ W-Interface (-) */
(PID.TID 0000.0001)    16 @  1.000000000000000E+00              /* K =  1: 16 */
(PID.TID 0000.0001)     ;
(PID.TID 0000.0001) rhoConstFresh = /* Fresh-water reference density ( kg/m^3 ) */
(PID.TID 0000.0001)                 1.000000000000000E+03
(PID.TID 0000.0001)     ;
(PID.TID 0000.0001) gravity =   /* Gravitational acceleration ( m/s^2 ) */
(PID.TID 0000.0001)                 9.810000000000000E+00
(PID.TID 0000.0001)     ;
(PID.TID 0000.0001) gBaro =   /* Barotropic gravity ( m/s^2 ) */
(PID.TID 0000.0001)                 9.810000000000000E+00
(PID.TID 0000.0001)     ;
(PID.TID 0000.0001) rotationPeriod =   /* Rotation Period ( s ) */
(PID.TID 0000.0001)                 8.640000000000000E+04
(PID.TID 0000.0001)     ;
(PID.TID 0000.0001) omega =   /* Angular velocity ( rad/s ) */
(PID.TID 0000.0001)                 7.272205216643040E-05
(PID.TID 0000.0001)     ;
(PID.TID 0000.0001) f0 =   /* Reference coriolis parameter ( 1/s ) */
(PID.TID 0000.0001)                 1.000000000000000E-04
(PID.TID 0000.0001)     ;
(PID.TID 0000.0001) beta =   /* Beta ( 1/(m.s) ) */
(PID.TID 0000.0001)                 9.999999999999999E-12
(PID.TID 0000.0001)     ;
(PID.TID 0000.0001) fPrime =   /* Second coriolis parameter ( 1/s ) */
(PID.TID 0000.0001)                 0.000000000000000E+00
(PID.TID 0000.0001)     ;
(PID.TID 0000.0001) rigidLid =   /* Rigid lid on/off flag */
(PID.TID 0000.0001)                   F
(PID.TID 0000.0001)     ;
(PID.TID 0000.0001) implicitFreeSurface =   /* Implicit free surface on/off flag */
(PID.TID 0000.0001)                   T
(PID.TID 0000.0001)     ;
(PID.TID 0000.0001) freeSurfFac =   /* Implicit free surface factor */
(PID.TID 0000.0001)                 1.000000000000000E+00
(PID.TID 0000.0001)     ;
(PID.TID 0000.0001) implicSurfPress =  /* Surface Pressure implicit factor (0-1)*/
(PID.TID 0000.0001)                 1.000000000000000E+00
(PID.TID 0000.0001)     ;
(PID.TID 0000.0001) implicDiv2Dflow =  /* Barot. Flow Div. implicit factor (0-1)*/
(PID.TID 0000.0001)                 1.000000000000000E+00
(PID.TID 0000.0001)     ;
(PID.TID 0000.0001) exactConserv =  /* Exact Volume Conservation on/off flag*/
(PID.TID 0000.0001)                   T
(PID.TID 0000.0001)     ;
(PID.TID 0000.0001) linFSConserveTr = /* Tracer correction for Lin Free Surface on/off flag*/
(PID.TID 0000.0001)                   F
(PID.TID 0000.0001)     ;
(PID.TID 0000.0001) uniformLin_PhiSurf = /* use uniform Bo_surf on/off flag*/
(PID.TID 0000.0001)                   T
(PID.TID 0000.0001)     ;
(PID.TID 0000.0001) hFacMin =   /* minimum partial cell factor (hFac) */
(PID.TID 0000.0001)                 1.000000000000000E-01
(PID.TID 0000.0001)     ;
(PID.TID 0000.0001) hFacMinDr = /* minimum partial cell thickness ( m) */
(PID.TID 0000.0001)                 1.000000000000000E-01
(PID.TID 0000.0001)     ;
(PID.TID 0000.0001) nonlinFreeSurf = /* Non-linear Free Surf. options (-1,0,1,2,3)*/
(PID.TID 0000.0001)                       2
(PID.TID 0000.0001)      -1,0= Off ; 1,2,3= On, 2=+rescale gU,gV, 3=+update cg2d solv.
(PID.TID 0000.0001)     ;
(PID.TID 0000.0001) hFacInf =   /* lower threshold for hFac (nonlinFreeSurf only)*/
(PID.TID 0000.0001)                 2.000000000000000E-01
(PID.TID 0000.0001)     ;
(PID.TID 0000.0001) hFacSup =   /* upper threshold for hFac (nonlinFreeSurf only)*/
(PID.TID 0000.0001)                 2.000000000000000E+00
(PID.TID 0000.0001)     ;
(PID.TID 0000.0001) select_rStar = /* r* Vertical coord. options (=0 r coord.; >0 uses r*)*/
(PID.TID 0000.0001)                       2
(PID.TID 0000.0001)     ;
(PID.TID 0000.0001) selectAddFluid = /* option for mass source/sink of fluid (=0: off) */
(PID.TID 0000.0001)                       0
(PID.TID 0000.0001)     ;
(PID.TID 0000.0001) useRealFreshWaterFlux = /* Real Fresh Water Flux on/off flag*/
(PID.TID 0000.0001)                   T
(PID.TID 0000.0001)     ;
(PID.TID 0000.0001) temp_EvPrRn = /* Temp. of Evap/Prec/R (UNSET=use local T)(oC)*/
(PID.TID 0000.0001)                 1.234567000000000E+05
(PID.TID 0000.0001)     ;
(PID.TID 0000.0001) salt_EvPrRn = /* Salin. of Evap/Prec/R (UNSET=use local S)(psu)*/
(PID.TID 0000.0001)                 0.000000000000000E+00
(PID.TID 0000.0001)     ;
(PID.TID 0000.0001) temp_addMass = /* Temp. of addMass array (UNSET=use local T)(oC)*/
(PID.TID 0000.0001)                 1.234567000000000E+05
(PID.TID 0000.0001)     ;
(PID.TID 0000.0001) salt_addMass = /* Salin. of addMass array (UNSET=use local S)(psu)*/
(PID.TID 0000.0001)                 0.000000000000000E+00
(PID.TID 0000.0001)     ;
(PID.TID 0000.0001) use3Dsolver = /* use 3-D pressure solver on/off flag */
(PID.TID 0000.0001)                   F
(PID.TID 0000.0001)     ;
(PID.TID 0000.0001) nonHydrostatic =  /* Non-Hydrostatic on/off flag */
(PID.TID 0000.0001)                   F
(PID.TID 0000.0001)     ;
(PID.TID 0000.0001) nh_Am2 = /* Non-Hydrostatic terms scaling factor */
(PID.TID 0000.0001)                 1.000000000000000E+00
(PID.TID 0000.0001)     ;
(PID.TID 0000.0001) implicitNHPress = /* Non-Hyd Pressure implicit factor (0-1)*/
(PID.TID 0000.0001)                 1.000000000000000E+00
(PID.TID 0000.0001)     ;
(PID.TID 0000.0001) selectNHfreeSurf = /* Non-Hyd (free-)Surface option */
(PID.TID 0000.0001)                       0
(PID.TID 0000.0001)     ;
(PID.TID 0000.0001) quasiHydrostatic = /* Quasi-Hydrostatic on/off flag */
(PID.TID 0000.0001)                   F
(PID.TID 0000.0001)     ;
(PID.TID 0000.0001) calc_wVelocity = /* vertical velocity calculation on/off flag */
(PID.TID 0000.0001)                   T
(PID.TID 0000.0001)     ;
(PID.TID 0000.0001) momStepping =  /* Momentum equation on/off flag */
(PID.TID 0000.0001)                   T
(PID.TID 0000.0001)     ;
(PID.TID 0000.0001) vectorInvariantMomentum= /* Vector-Invariant Momentum on/off */
(PID.TID 0000.0001)                   T
(PID.TID 0000.0001)     ;
(PID.TID 0000.0001) momAdvection =  /* Momentum advection on/off flag */
(PID.TID 0000.0001)                   T
(PID.TID 0000.0001)     ;
(PID.TID 0000.0001) momViscosity =  /* Momentum viscosity on/off flag */
(PID.TID 0000.0001)                   T
(PID.TID 0000.0001)     ;
(PID.TID 0000.0001) momImplVertAdv= /* Momentum implicit vert. advection on/off*/
(PID.TID 0000.0001)                   F
(PID.TID 0000.0001)     ;
(PID.TID 0000.0001) implicitViscosity = /* Implicit viscosity on/off flag */
(PID.TID 0000.0001)                   F
(PID.TID 0000.0001)     ;
(PID.TID 0000.0001) metricTerms =  /* metric-Terms on/off flag */
(PID.TID 0000.0001)                   F
(PID.TID 0000.0001)     ;
(PID.TID 0000.0001) useNHMTerms = /* Non-Hydrostatic Metric-Terms on/off */
(PID.TID 0000.0001)                   F
(PID.TID 0000.0001)     ;
(PID.TID 0000.0001) selectCoriMap = /* Coriolis Map options (0,1,2,3)*/
(PID.TID 0000.0001)                       2
(PID.TID 0000.0001)     0= f-Plane ; 1= Beta-Plane ; 2= Spherical ; 3= read from file
(PID.TID 0000.0001)     ;
(PID.TID 0000.0001) use3dCoriolis = /* 3-D Coriolis on/off flag */
(PID.TID 0000.0001)                   F
(PID.TID 0000.0001)     ;
(PID.TID 0000.0001) useCoriolis =  /* Coriolis on/off flag */
(PID.TID 0000.0001)                   T
(PID.TID 0000.0001)     ;
(PID.TID 0000.0001) useCDscheme =  /* CD scheme on/off flag */
(PID.TID 0000.0001)                   F
(PID.TID 0000.0001)     ;
(PID.TID 0000.0001) useEnergyConservingCoriolis= /* Flx-Form Coriolis scheme flag */
(PID.TID 0000.0001)                   F
(PID.TID 0000.0001)     ;
(PID.TID 0000.0001) useJamartWetPoints= /* Coriolis WetPoints method flag */
(PID.TID 0000.0001)                   F
(PID.TID 0000.0001)     ;
(PID.TID 0000.0001) useJamartMomAdv= /* V.I Non-linear terms Jamart flag */
(PID.TID 0000.0001)                   F
(PID.TID 0000.0001)     ;
(PID.TID 0000.0001) useAbsVorticity= /* V.I Works with f+zeta in Coriolis */
(PID.TID 0000.0001)                   F
(PID.TID 0000.0001)     ;
(PID.TID 0000.0001) selectVortScheme= /* V.I Scheme selector for Vorticity-Term */
(PID.TID 0000.0001)                       1
(PID.TID 0000.0001)    = 0 : enstrophy (Shallow-Water Eq.) conserving scheme by Sadourny, JAS 75
(PID.TID 0000.0001)    = 1 : same as 0 with modified hFac
(PID.TID 0000.0001)    = 2 : energy conserving scheme (used by Sadourny in JAS 75 paper)
(PID.TID 0000.0001)    = 3 : energy (general) and enstrophy (2D, nonDiv.) conserving scheme
(PID.TID 0000.0001)          from Sadourny (Burridge & Haseler, ECMWF Rep.4, 1977)
(PID.TID 0000.0001)     ;
(PID.TID 0000.0001) upwindVorticity= /* V.I Upwind bias vorticity flag */
(PID.TID 0000.0001)                   F
(PID.TID 0000.0001)     ;
(PID.TID 0000.0001) highOrderVorticity= /* V.I High order vort. advect. flag */
(PID.TID 0000.0001)                   F
(PID.TID 0000.0001)     ;
(PID.TID 0000.0001) upwindShear= /* V.I Upwind vertical Shear advection flag */
(PID.TID 0000.0001)                   F
(PID.TID 0000.0001)     ;
(PID.TID 0000.0001) selectKEscheme= /* V.I Kinetic Energy scheme selector */
(PID.TID 0000.0001)                       0
(PID.TID 0000.0001)     ;
(PID.TID 0000.0001) momForcing =  /* Momentum forcing on/off flag */
(PID.TID 0000.0001)                   T
(PID.TID 0000.0001)     ;
(PID.TID 0000.0001) momPressureForcing =  /* Momentum pressure term on/off flag */
(PID.TID 0000.0001)                   T
(PID.TID 0000.0001)     ;
(PID.TID 0000.0001) implicitIntGravWave= /* Implicit Internal Gravity Wave flag */
(PID.TID 0000.0001)                   F
(PID.TID 0000.0001)     ;
(PID.TID 0000.0001) staggerTimeStep =    /* Stagger time stepping on/off flag */
(PID.TID 0000.0001)                   T
(PID.TID 0000.0001)     ;
(PID.TID 0000.0001) doResetHFactors = /* reset thickness factors @ each time-step */
(PID.TID 0000.0001)                   T
(PID.TID 0000.0001)     ;
(PID.TID 0000.0001) multiDimAdvection =  /* enable/disable Multi-Dim Advection */
(PID.TID 0000.0001)                   T
(PID.TID 0000.0001)     ;
(PID.TID 0000.0001) useMultiDimAdvec =   /* Multi-Dim Advection is/is-not used */
(PID.TID 0000.0001)                   T
(PID.TID 0000.0001)     ;
(PID.TID 0000.0001) implicitDiffusion = /* Implicit Diffusion on/off flag */
(PID.TID 0000.0001)                   T
(PID.TID 0000.0001)     ;
(PID.TID 0000.0001) tempStepping =  /* Temperature equation on/off flag */
(PID.TID 0000.0001)                   T
(PID.TID 0000.0001)     ;
(PID.TID 0000.0001) tempAdvection=  /* Temperature advection on/off flag */
(PID.TID 0000.0001)                   T
(PID.TID 0000.0001)     ;
(PID.TID 0000.0001) tempImplVertAdv = /* Temp. implicit vert. advection on/off */
(PID.TID 0000.0001)                   T
(PID.TID 0000.0001)     ;
(PID.TID 0000.0001) tempForcing  =  /* Temperature forcing on/off flag */
(PID.TID 0000.0001)                   T
(PID.TID 0000.0001)     ;
(PID.TID 0000.0001) tempIsActiveTr = /* Temp. is a dynamically Active Tracer */
(PID.TID 0000.0001)                   T
(PID.TID 0000.0001)     ;
(PID.TID 0000.0001) saltStepping =  /* Salinity equation on/off flag */
(PID.TID 0000.0001)                   T
(PID.TID 0000.0001)     ;
(PID.TID 0000.0001) saltAdvection=  /* Salinity advection on/off flag */
(PID.TID 0000.0001)                   T
(PID.TID 0000.0001)     ;
(PID.TID 0000.0001) saltImplVertAdv = /* Sali. implicit vert. advection on/off */
(PID.TID 0000.0001)                   T
(PID.TID 0000.0001)     ;
(PID.TID 0000.0001) saltForcing  =  /* Salinity forcing on/off flag */
(PID.TID 0000.0001)                   T
(PID.TID 0000.0001)     ;
(PID.TID 0000.0001) saltIsActiveTr = /* Salt  is a dynamically Active Tracer */
(PID.TID 0000.0001)                   T
(PID.TID 0000.0001)     ;
(PID.TID 0000.0001)  readBinaryPrec = /* Precision used for reading binary files */
(PID.TID 0000.0001)                      64
(PID.TID 0000.0001)     ;
(PID.TID 0000.0001) writeBinaryPrec = /* Precision used for writing binary files */
(PID.TID 0000.0001)                      32
(PID.TID 0000.0001)     ;
(PID.TID 0000.0001)  globalFiles = /* write "global" (=not per tile) files */
(PID.TID 0000.0001)                   F
(PID.TID 0000.0001)     ;
(PID.TID 0000.0001)  useSingleCpuIO = /* only master MPI process does I/O */
(PID.TID 0000.0001)                   F
(PID.TID 0000.0001)     ;
(PID.TID 0000.0001) /* debLev[*]  : level of debug & auxiliary message printing */
(PID.TID 0000.0001) debLevZero =  0 ; /* level of disabled aux. msg printing */
(PID.TID 0000.0001)    debLevA =  1 ; /* level of minimum  aux. msg printing */
(PID.TID 0000.0001)    debLevB =  2 ; /* level of low aux. print (report read-file opening)*/
(PID.TID 0000.0001)    debLevC =  3 ; /* level of moderate debug prt (most pkgs debug msg) */
(PID.TID 0000.0001)    debLevD =  4 ; /* level of enhanced debug prt (add DEBUG_STATS prt) */
(PID.TID 0000.0001)    debLevE =  5 ; /* level of extensive debug printing */
(PID.TID 0000.0001) debugLevel =  /* select debug printing level */
(PID.TID 0000.0001)                       1
(PID.TID 0000.0001)     ;
(PID.TID 0000.0001) //
(PID.TID 0000.0001) // Elliptic solver(s) paramters ( PARM02 in namelist )
(PID.TID 0000.0001) //
(PID.TID 0000.0001) cg2dMaxIters =   /* Upper limit on 2d con. grad iterations  */
(PID.TID 0000.0001)                     200
(PID.TID 0000.0001)     ;
(PID.TID 0000.0001) cg2dChkResFreq =   /* 2d con. grad convergence test frequency */
(PID.TID 0000.0001)                       1
(PID.TID 0000.0001)     ;
(PID.TID 0000.0001) cg2dTargetResidual =   /* 2d con. grad target residual  */
(PID.TID 0000.0001)                 1.000000000000000E-07
(PID.TID 0000.0001)     ;
(PID.TID 0000.0001) cg2dTargetResWunit =   /* CG2d target residual [W units] */
(PID.TID 0000.0001)                 1.000000000000000E-14
(PID.TID 0000.0001)     ;
(PID.TID 0000.0001) cg2dPreCondFreq =   /* Freq. for updating cg2d preconditioner */
(PID.TID 0000.0001)                       1
(PID.TID 0000.0001)     ;
(PID.TID 0000.0001) useSRCGSolver =  /* use single reduction CG solver(s) */
(PID.TID 0000.0001)                   F
(PID.TID 0000.0001)     ;
(PID.TID 0000.0001) printResidualFreq = /* Freq. for printing CG residual */
(PID.TID 0000.0001)                       0
(PID.TID 0000.0001)     ;
(PID.TID 0000.0001) //
(PID.TID 0000.0001) // Time stepping paramters ( PARM03 in namelist )
(PID.TID 0000.0001) //
(PID.TID 0000.0001) deltaTmom =   /* Momentum equation timestep ( s ) */
(PID.TID 0000.0001)                 1.200000000000000E+03
(PID.TID 0000.0001)     ;
(PID.TID 0000.0001) deltaTfreesurf = /* FreeSurface equation timestep ( s ) */
(PID.TID 0000.0001)                 8.640000000000000E+04
(PID.TID 0000.0001)     ;
(PID.TID 0000.0001) dTtracerLev =  /* Tracer equation timestep ( s ) */
(PID.TID 0000.0001)    15 @  8.640000000000000E+04              /* K =  1: 15 */
(PID.TID 0000.0001)     ;
(PID.TID 0000.0001) deltaTClock  =   /* Model clock timestep ( s ) */
(PID.TID 0000.0001)                 8.640000000000000E+04
(PID.TID 0000.0001)     ;
(PID.TID 0000.0001) cAdjFreq =   /* Convective adjustment interval ( s ) */
(PID.TID 0000.0001)                 0.000000000000000E+00
(PID.TID 0000.0001)     ;
(PID.TID 0000.0001) momForcingOutAB = /* =1: take Momentum Forcing out of Adams-Bash. stepping */
(PID.TID 0000.0001)                       0
(PID.TID 0000.0001)     ;
(PID.TID 0000.0001) tracForcingOutAB = /* =1: take T,S,pTr Forcing out of Adams-Bash. stepping */
(PID.TID 0000.0001)                       1
(PID.TID 0000.0001)     ;
(PID.TID 0000.0001) momDissip_In_AB = /* put Dissipation Tendency in Adams-Bash. stepping */
(PID.TID 0000.0001)                   T
(PID.TID 0000.0001)     ;
(PID.TID 0000.0001) doAB_onGtGs = /* apply AB on Tendencies (rather than on T,S)*/
(PID.TID 0000.0001)                   T
(PID.TID 0000.0001)     ;
(PID.TID 0000.0001) abEps =   /* Adams-Bashforth-2 stabilizing weight */
(PID.TID 0000.0001)                 1.000000000000000E-01
(PID.TID 0000.0001)     ;
(PID.TID 0000.0001) alph_AB =   /* Adams-Bashforth-3 primary factor */
(PID.TID 0000.0001)                 5.000000000000000E-01
(PID.TID 0000.0001)     ;
(PID.TID 0000.0001) beta_AB =   /* Adams-Bashforth-3 secondary factor */
(PID.TID 0000.0001)                 4.166666666666667E-01
(PID.TID 0000.0001)     ;
(PID.TID 0000.0001) startFromPickupAB2= /* start from AB-2 pickup */
(PID.TID 0000.0001)                   F
(PID.TID 0000.0001)     ;
(PID.TID 0000.0001) pickupStrictlyMatch= /* stop if pickup do not strictly match */
(PID.TID 0000.0001)                   F
(PID.TID 0000.0001)     ;
(PID.TID 0000.0001) nIter0   =   /* Run starting timestep number */
(PID.TID 0000.0001)                   72000
(PID.TID 0000.0001)     ;
(PID.TID 0000.0001) nTimeSteps = /* Number of timesteps */
(PID.TID 0000.0001)                      20
(PID.TID 0000.0001)     ;
(PID.TID 0000.0001) nEndIter =   /* Run ending timestep number */
(PID.TID 0000.0001)                   72020
(PID.TID 0000.0001)     ;
(PID.TID 0000.0001) baseTime =   /* Model base time ( s ) */
(PID.TID 0000.0001)                 0.000000000000000E+00
(PID.TID 0000.0001)     ;
(PID.TID 0000.0001) startTime =  /* Run start time ( s ) */
(PID.TID 0000.0001)                 6.220800000000000E+09
(PID.TID 0000.0001)     ;
(PID.TID 0000.0001) endTime  =   /* Integration ending time ( s ) */
(PID.TID 0000.0001)                 6.222528000000000E+09
(PID.TID 0000.0001)     ;
(PID.TID 0000.0001) pChkPtFreq = /* Permanent restart/pickup file interval ( s ) */
(PID.TID 0000.0001)                 1.728000000000000E+06
(PID.TID 0000.0001)     ;
(PID.TID 0000.0001) chkPtFreq  = /* Rolling restart/pickup file interval ( s ) */
(PID.TID 0000.0001)                 0.000000000000000E+00
(PID.TID 0000.0001)     ;
(PID.TID 0000.0001) pickup_write_mdsio =   /* Model IO flag. */
(PID.TID 0000.0001)                   T
(PID.TID 0000.0001)     ;
(PID.TID 0000.0001) pickup_read_mdsio =   /* Model IO flag. */
(PID.TID 0000.0001)                   T
(PID.TID 0000.0001)     ;
(PID.TID 0000.0001) pickup_write_immed =   /* Model IO flag. */
(PID.TID 0000.0001)                   F
(PID.TID 0000.0001)     ;
(PID.TID 0000.0001) writePickupAtEnd =   /* Model IO flag. */
(PID.TID 0000.0001)                   T
(PID.TID 0000.0001)     ;
(PID.TID 0000.0001) dumpFreq =   /* Model state write out interval ( s ). */
(PID.TID 0000.0001)                 8.640000000000000E+04
(PID.TID 0000.0001)     ;
(PID.TID 0000.0001) dumpInitAndLast= /* write out Initial & Last iter. model state */
(PID.TID 0000.0001)                   T
(PID.TID 0000.0001)     ;
(PID.TID 0000.0001) snapshot_mdsio =   /* Model IO flag. */
(PID.TID 0000.0001)                   T
(PID.TID 0000.0001)     ;
(PID.TID 0000.0001) monitorFreq =   /* Monitor output interval ( s ). */
(PID.TID 0000.0001)                 1.000000000000000E+00
(PID.TID 0000.0001)     ;
(PID.TID 0000.0001) monitorSelect = /* select group of variables to monitor */
(PID.TID 0000.0001)                       3
(PID.TID 0000.0001)     ;
(PID.TID 0000.0001) monitor_stdio =   /* Model IO flag. */
(PID.TID 0000.0001)                   T
(PID.TID 0000.0001)     ;
(PID.TID 0000.0001) externForcingPeriod =   /* forcing period (s) */
(PID.TID 0000.0001)                 2.592000000000000E+06
(PID.TID 0000.0001)     ;
(PID.TID 0000.0001) externForcingCycle =   /* period of the cyle (s). */
(PID.TID 0000.0001)                 3.110400000000000E+07
(PID.TID 0000.0001)     ;
(PID.TID 0000.0001) tauThetaClimRelax =   /* relaxation time scale (s) */
(PID.TID 0000.0001)                 5.184000000000000E+06
(PID.TID 0000.0001)     ;
(PID.TID 0000.0001) tauSaltClimRelax =   /* relaxation time scale (s) */
(PID.TID 0000.0001)                 6.220800000000000E+07
(PID.TID 0000.0001)     ;
(PID.TID 0000.0001) latBandClimRelax =   /* max. Lat. where relaxation */
(PID.TID 0000.0001)                 1.800000000000000E+02
(PID.TID 0000.0001)     ;
(PID.TID 0000.0001) //
(PID.TID 0000.0001) // Gridding paramters ( PARM04 in namelist )
(PID.TID 0000.0001) //
(PID.TID 0000.0001) usingCartesianGrid = /* Cartesian coordinates flag ( True/False ) */
(PID.TID 0000.0001)                   F
(PID.TID 0000.0001)     ;
(PID.TID 0000.0001) usingCylindricalGrid = /* Cylindrical coordinates flag ( True/False ) */
(PID.TID 0000.0001)                   F
(PID.TID 0000.0001)     ;
(PID.TID 0000.0001) usingSphericalPolarGrid = /* Spherical coordinates flag ( True/False ) */
(PID.TID 0000.0001)                   F
(PID.TID 0000.0001)     ;
(PID.TID 0000.0001) usingCurvilinearGrid = /* Curvilinear coordinates flag ( True/False ) */
(PID.TID 0000.0001)                   T
(PID.TID 0000.0001)     ;
(PID.TID 0000.0001) selectSigmaCoord = /* Hybrid-Sigma Vert. Coordinate option */
(PID.TID 0000.0001)                       0
(PID.TID 0000.0001)     ;
(PID.TID 0000.0001) Ro_SeaLevel = /* r(1) ( units of r ==  m ) */
(PID.TID 0000.0001)                 0.000000000000000E+00
(PID.TID 0000.0001)     ;
(PID.TID 0000.0001) rSigmaBnd = /* r/sigma transition ( units of r ==  m ) */
(PID.TID 0000.0001)                 1.234567000000000E+05
(PID.TID 0000.0001)     ;
(PID.TID 0000.0001) rkSign =   /* index orientation relative to vertical coordinate */
(PID.TID 0000.0001)                -1.000000000000000E+00
(PID.TID 0000.0001)     ;
(PID.TID 0000.0001) gravitySign = /* gravity orientation relative to vertical coordinate */
(PID.TID 0000.0001)                -1.000000000000000E+00
(PID.TID 0000.0001)     ;
(PID.TID 0000.0001) mass2rUnit = /* convert mass per unit area [kg/m2] to r-units [m] */
(PID.TID 0000.0001)                 9.661835748792270E-04
(PID.TID 0000.0001)     ;
(PID.TID 0000.0001) rUnit2mass = /* convert r-units [m] to mass per unit area [kg/m2] */
(PID.TID 0000.0001)                 1.035000000000000E+03
(PID.TID 0000.0001)     ;
(PID.TID 0000.0001) drC =   /* C spacing ( units of r ) */
(PID.TID 0000.0001)                 2.500000000000000E+01,      /* K =  1 */
(PID.TID 0000.0001)                 6.000000000000000E+01,      /* K =  2 */
(PID.TID 0000.0001)                 8.500000000000000E+01,      /* K =  3 */
(PID.TID 0000.0001)                 1.200000000000000E+02,      /* K =  4 */
(PID.TID 0000.0001)                 1.650000000000000E+02,      /* K =  5 */
(PID.TID 0000.0001)                 2.150000000000000E+02,      /* K =  6 */
(PID.TID 0000.0001)                 2.650000000000000E+02,      /* K =  7 */
(PID.TID 0000.0001)                 3.150000000000000E+02,      /* K =  8 */
(PID.TID 0000.0001)                 3.650000000000000E+02,      /* K =  9 */
(PID.TID 0000.0001)                 4.150000000000000E+02,      /* K = 10 */
(PID.TID 0000.0001)                 4.650000000000000E+02,      /* K = 11 */
(PID.TID 0000.0001)                 5.150000000000000E+02,      /* K = 12 */
(PID.TID 0000.0001)                 5.650000000000000E+02,      /* K = 13 */
(PID.TID 0000.0001)                 6.150000000000000E+02,      /* K = 14 */
(PID.TID 0000.0001)                 6.650000000000000E+02       /* K = 15 */
(PID.TID 0000.0001)     ;
(PID.TID 0000.0001) drF =   /* W spacing ( units of r ) */
(PID.TID 0000.0001)                 5.000000000000000E+01,      /* K =  1 */
(PID.TID 0000.0001)                 7.000000000000000E+01,      /* K =  2 */
(PID.TID 0000.0001)                 1.000000000000000E+02,      /* K =  3 */
(PID.TID 0000.0001)                 1.400000000000000E+02,      /* K =  4 */
(PID.TID 0000.0001)                 1.900000000000000E+02,      /* K =  5 */
(PID.TID 0000.0001)                 2.400000000000000E+02,      /* K =  6 */
(PID.TID 0000.0001)                 2.900000000000000E+02,      /* K =  7 */
(PID.TID 0000.0001)                 3.400000000000000E+02,      /* K =  8 */
(PID.TID 0000.0001)                 3.900000000000000E+02,      /* K =  9 */
(PID.TID 0000.0001)                 4.400000000000000E+02,      /* K = 10 */
(PID.TID 0000.0001)                 4.900000000000000E+02,      /* K = 11 */
(PID.TID 0000.0001)                 5.400000000000000E+02,      /* K = 12 */
(PID.TID 0000.0001)                 5.900000000000000E+02,      /* K = 13 */
(PID.TID 0000.0001)                 6.400000000000000E+02,      /* K = 14 */
(PID.TID 0000.0001)                 6.900000000000000E+02       /* K = 15 */
(PID.TID 0000.0001)     ;
(PID.TID 0000.0001) xgOrigin = /* X-axis origin of West  edge (cartesian: m, lat-lon: deg.) */
(PID.TID 0000.0001)                 0.000000000000000E+00
(PID.TID 0000.0001)     ;
(PID.TID 0000.0001) ygOrigin = /* Y-axis origin of South edge (cartesian: m, lat-lon: deg.) */
(PID.TID 0000.0001)                 0.000000000000000E+00
(PID.TID 0000.0001)     ;
(PID.TID 0000.0001) rSphere =  /* Radius ( ignored - cartesian, m - spherical ) */
(PID.TID 0000.0001)                 6.370000000000000E+06
(PID.TID 0000.0001)     ;
(PID.TID 0000.0001) radius_fromHorizGrid = /* sphere Radius of input horiz. grid */
(PID.TID 0000.0001)                 6.370000000000000E+06
(PID.TID 0000.0001)     ;
(PID.TID 0000.0001) deepAtmosphere = /* Deep/Shallow Atmosphere flag (True/False) */
(PID.TID 0000.0001)                   F
(PID.TID 0000.0001)     ;
(PID.TID 0000.0001) xC =  /* xC(:,1,:,1) : P-point X coord ( deg. or m if cartesian) */
(PID.TID 0000.0001)                -4.439521994760536E+01,      /* I =  1 */
(PID.TID 0000.0001)                -4.295641272275883E+01,      /* I =  2 */
(PID.TID 0000.0001)                -4.122055553388957E+01,      /* I =  3 */
(PID.TID 0000.0001)      . . .
(PID.TID 0000.0001)                 1.312205555338896E+02,      /* I = 94 */
(PID.TID 0000.0001)                 1.329564127227588E+02,      /* I = 95 */
(PID.TID 0000.0001)                 1.343952199476053E+02,      /* I = 96 */
(PID.TID 0000.0001)                 4.635509675007168E+01,      /* I = 97 */
(PID.TID 0000.0001)                 4.906731228843647E+01,      /* I = 98 */
(PID.TID 0000.0001)                 5.178550688214704E+01,      /* I = 99 */
(PID.TID 0000.0001)      . . .
(PID.TID 0000.0001)                -1.778001716525716E+02,      /* I =190 */
(PID.TID 0000.0001)                -1.779288225675308E+02,      /* I =191 */
(PID.TID 0000.0001)                -1.780367200854751E+02,      /* I =192 */
(PID.TID 0000.0001)                 1.356047800523947E+02,      /* I =193 */
(PID.TID 0000.0001)                 1.358367907661329E+02,      /* I =194 */
(PID.TID 0000.0001)                 1.359720382181193E+02,      /* I =195 */
(PID.TID 0000.0001)      . . .
(PID.TID 0000.0001)                -1.340279617818807E+02,      /* I =286 */
(PID.TID 0000.0001)                -1.341632092338671E+02,      /* I =287 */
(PID.TID 0000.0001)                -1.343952199476053E+02,      /* I =288 */
(PID.TID 0000.0001)                -8.812739148696656E+01,      /* I =289 */
(PID.TID 0000.0001)                -8.820362659721324E+01,      /* I =290 */
(PID.TID 0000.0001)                -8.826768106944316E+01,      /* I =291 */
(PID.TID 0000.0001)      . . .
(PID.TID 0000.0001)                 8.780017165257156E+01,      /* I =382 */
(PID.TID 0000.0001)                 8.792882256753080E+01,      /* I =383 */
(PID.TID 0000.0001)                 8.803672008547504E+01       /* I =384 */
(PID.TID 0000.0001)     ;
(PID.TID 0000.0001) yC =  /* yC(1,:,1,:) : P-point Y coord ( deg. or m if cartesian) */
(PID.TID 0000.0001)                -3.497677942598243E+01,      /* J =  1 */
(PID.TID 0000.0001)                -3.374005967394886E+01,      /* J =  2 */
(PID.TID 0000.0001)                -3.220655175667454E+01,      /* J =  3 */
(PID.TID 0000.0001)                -3.045756348838641E+01,      /* J =  4 */
(PID.TID 0000.0001)                -2.853728129852918E+01,      /* J =  5 */
(PID.TID 0000.0001)                -2.647426640173173E+01,      /* J =  6 */
(PID.TID 0000.0001)                -2.428936657094636E+01,      /* J =  7 */
(PID.TID 0000.0001)                -2.199915808312262E+01,      /* J =  8 */
(PID.TID 0000.0001)                -1.961768597440146E+01,      /* J =  9 */
(PID.TID 0000.0001)                -1.715743888281371E+01,      /* J = 10 */
(PID.TID 0000.0001)                -1.462993396899330E+01,      /* J = 11 */
(PID.TID 0000.0001)                -1.204608340464756E+01,      /* J = 12 */
(PID.TID 0000.0001)                -9.416429130284818E+00,      /* J = 13 */
(PID.TID 0000.0001)                -6.751293662992216E+00,      /* J = 14 */
(PID.TID 0000.0001)                -4.060875511835959E+00,      /* J = 15 */
(PID.TID 0000.0001)                -1.355307764409121E+00       /* J = 16 */
(PID.TID 0000.0001)     ;
(PID.TID 0000.0001) rcoord = /* P-point R coordinate (  units of r ) */
(PID.TID 0000.0001)                -2.500000000000000E+01,      /* K =  1 */
(PID.TID 0000.0001)                -8.500000000000000E+01,      /* K =  2 */
(PID.TID 0000.0001)                -1.700000000000000E+02,      /* K =  3 */
(PID.TID 0000.0001)                -2.900000000000000E+02,      /* K =  4 */
(PID.TID 0000.0001)                -4.550000000000000E+02,      /* K =  5 */
(PID.TID 0000.0001)                -6.700000000000000E+02,      /* K =  6 */
(PID.TID 0000.0001)                -9.350000000000000E+02,      /* K =  7 */
(PID.TID 0000.0001)                -1.250000000000000E+03,      /* K =  8 */
(PID.TID 0000.0001)                -1.615000000000000E+03,      /* K =  9 */
(PID.TID 0000.0001)                -2.030000000000000E+03,      /* K = 10 */
(PID.TID 0000.0001)                -2.495000000000000E+03,      /* K = 11 */
(PID.TID 0000.0001)                -3.010000000000000E+03,      /* K = 12 */
(PID.TID 0000.0001)                -3.575000000000000E+03,      /* K = 13 */
(PID.TID 0000.0001)                -4.190000000000000E+03,      /* K = 14 */
(PID.TID 0000.0001)                -4.855000000000000E+03       /* K = 15 */
(PID.TID 0000.0001)     ;
(PID.TID 0000.0001) rF =   /* W-Interf. R coordinate (  units of r ) */
(PID.TID 0000.0001)                 0.000000000000000E+00,      /* K =  1 */
(PID.TID 0000.0001)                -5.000000000000000E+01,      /* K =  2 */
(PID.TID 0000.0001)                -1.200000000000000E+02,      /* K =  3 */
(PID.TID 0000.0001)                -2.200000000000000E+02,      /* K =  4 */
(PID.TID 0000.0001)                -3.600000000000000E+02,      /* K =  5 */
(PID.TID 0000.0001)                -5.500000000000000E+02,      /* K =  6 */
(PID.TID 0000.0001)                -7.900000000000000E+02,      /* K =  7 */
(PID.TID 0000.0001)                -1.080000000000000E+03,      /* K =  8 */
(PID.TID 0000.0001)                -1.420000000000000E+03,      /* K =  9 */
(PID.TID 0000.0001)                -1.810000000000000E+03,      /* K = 10 */
(PID.TID 0000.0001)                -2.250000000000000E+03,      /* K = 11 */
(PID.TID 0000.0001)                -2.740000000000000E+03,      /* K = 12 */
(PID.TID 0000.0001)                -3.280000000000000E+03,      /* K = 13 */
(PID.TID 0000.0001)                -3.870000000000000E+03,      /* K = 14 */
(PID.TID 0000.0001)                -4.510000000000000E+03,      /* K = 15 */
(PID.TID 0000.0001)                -5.200000000000000E+03       /* K = 16 */
(PID.TID 0000.0001)     ;
(PID.TID 0000.0001) deepFacC = /* deep-model grid factor @ cell-Center (-) */
(PID.TID 0000.0001)    15 @  1.000000000000000E+00              /* K =  1: 15 */
(PID.TID 0000.0001)     ;
(PID.TID 0000.0001) deepFacF = /* deep-model grid factor @ W-Interface (-) */
(PID.TID 0000.0001)    16 @  1.000000000000000E+00              /* K =  1: 16 */
(PID.TID 0000.0001)     ;
(PID.TID 0000.0001) rVel2wUnit = /* convert units: rVel -> wSpeed (=1 if z-coord)*/
(PID.TID 0000.0001)    16 @  1.000000000000000E+00              /* K =  1: 16 */
(PID.TID 0000.0001)     ;
(PID.TID 0000.0001) wUnit2rVel = /* convert units: wSpeed -> rVel (=1 if z-coord)*/
(PID.TID 0000.0001)    16 @  1.000000000000000E+00              /* K =  1: 16 */
(PID.TID 0000.0001)     ;
(PID.TID 0000.0001) dBdrRef = /* Vertical grad. of reference buoyancy [(m/s/r)^2] */
(PID.TID 0000.0001)    15 @  0.000000000000000E+00              /* K =  1: 15 */
(PID.TID 0000.0001)     ;
(PID.TID 0000.0001) rotateGrid = /* use rotated grid ( True/False ) */
(PID.TID 0000.0001)                   F
(PID.TID 0000.0001)     ;
(PID.TID 0000.0001) phiEuler = /* Euler angle, rotation about original z-coordinate [rad] */
(PID.TID 0000.0001)                 0.000000000000000E+00
(PID.TID 0000.0001)     ;
(PID.TID 0000.0001) thetaEuler = /* Euler angle, rotation about new x-coordinate [rad] */
(PID.TID 0000.0001)                 0.000000000000000E+00
(PID.TID 0000.0001)     ;
(PID.TID 0000.0001) psiEuler = /* Euler angle, rotation about new z-coordinate [rad] */
(PID.TID 0000.0001)                 0.000000000000000E+00
(PID.TID 0000.0001)     ;
(PID.TID 0000.0001) dxF =  /* dxF(:,1,:,1) ( units: m ) */
(PID.TID 0000.0001)                 1.202082051331828E+05,      /* I =  1 */
(PID.TID 0000.0001)                 1.563594089971120E+05,      /* I =  2 */
(PID.TID 0000.0001)                 1.835530058121492E+05,      /* I =  3 */
(PID.TID 0000.0001)      . . .
(PID.TID 0000.0001)                 1.835530058121492E+05,      /* I = 94 */
(PID.TID 0000.0001)                 1.563594089971120E+05,      /* I = 95 */
(PID.TID 0000.0001)                 1.202082051331828E+05,      /* I = 96 */
(PID.TID 0000.0001)                 3.012844832048790E+05,      /* I = 97 */
(PID.TID 0000.0001)                 3.017314519159184E+05,      /* I = 98 */
(PID.TID 0000.0001)                 3.026061571839506E+05,      /* I = 99 */
(PID.TID 0000.0001)      . . .
(PID.TID 0000.0001)                 3.026061571839506E+05,      /* I =190 */
(PID.TID 0000.0001)                 3.017314519159184E+05,      /* I =191 */
(PID.TID 0000.0001)                 3.012844832048790E+05,      /* I =192 */
(PID.TID 0000.0001)                 1.202082051331828E+05,      /* I =193 */
(PID.TID 0000.0001)                 1.563594089971120E+05,      /* I =194 */
(PID.TID 0000.0001)                 1.835530058121492E+05,      /* I =195 */
(PID.TID 0000.0001)      . . .
(PID.TID 0000.0001)                 1.835530058121492E+05,      /* I =286 */
(PID.TID 0000.0001)                 1.563594089971120E+05,      /* I =287 */
(PID.TID 0000.0001)                 1.202082051331828E+05,      /* I =288 */
(PID.TID 0000.0001)                 3.012844832048790E+05,      /* I =289 */
(PID.TID 0000.0001)                 3.017314519159184E+05,      /* I =290 */
(PID.TID 0000.0001)                 3.026061571839506E+05,      /* I =291 */
(PID.TID 0000.0001)      . . .
(PID.TID 0000.0001)                 3.026061571839506E+05,      /* I =382 */
(PID.TID 0000.0001)                 3.017314519159184E+05,      /* I =383 */
(PID.TID 0000.0001)                 3.012844832048790E+05       /* I =384 */
(PID.TID 0000.0001)     ;
(PID.TID 0000.0001) dxF =  /* dxF(1,:,1,:) ( units: m ) */
(PID.TID 0000.0001)                 1.202082051331828E+05,      /* J =  1 */
(PID.TID 0000.0001)                 1.572908084538706E+05,      /* J =  2 */
(PID.TID 0000.0001)                 1.840412227747703E+05,      /* J =  3 */
(PID.TID 0000.0001)                 2.048868197919576E+05,      /* J =  4 */
(PID.TID 0000.0001)                 2.220405216043041E+05,      /* J =  5 */
(PID.TID 0000.0001)                 2.365892017348392E+05,      /* J =  6 */
(PID.TID 0000.0001)                 2.491250781852558E+05,      /* J =  7 */
(PID.TID 0000.0001)                 2.599949918261881E+05,      /* J =  8 */
(PID.TID 0000.0001)                 2.694110134598581E+05,      /* J =  9 */
(PID.TID 0000.0001)                 2.775055554645015E+05,      /* J = 10 */
(PID.TID 0000.0001)                 2.843615645344775E+05,      /* J = 11 */
(PID.TID 0000.0001)                 2.900303768613599E+05,      /* J = 12 */
(PID.TID 0000.0001)                 2.945429307892709E+05,      /* J = 13 */
(PID.TID 0000.0001)                 2.979171143158405E+05,      /* J = 14 */
(PID.TID 0000.0001)                 3.001626787528886E+05,      /* J = 15 */
(PID.TID 0000.0001)                 3.012844832048790E+05       /* J = 16 */
(PID.TID 0000.0001)     ;
(PID.TID 0000.0001) dyF =  /* dyF(:,1,:,1) ( units: m ) */
(PID.TID 0000.0001)                 1.202082051331828E+05,      /* I =  1 */
(PID.TID 0000.0001)                 1.572908084538706E+05,      /* I =  2 */
(PID.TID 0000.0001)                 1.840412227747703E+05,      /* I =  3 */
(PID.TID 0000.0001)      . . .
(PID.TID 0000.0001)                 1.840412227747703E+05,      /* I = 94 */
(PID.TID 0000.0001)                 1.572908084538706E+05,      /* I = 95 */
(PID.TID 0000.0001)                 1.202082051331828E+05,      /* I = 96 */
(PID.TID 0000.0001)                 3.012190981969055E+05,      /* I = 97 */
(PID.TID 0000.0001)                 3.016675528553907E+05,      /* I = 98 */
(PID.TID 0000.0001)                 3.025451404065074E+05,      /* I = 99 */
(PID.TID 0000.0001)      . . .
(PID.TID 0000.0001)                 3.025451404065074E+05,      /* I =190 */
(PID.TID 0000.0001)                 3.016675528553907E+05,      /* I =191 */
(PID.TID 0000.0001)                 3.012190981969055E+05,      /* I =192 */
(PID.TID 0000.0001)                 1.202082051331828E+05,      /* I =193 */
(PID.TID 0000.0001)                 1.572908084538706E+05,      /* I =194 */
(PID.TID 0000.0001)                 1.840412227747703E+05,      /* I =195 */
(PID.TID 0000.0001)      . . .
(PID.TID 0000.0001)                 1.840412227747703E+05,      /* I =286 */
(PID.TID 0000.0001)                 1.572908084538706E+05,      /* I =287 */
(PID.TID 0000.0001)                 1.202082051331828E+05,      /* I =288 */
(PID.TID 0000.0001)                 3.012190981969055E+05,      /* I =289 */
(PID.TID 0000.0001)                 3.016675528553907E+05,      /* I =290 */
(PID.TID 0000.0001)                 3.025451404065074E+05,      /* I =291 */
(PID.TID 0000.0001)      . . .
(PID.TID 0000.0001)                 3.025451404065074E+05,      /* I =382 */
(PID.TID 0000.0001)                 3.016675528553907E+05,      /* I =383 */
(PID.TID 0000.0001)                 3.012190981969055E+05       /* I =384 */
(PID.TID 0000.0001)     ;
(PID.TID 0000.0001) dyF =  /* dyF(1,:,1,:) ( units: m ) */
(PID.TID 0000.0001)                 1.202082051331828E+05,      /* J =  1 */
(PID.TID 0000.0001)                 1.563594089971120E+05,      /* J =  2 */
(PID.TID 0000.0001)                 1.835530058121492E+05,      /* J =  3 */
(PID.TID 0000.0001)                 2.045883481718707E+05,      /* J =  4 */
(PID.TID 0000.0001)                 2.218350349844185E+05,      /* J =  5 */
(PID.TID 0000.0001)                 2.364352994647058E+05,      /* J =  6 */
(PID.TID 0000.0001)                 2.490022710862746E+05,      /* J =  7 */
(PID.TID 0000.0001)                 2.598919724358304E+05,      /* J =  8 */
(PID.TID 0000.0001)                 2.693210245495156E+05,      /* J =  9 */
(PID.TID 0000.0001)                 2.774243179696503E+05,      /* J = 10 */
(PID.TID 0000.0001)                 2.842862532064524E+05,      /* J = 11 */
(PID.TID 0000.0001)                 2.899590699694043E+05,      /* J = 12 */
(PID.TID 0000.0001)                 2.944742915095688E+05,      /* J = 13 */
(PID.TID 0000.0001)                 2.978501920522794E+05,      /* J = 14 */
(PID.TID 0000.0001)                 3.000967749619962E+05,      /* J = 15 */
(PID.TID 0000.0001)                 3.012190981969055E+05       /* J = 16 */
(PID.TID 0000.0001)     ;
(PID.TID 0000.0001) dxG =  /* dxG(:,1,:,1) ( units: m ) */
(PID.TID 0000.0001)                 1.009837800879055E+05,      /* I =  1 */
(PID.TID 0000.0001)                 1.534505834330338E+05,      /* I =  2 */
(PID.TID 0000.0001)                 1.823321598773926E+05,      /* I =  3 */
(PID.TID 0000.0001)      . . .
(PID.TID 0000.0001)                 1.823321598773926E+05,      /* I = 94 */
(PID.TID 0000.0001)                 1.534505834330338E+05,      /* I = 95 */
(PID.TID 0000.0001)                 1.009837800879055E+05,      /* I = 96 */
(PID.TID 0000.0001)                 3.014246674484008E+05,      /* I = 97 */
(PID.TID 0000.0001)                 3.018694497480782E+05,      /* I = 98 */
(PID.TID 0000.0001)                 3.027399364062562E+05,      /* I = 99 */
(PID.TID 0000.0001)      . . .
(PID.TID 0000.0001)                 3.027399364062562E+05,      /* I =190 */
(PID.TID 0000.0001)                 3.018694497480782E+05,      /* I =191 */
(PID.TID 0000.0001)                 3.014246674484008E+05,      /* I =192 */
(PID.TID 0000.0001)                 1.009837800879055E+05,      /* I =193 */
(PID.TID 0000.0001)                 1.534505834330338E+05,      /* I =194 */
(PID.TID 0000.0001)                 1.823321598773926E+05,      /* I =195 */
(PID.TID 0000.0001)      . . .
(PID.TID 0000.0001)                 1.823321598773926E+05,      /* I =286 */
(PID.TID 0000.0001)                 1.534505834330338E+05,      /* I =287 */
(PID.TID 0000.0001)                 1.009837800879055E+05,      /* I =288 */
(PID.TID 0000.0001)                 3.014246674484008E+05,      /* I =289 */
(PID.TID 0000.0001)                 3.018694497480782E+05,      /* I =290 */
(PID.TID 0000.0001)                 3.027399364062562E+05,      /* I =291 */
(PID.TID 0000.0001)      . . .
(PID.TID 0000.0001)                 3.027399364062562E+05,      /* I =382 */
(PID.TID 0000.0001)                 3.018694497480782E+05,      /* I =383 */
(PID.TID 0000.0001)                 3.014246674484008E+05       /* I =384 */
(PID.TID 0000.0001)     ;
(PID.TID 0000.0001) dxG =  /* dxG(1,:,1,:) ( units: m ) */
(PID.TID 0000.0001)                 1.009837800879055E+05,      /* J =  1 */
(PID.TID 0000.0001)                 1.403701524205398E+05,      /* J =  2 */
(PID.TID 0000.0001)                 1.716197227386011E+05,      /* J =  3 */
(PID.TID 0000.0001)                 1.950254041626018E+05,      /* J =  4 */
(PID.TID 0000.0001)                 2.138410773065497E+05,      /* J =  5 */
(PID.TID 0000.0001)                 2.295958105911512E+05,      /* J =  6 */
(PID.TID 0000.0001)                 2.430829951739083E+05,      /* J =  7 */
(PID.TID 0000.0001)                 2.547526806712889E+05,      /* J =  8 */
(PID.TID 0000.0001)                 2.648750305193301E+05,      /* J =  9 */
(PID.TID 0000.0001)                 2.736173771018112E+05,      /* J = 10 */
(PID.TID 0000.0001)                 2.810845823202647E+05,      /* J = 11 */
(PID.TID 0000.0001)                 2.873420591008078E+05,      /* J = 12 */
(PID.TID 0000.0001)                 2.924298293668651E+05,      /* J = 13 */
(PID.TID 0000.0001)                 2.963715635865306E+05,      /* J = 14 */
(PID.TID 0000.0001)                 2.991805843171258E+05,      /* J = 15 */
(PID.TID 0000.0001)                 3.008638765647886E+05       /* J = 16 */
(PID.TID 0000.0001)     ;
(PID.TID 0000.0001) dyG =  /* dyG(:,1,:,1) ( units: m ) */
(PID.TID 0000.0001)                 1.009837800879055E+05,      /* I =  1 */
(PID.TID 0000.0001)                 1.403701524205398E+05,      /* I =  2 */
(PID.TID 0000.0001)                 1.716197227386011E+05,      /* I =  3 */
(PID.TID 0000.0001)      . . .
(PID.TID 0000.0001)                 1.950254041626018E+05,      /* I = 94 */
(PID.TID 0000.0001)                 1.716197227386011E+05,      /* I = 95 */
(PID.TID 0000.0001)                 1.403701524205398E+05,      /* I = 96 */
(PID.TID 0000.0001)                 3.011625828699101E+05,      /* I = 97 */
(PID.TID 0000.0001)                 3.013880313304323E+05,      /* I = 98 */
(PID.TID 0000.0001)                 3.020546438966793E+05,      /* I = 99 */
(PID.TID 0000.0001)      . . .
(PID.TID 0000.0001)                 3.031337933484788E+05,      /* I =190 */
(PID.TID 0000.0001)                 3.020546438966793E+05,      /* I =191 */
(PID.TID 0000.0001)                 3.013880313304323E+05,      /* I =192 */
(PID.TID 0000.0001)                 1.009837800879055E+05,      /* I =193 */
(PID.TID 0000.0001)                 1.403701524205398E+05,      /* I =194 */
(PID.TID 0000.0001)                 1.716197227386011E+05,      /* I =195 */
(PID.TID 0000.0001)      . . .
(PID.TID 0000.0001)                 1.950254041626018E+05,      /* I =286 */
(PID.TID 0000.0001)                 1.716197227386011E+05,      /* I =287 */
(PID.TID 0000.0001)                 1.403701524205398E+05,      /* I =288 */
(PID.TID 0000.0001)                 3.011625828699101E+05,      /* I =289 */
(PID.TID 0000.0001)                 3.013880313304323E+05,      /* I =290 */
(PID.TID 0000.0001)                 3.020546438966793E+05,      /* I =291 */
(PID.TID 0000.0001)      . . .
(PID.TID 0000.0001)                 3.031337933484788E+05,      /* I =382 */
(PID.TID 0000.0001)                 3.020546438966793E+05,      /* I =383 */
(PID.TID 0000.0001)                 3.013880313304323E+05       /* I =384 */
(PID.TID 0000.0001)     ;
(PID.TID 0000.0001) dyG =  /* dyG(1,:,1,:) ( units: m ) */
(PID.TID 0000.0001)                 1.009837800879055E+05,      /* J =  1 */
(PID.TID 0000.0001)                 1.534505834330338E+05,      /* J =  2 */
(PID.TID 0000.0001)                 1.823321598773926E+05,      /* J =  3 */
(PID.TID 0000.0001)                 2.038999045536999E+05,      /* J =  4 */
(PID.TID 0000.0001)                 2.213884732245467E+05,      /* J =  5 */
(PID.TID 0000.0001)                 2.361211699596122E+05,      /* J =  6 */
(PID.TID 0000.0001)                 2.487693460283865E+05,      /* J =  7 */
(PID.TID 0000.0001)                 2.597126963772147E+05,      /* J =  8 */
(PID.TID 0000.0001)                 2.691790288994575E+05,      /* J =  9 */
(PID.TID 0000.0001)                 2.773091043277394E+05,      /* J = 10 */
(PID.TID 0000.0001)                 2.841906470085516E+05,      /* J = 11 */
(PID.TID 0000.0001)                 2.898778860929753E+05,      /* J = 12 */
(PID.TID 0000.0001)                 2.944035815526416E+05,      /* J = 13 */
(PID.TID 0000.0001)                 2.977867909042096E+05,      /* J = 14 */
(PID.TID 0000.0001)                 3.000380090330854E+05,      /* J = 15 */
(PID.TID 0000.0001)                 3.011625828699101E+05       /* J = 16 */
(PID.TID 0000.0001)     ;
(PID.TID 0000.0001) dxC =  /* dxC(:,1,:,1) ( units: m ) */
(PID.TID 0000.0001)                 1.114203141013064E+05,      /* I =  1 */
(PID.TID 0000.0001)                 1.391343389937106E+05,      /* I =  2 */
(PID.TID 0000.0001)                 1.709574999026266E+05,      /* I =  3 */
(PID.TID 0000.0001)      . . .
(PID.TID 0000.0001)                 1.946503699269892E+05,      /* I = 94 */
(PID.TID 0000.0001)                 1.709574999026266E+05,      /* I = 95 */
(PID.TID 0000.0001)                 1.391343389937106E+05,      /* I = 96 */
(PID.TID 0000.0001)                 3.012281885409289E+05,      /* I = 97 */
(PID.TID 0000.0001)                 3.014528555318499E+05,      /* I = 98 */
(PID.TID 0000.0001)                 3.021172674809921E+05,      /* I = 99 */
(PID.TID 0000.0001)      . . .
(PID.TID 0000.0001)                 3.031928954490276E+05,      /* I =190 */
(PID.TID 0000.0001)                 3.021172674809921E+05,      /* I =191 */
(PID.TID 0000.0001)                 3.014528555318499E+05,      /* I =192 */
(PID.TID 0000.0001)                 1.114203141013064E+05,      /* I =193 */
(PID.TID 0000.0001)                 1.391343389937106E+05,      /* I =194 */
(PID.TID 0000.0001)                 1.709574999026266E+05,      /* I =195 */
(PID.TID 0000.0001)      . . .
(PID.TID 0000.0001)                 1.946503699269892E+05,      /* I =286 */
(PID.TID 0000.0001)                 1.709574999026266E+05,      /* I =287 */
(PID.TID 0000.0001)                 1.391343389937106E+05,      /* I =288 */
(PID.TID 0000.0001)                 3.012281885409289E+05,      /* I =289 */
(PID.TID 0000.0001)                 3.014528555318499E+05,      /* I =290 */
(PID.TID 0000.0001)                 3.021172674809921E+05,      /* I =291 */
(PID.TID 0000.0001)      . . .
(PID.TID 0000.0001)                 3.031928954490276E+05,      /* I =382 */
(PID.TID 0000.0001)                 3.021172674809921E+05,      /* I =383 */
(PID.TID 0000.0001)                 3.014528555318499E+05       /* I =384 */
(PID.TID 0000.0001)     ;
(PID.TID 0000.0001) dxC =  /* dxC(1,:,1,:) ( units: m ) */
(PID.TID 0000.0001)                 1.114203141013064E+05,      /* J =  1 */
(PID.TID 0000.0001)                 1.549545757850771E+05,      /* J =  2 */
(PID.TID 0000.0001)                 1.829777599966776E+05,      /* J =  3 */
(PID.TID 0000.0001)                 2.042717761866506E+05,      /* J =  4 */
(PID.TID 0000.0001)                 2.216367828252819E+05,      /* J =  5 */
(PID.TID 0000.0001)                 2.363029564123586E+05,      /* J =  6 */
(PID.TID 0000.0001)                 2.489113743322025E+05,      /* J =  7 */
(PID.TID 0000.0001)                 2.598293319150326E+05,      /* J =  8 */
(PID.TID 0000.0001)                 2.692787333338535E+05,      /* J =  9 */
(PID.TID 0000.0001)                 2.773972106720365E+05,      /* J = 10 */
(PID.TID 0000.0001)                 2.842706922224557E+05,      /* J = 11 */
(PID.TID 0000.0001)                 2.899523122489403E+05,      /* J = 12 */
(PID.TID 0000.0001)                 2.944741346384699E+05,      /* J = 13 */
(PID.TID 0000.0001)                 2.978547649292580E+05,      /* J = 14 */
(PID.TID 0000.0001)                 3.001044073506459E+05,      /* J = 15 */
(PID.TID 0000.0001)                 3.012281885409289E+05       /* J = 16 */
(PID.TID 0000.0001)     ;
(PID.TID 0000.0001) dyC =  /* dyC(:,1,:,1) ( units: m ) */
(PID.TID 0000.0001)                 1.114203141013064E+05,      /* I =  1 */
(PID.TID 0000.0001)                 1.549545757850771E+05,      /* I =  2 */
(PID.TID 0000.0001)                 1.829777599966776E+05,      /* I =  3 */
(PID.TID 0000.0001)      . . .
(PID.TID 0000.0001)                 1.829777599966776E+05,      /* I = 94 */
(PID.TID 0000.0001)                 1.549545757850771E+05,      /* I = 95 */
(PID.TID 0000.0001)                 1.114203141013064E+05,      /* I = 96 */
(PID.TID 0000.0001)                 3.013593857228136E+05,      /* I = 97 */
(PID.TID 0000.0001)                 3.018056440786431E+05,      /* I = 98 */
(PID.TID 0000.0001)                 3.026789946729719E+05,      /* I = 99 */
(PID.TID 0000.0001)      . . .
(PID.TID 0000.0001)                 3.026789946729719E+05,      /* I =190 */
(PID.TID 0000.0001)                 3.018056440786431E+05,      /* I =191 */
(PID.TID 0000.0001)                 3.013593857228136E+05,      /* I =192 */
(PID.TID 0000.0001)                 1.114203141013064E+05,      /* I =193 */
(PID.TID 0000.0001)                 1.549545757850771E+05,      /* I =194 */
(PID.TID 0000.0001)                 1.829777599966776E+05,      /* I =195 */
(PID.TID 0000.0001)      . . .
(PID.TID 0000.0001)                 1.829777599966776E+05,      /* I =286 */
(PID.TID 0000.0001)                 1.549545757850771E+05,      /* I =287 */
(PID.TID 0000.0001)                 1.114203141013064E+05,      /* I =288 */
(PID.TID 0000.0001)                 3.013593857228136E+05,      /* I =289 */
(PID.TID 0000.0001)                 3.018056440786431E+05,      /* I =290 */
(PID.TID 0000.0001)                 3.026789946729719E+05,      /* I =291 */
(PID.TID 0000.0001)      . . .
(PID.TID 0000.0001)                 3.026789946729719E+05,      /* I =382 */
(PID.TID 0000.0001)                 3.018056440786431E+05,      /* I =383 */
(PID.TID 0000.0001)                 3.013593857228136E+05       /* I =384 */
(PID.TID 0000.0001)     ;
(PID.TID 0000.0001) dyC =  /* dyC(1,:,1,:) ( units: m ) */
(PID.TID 0000.0001)                 1.114203141013064E+05,      /* J =  1 */
(PID.TID 0000.0001)                 1.391343389937106E+05,      /* J =  2 */
(PID.TID 0000.0001)                 1.709574999026266E+05,      /* J =  3 */
(PID.TID 0000.0001)                 1.946503699269892E+05,      /* J =  4 */
(PID.TID 0000.0001)                 2.135964483342134E+05,      /* J =  5 */
(PID.TID 0000.0001)                 2.294195678257306E+05,      /* J =  6 */
(PID.TID 0000.0001)                 2.429464709770498E+05,      /* J =  7 */
(PID.TID 0000.0001)                 2.546408290696998E+05,      /* J =  8 */
(PID.TID 0000.0001)                 2.647791839299727E+05,      /* J =  9 */
(PID.TID 0000.0001)                 2.735321911346108E+05,      /* J = 10 */
(PID.TID 0000.0001)                 2.810065951609633E+05,      /* J = 11 */
(PID.TID 0000.0001)                 2.872689479506990E+05,      /* J = 12 */
(PID.TID 0000.0001)                 2.923599955312932E+05,      /* J = 13 */
(PID.TID 0000.0001)                 2.963038832565530E+05,      /* J = 14 */
(PID.TID 0000.0001)                 2.991142470004740E+05,      /* J = 15 */
(PID.TID 0000.0001)                 3.007982711627968E+05       /* J = 16 */
(PID.TID 0000.0001)     ;
(PID.TID 0000.0001) dxV =  /* dxV(:,1,:,1) ( units: m ) */
(PID.TID 0000.0001)                 8.015229982413632E+04,      /* I =  1 */
(PID.TID 0000.0001)                 1.333130744933864E+05,      /* I =  2 */
(PID.TID 0000.0001)                 1.691744868129062E+05,      /* I =  3 */
(PID.TID 0000.0001)      . . .
(PID.TID 0000.0001)                 1.937548202849060E+05,      /* I = 94 */
(PID.TID 0000.0001)                 1.691744868129062E+05,      /* I = 95 */
(PID.TID 0000.0001)                 1.333130744933864E+05,      /* I = 96 */
(PID.TID 0000.0001)                 3.013686170436881E+05,      /* I = 97 */
(PID.TID 0000.0001)                 3.015922136961168E+05,      /* I = 98 */
(PID.TID 0000.0001)                 3.022533948177109E+05,      /* I = 99 */
(PID.TID 0000.0001)      . . .
(PID.TID 0000.0001)                 3.033238888442880E+05,      /* I =190 */
(PID.TID 0000.0001)                 3.022533948177109E+05,      /* I =191 */
(PID.TID 0000.0001)                 3.015922136961168E+05,      /* I =192 */
(PID.TID 0000.0001)                 8.015229982413632E+04,      /* I =193 */
(PID.TID 0000.0001)                 1.333130744933864E+05,      /* I =194 */
(PID.TID 0000.0001)                 1.691744868129062E+05,      /* I =195 */
(PID.TID 0000.0001)      . . .
(PID.TID 0000.0001)                 1.937548202849060E+05,      /* I =286 */
(PID.TID 0000.0001)                 1.691744868129062E+05,      /* I =287 */
(PID.TID 0000.0001)                 1.333130744933864E+05,      /* I =288 */
(PID.TID 0000.0001)                 3.013686170436881E+05,      /* I =289 */
(PID.TID 0000.0001)                 3.015922136961168E+05,      /* I =290 */
(PID.TID 0000.0001)                 3.022533948177109E+05,      /* I =291 */
(PID.TID 0000.0001)      . . .
(PID.TID 0000.0001)                 3.033238888442880E+05,      /* I =382 */
(PID.TID 0000.0001)                 3.022533948177109E+05,      /* I =383 */
(PID.TID 0000.0001)                 3.015922136961168E+05       /* I =384 */
(PID.TID 0000.0001)     ;
(PID.TID 0000.0001) dxV =  /* dxV(1,:,1,:) ( units: m ) */
(PID.TID 0000.0001)                 8.015229982413632E+04,      /* J =  1 */
(PID.TID 0000.0001)                 1.362652340208229E+05,      /* J =  2 */
(PID.TID 0000.0001)                 1.701080315742101E+05,      /* J =  3 */
(PID.TID 0000.0001)                 1.942331448101592E+05,      /* J =  4 */
(PID.TID 0000.0001)                 2.133486626971531E+05,      /* J =  5 */
(PID.TID 0000.0001)                 2.292584591272880E+05,      /* J =  6 */
(PID.TID 0000.0001)                 2.428369969078989E+05,      /* J =  7 */
(PID.TID 0000.0001)                 2.545652950875683E+05,      /* J =  8 */
(PID.TID 0000.0001)                 2.647274964828301E+05,      /* J =  9 */
(PID.TID 0000.0001)                 2.734980225206389E+05,      /* J = 10 */
(PID.TID 0000.0001)                 2.809856491525217E+05,      /* J = 11 */
(PID.TID 0000.0001)                 2.872580915202295E+05,      /* J = 12 */
(PID.TID 0000.0001)                 2.923567890694162E+05,      /* J = 13 */
(PID.TID 0000.0001)                 2.963063101754721E+05,      /* J = 14 */
(PID.TID 0000.0001)                 2.991205495886625E+05,      /* J = 15 */
(PID.TID 0000.0001)                 3.008068453676764E+05       /* J = 16 */
(PID.TID 0000.0001)     ;
(PID.TID 0000.0001) dyU =  /* dyU(:,1,:,1) ( units: m ) */
(PID.TID 0000.0001)                 8.015229982413632E+04,      /* I =  1 */
(PID.TID 0000.0001)                 1.362652340208229E+05,      /* I =  2 */
(PID.TID 0000.0001)                 1.701080315742101E+05,      /* I =  3 */
(PID.TID 0000.0001)      . . .
(PID.TID 0000.0001)                 1.942331448101592E+05,      /* I = 94 */
(PID.TID 0000.0001)                 1.701080315742101E+05,      /* I = 95 */
(PID.TID 0000.0001)                 1.362652340208229E+05,      /* I = 96 */
(PID.TID 0000.0001)                 3.013031486919771E+05,      /* I = 97 */
(PID.TID 0000.0001)                 3.015274890091515E+05,      /* I = 98 */
(PID.TID 0000.0001)                 3.021908563699420E+05,      /* I = 99 */
(PID.TID 0000.0001)      . . .
(PID.TID 0000.0001)                 3.032648502024415E+05,      /* I =190 */
(PID.TID 0000.0001)                 3.021908563699420E+05,      /* I =191 */
(PID.TID 0000.0001)                 3.015274890091515E+05,      /* I =192 */
(PID.TID 0000.0001)                 8.015229982413632E+04,      /* I =193 */
(PID.TID 0000.0001)                 1.362652340208229E+05,      /* I =194 */
(PID.TID 0000.0001)                 1.701080315742101E+05,      /* I =195 */
(PID.TID 0000.0001)      . . .
(PID.TID 0000.0001)                 1.942331448101592E+05,      /* I =286 */
(PID.TID 0000.0001)                 1.701080315742101E+05,      /* I =287 */
(PID.TID 0000.0001)                 1.362652340208229E+05,      /* I =288 */
(PID.TID 0000.0001)                 3.013031486919771E+05,      /* I =289 */
(PID.TID 0000.0001)                 3.015274890091515E+05,      /* I =290 */
(PID.TID 0000.0001)                 3.021908563699420E+05,      /* I =291 */
(PID.TID 0000.0001)      . . .
(PID.TID 0000.0001)                 3.032648502024415E+05,      /* I =382 */
(PID.TID 0000.0001)                 3.021908563699420E+05,      /* I =383 */
(PID.TID 0000.0001)                 3.015274890091515E+05       /* I =384 */
(PID.TID 0000.0001)     ;
(PID.TID 0000.0001) dyU =  /* dyU(1,:,1,:) ( units: m ) */
(PID.TID 0000.0001)                 8.015229982413632E+04,      /* J =  1 */
(PID.TID 0000.0001)                 1.333130744933864E+05,      /* J =  2 */
(PID.TID 0000.0001)                 1.691744868129062E+05,      /* J =  3 */
(PID.TID 0000.0001)                 1.937548202849060E+05,      /* J =  4 */
(PID.TID 0000.0001)                 2.130490056267208E+05,      /* J =  5 */
(PID.TID 0000.0001)                 2.290479919481738E+05,      /* J =  6 */
(PID.TID 0000.0001)                 2.426774358027003E+05,      /* J =  7 */
(PID.TID 0000.0001)                 2.544372984215561E+05,      /* J =  8 */
(PID.TID 0000.0001)                 2.646201463834826E+05,      /* J =  9 */
(PID.TID 0000.0001)                 2.734046499619031E+05,      /* J = 10 */
(PID.TID 0000.0001)                 2.809019351693761E+05,      /* J = 11 */
(PID.TID 0000.0001)                 2.871811105274442E+05,      /* J = 12 */
(PID.TID 0000.0001)                 2.922844849381675E+05,      /* J = 13 */
(PID.TID 0000.0001)                 2.962371870847826E+05,      /* J = 14 */
(PID.TID 0000.0001)                 2.990534755671296E+05,      /* J = 15 */
(PID.TID 0000.0001)                 3.007409169495504E+05       /* J = 16 */
(PID.TID 0000.0001)     ;
(PID.TID 0000.0001) rA  =  /* rA (:,1,:,1) ( units: m^2 ) */
(PID.TID 0000.0001)                 1.401900702255611E+10,      /* I =  1 */
(PID.TID 0000.0001)                 2.459906945574446E+10,      /* I =  2 */
(PID.TID 0000.0001)                 3.378518544307869E+10,      /* I =  3 */
(PID.TID 0000.0001)      . . .
(PID.TID 0000.0001)                 3.378518544304265E+10,      /* I = 94 */
(PID.TID 0000.0001)                 2.459906945574446E+10,      /* I = 95 */
(PID.TID 0000.0001)                 1.401900702259215E+10,      /* I = 96 */
(PID.TID 0000.0001)                 9.076111290422060E+10,      /* I = 97 */
(PID.TID 0000.0001)                 9.103111035233499E+10,      /* I = 98 */
(PID.TID 0000.0001)                 9.156064070993231E+10,      /* I = 99 */
(PID.TID 0000.0001)      . . .
(PID.TID 0000.0001)                 9.156064070993231E+10,      /* I =190 */
(PID.TID 0000.0001)                 9.103111035233499E+10,      /* I =191 */
(PID.TID 0000.0001)                 9.076111290418457E+10,      /* I =192 */
(PID.TID 0000.0001)                 1.401900702255611E+10,      /* I =193 */
(PID.TID 0000.0001)                 2.459906945574446E+10,      /* I =194 */
(PID.TID 0000.0001)                 3.378518544307869E+10,      /* I =195 */
(PID.TID 0000.0001)      . . .
(PID.TID 0000.0001)                 3.378518544304265E+10,      /* I =286 */
(PID.TID 0000.0001)                 2.459906945574446E+10,      /* I =287 */
(PID.TID 0000.0001)                 1.401900702259215E+10,      /* I =288 */
(PID.TID 0000.0001)                 9.076111290422060E+10,      /* I =289 */
(PID.TID 0000.0001)                 9.103111035233499E+10,      /* I =290 */
(PID.TID 0000.0001)                 9.156064070993231E+10,      /* I =291 */
(PID.TID 0000.0001)      . . .
(PID.TID 0000.0001)                 9.156064070993231E+10,      /* I =382 */
(PID.TID 0000.0001)                 9.103111035233499E+10,      /* I =383 */
(PID.TID 0000.0001)                 9.076111290418457E+10       /* I =384 */
(PID.TID 0000.0001)     ;
(PID.TID 0000.0001) rA  =  /* rA (1,:,1,:) ( units: m^2 ) */
(PID.TID 0000.0001)                 1.401900702255611E+10,      /* J =  1 */
(PID.TID 0000.0001)                 2.459906945574446E+10,      /* J =  2 */
(PID.TID 0000.0001)                 3.378518544307869E+10,      /* J =  3 */
(PID.TID 0000.0001)                 4.192037169898667E+10,      /* J =  4 */
(PID.TID 0000.0001)                 4.925938996118163E+10,      /* J =  5 */
(PID.TID 0000.0001)                 5.594154126607553E+10,      /* J =  6 */
(PID.TID 0000.0001)                 6.203683527776127E+10,      /* J =  7 */
(PID.TID 0000.0001)                 6.757541173817516E+10,      /* J =  8 */
(PID.TID 0000.0001)                 7.256353271748119E+10,      /* J =  9 */
(PID.TID 0000.0001)                 7.699293007098555E+10,      /* J = 10 */
(PID.TID 0000.0001)                 8.084683449728902E+10,      /* J = 11 */
(PID.TID 0000.0001)                 8.410423102799828E+10,      /* J = 12 */
(PID.TID 0000.0001)                 8.674306976737517E+10,      /* J = 13 */
(PID.TID 0000.0001)                 8.874277443041928E+10,      /* J = 14 */
(PID.TID 0000.0001)                 9.008620045350865E+10,      /* J = 15 */
(PID.TID 0000.0001)                 9.076111290418457E+10       /* J = 16 */
(PID.TID 0000.0001)     ;
(PID.TID 0000.0001) rAw =  /* rAw(:,1,:,1) ( units: m^2 ) */
(PID.TID 0000.0001)                 1.216690346714270E+10,      /* I =  1 */
(PID.TID 0000.0001)                 1.974052138506315E+10,      /* I =  2 */
(PID.TID 0000.0001)                 2.943712825252015E+10,      /* I =  3 */
(PID.TID 0000.0001)      . . .
(PID.TID 0000.0001)                 3.801790263325260E+10,      /* I = 94 */
(PID.TID 0000.0001)                 2.943712825251114E+10,      /* I = 95 */
(PID.TID 0000.0001)                 1.974052138509018E+10,      /* I = 96 */
(PID.TID 0000.0001)                 9.071447638299399E+10,      /* I = 97 */
(PID.TID 0000.0001)                 9.085012105610597E+10,      /* I = 98 */
(PID.TID 0000.0001)                 9.125179254955583E+10,      /* I = 99 */
(PID.TID 0000.0001)      . . .
(PID.TID 0000.0001)                 9.190392048045309E+10,      /* I =190 */
(PID.TID 0000.0001)                 9.125179254954683E+10,      /* I =191 */
(PID.TID 0000.0001)                 9.085012105606993E+10,      /* I =192 */
(PID.TID 0000.0001)                 1.216690346714270E+10,      /* I =193 */
(PID.TID 0000.0001)                 1.974052138506315E+10,      /* I =194 */
(PID.TID 0000.0001)                 2.943712825252015E+10,      /* I =195 */
(PID.TID 0000.0001)      . . .
(PID.TID 0000.0001)                 3.801790263325260E+10,      /* I =286 */
(PID.TID 0000.0001)                 2.943712825251114E+10,      /* I =287 */
(PID.TID 0000.0001)                 1.974052138509018E+10,      /* I =288 */
(PID.TID 0000.0001)                 9.071447638299399E+10,      /* I =289 */
(PID.TID 0000.0001)                 9.085012105610597E+10,      /* I =290 */
(PID.TID 0000.0001)                 9.125179254955583E+10,      /* I =291 */
(PID.TID 0000.0001)      . . .
(PID.TID 0000.0001)                 9.190392048045309E+10,      /* I =382 */
(PID.TID 0000.0001)                 9.125179254954683E+10,      /* I =383 */
(PID.TID 0000.0001)                 9.085012105606993E+10       /* I =384 */
(PID.TID 0000.0001)     ;
(PID.TID 0000.0001) rAw =  /* rAw(1,:,1,:) ( units: m^2 ) */
(PID.TID 0000.0001)                 1.216690346714270E+10,      /* J =  1 */
(PID.TID 0000.0001)                 2.390126200743558E+10,      /* J =  2 */
(PID.TID 0000.0001)                 3.341968103208270E+10,      /* J =  3 */
(PID.TID 0000.0001)                 4.168532893152940E+10,      /* J =  4 */
(PID.TID 0000.0001)                 4.909074590409593E+10,      /* J =  5 */
(PID.TID 0000.0001)                 5.581203765722643E+10,      /* J =  6 */
(PID.TID 0000.0001)                 6.193257577506788E+10,      /* J =  7 */
(PID.TID 0000.0001)                 6.748840226738273E+10,      /* J =  8 */
(PID.TID 0000.0001)                 7.248875782324815E+10,      /* J =  9 */
(PID.TID 0000.0001)                 7.692702995909871E+10,      /* J = 10 */
(PID.TID 0000.0001)                 8.078743937057304E+10,      /* J = 11 */
(PID.TID 0000.0001)                 8.404959656062837E+10,      /* J = 12 */
(PID.TID 0000.0001)                 8.669186205742538E+10,      /* J = 13 */
(PID.TID 0000.0001)                 8.869393350723613E+10,      /* J = 14 */
(PID.TID 0000.0001)                 9.003884657168852E+10,      /* J = 15 */
(PID.TID 0000.0001)                 9.071447638299399E+10       /* J = 16 */
(PID.TID 0000.0001)     ;
(PID.TID 0000.0001) rAs =  /* rAs(:,1,:,1) ( units: m^2 ) */
(PID.TID 0000.0001)                 1.216690346714270E+10,      /* I =  1 */
(PID.TID 0000.0001)                 2.390126200743558E+10,      /* I =  2 */
(PID.TID 0000.0001)                 3.341968103208270E+10,      /* I =  3 */
(PID.TID 0000.0001)      . . .
(PID.TID 0000.0001)                 3.341968103208270E+10,      /* I = 94 */
(PID.TID 0000.0001)                 2.390126200743558E+10,      /* I = 95 */
(PID.TID 0000.0001)                 1.216690346714270E+10,      /* I = 96 */
(PID.TID 0000.0001)                 9.083293515008307E+10,      /* I = 97 */
(PID.TID 0000.0001)                 9.110170898494536E+10,      /* I = 98 */
(PID.TID 0000.0001)                 9.162886297688426E+10,      /* I = 99 */
(PID.TID 0000.0001)      . . .
(PID.TID 0000.0001)                 9.162886297688426E+10,      /* I =190 */
(PID.TID 0000.0001)                 9.110170898494536E+10,      /* I =191 */
(PID.TID 0000.0001)                 9.083293515008307E+10,      /* I =192 */
(PID.TID 0000.0001)                 1.216690346714270E+10,      /* I =193 */
(PID.TID 0000.0001)                 2.390126200743558E+10,      /* I =194 */
(PID.TID 0000.0001)                 3.341968103208270E+10,      /* I =195 */
(PID.TID 0000.0001)      . . .
(PID.TID 0000.0001)                 3.341968103208270E+10,      /* I =286 */
(PID.TID 0000.0001)                 2.390126200743558E+10,      /* I =287 */
(PID.TID 0000.0001)                 1.216690346714270E+10,      /* I =288 */
(PID.TID 0000.0001)                 9.083293515008307E+10,      /* I =289 */
(PID.TID 0000.0001)                 9.110170898494536E+10,      /* I =290 */
(PID.TID 0000.0001)                 9.162886297688426E+10,      /* I =291 */
(PID.TID 0000.0001)      . . .
(PID.TID 0000.0001)                 9.162886297688426E+10,      /* I =382 */
(PID.TID 0000.0001)                 9.110170898494536E+10,      /* I =383 */
(PID.TID 0000.0001)                 9.083293515008307E+10       /* I =384 */
(PID.TID 0000.0001)     ;
(PID.TID 0000.0001) rAs =  /* rAs(1,:,1,:) ( units: m^2 ) */
(PID.TID 0000.0001)                 1.216690346714270E+10,      /* J =  1 */
(PID.TID 0000.0001)                 1.974052138506315E+10,      /* J =  2 */
(PID.TID 0000.0001)                 2.943712825252015E+10,      /* J =  3 */
(PID.TID 0000.0001)                 3.801790263324359E+10,      /* J =  4 */
(PID.TID 0000.0001)                 4.571243814189866E+10,      /* J =  5 */
(PID.TID 0000.0001)                 5.269930713599979E+10,      /* J =  6 */
(PID.TID 0000.0001)                 5.907428494299063E+10,      /* J =  7 */
(PID.TID 0000.0001)                 6.488320895111514E+10,      /* J =  8 */
(PID.TID 0000.0001)                 7.014205907741882E+10,      /* J =  9 */
(PID.TID 0000.0001)                 7.484854821847499E+10,      /* J = 10 */
(PID.TID 0000.0001)                 7.898934631431560E+10,      /* J = 11 */
(PID.TID 0000.0001)                 8.254500894894537E+10,      /* J = 12 */
(PID.TID 0000.0001)                 8.549360686473492E+10,      /* J = 13 */
(PID.TID 0000.0001)                 8.781353403175085E+10,      /* J = 14 */
(PID.TID 0000.0001)                 8.948571540392021E+10,      /* J = 15 */
(PID.TID 0000.0001)                 9.049530583086168E+10       /* J = 16 */
(PID.TID 0000.0001)     ;
(PID.TID 0000.0001) globalArea = /* Integrated horizontal Area (m^2) */
(PID.TID 0000.0001)                 3.638867375081599E+14
(PID.TID 0000.0001)     ;
(PID.TID 0000.0001) // =======================================================
(PID.TID 0000.0001) // End of Model config. summary
(PID.TID 0000.0001) // =======================================================
(PID.TID 0000.0001) 
(PID.TID 0000.0001) == Packages configuration : Check & print summary ==
(PID.TID 0000.0001) 
(PID.TID 0000.0001) GMREDI_CHECK: #define GMREDI
(PID.TID 0000.0001) GM_AdvForm =     /* if FALSE => use SkewFlux Form */
(PID.TID 0000.0001)                   F
(PID.TID 0000.0001)     ;
(PID.TID 0000.0001) GM_InMomAsStress = /* if TRUE => apply as Eddy Stress */
(PID.TID 0000.0001)                   F
(PID.TID 0000.0001)     ;
(PID.TID 0000.0001) GM_AdvSeparate = /* Calc Bolus & Euler Adv. separately */
(PID.TID 0000.0001)                   F
(PID.TID 0000.0001)     ;
(PID.TID 0000.0001) GM_ExtraDiag =   /* Tensor Extra Diag (line 1&2) non 0 */
(PID.TID 0000.0001)                   F
(PID.TID 0000.0001)     ;
(PID.TID 0000.0001) GM_isopycK =    /* Background Isopyc. Diffusivity [m^2/s] */
(PID.TID 0000.0001)                 1.000000000000000E+03
(PID.TID 0000.0001)     ;
(PID.TID 0000.0001) GM_skewflx*K =  /* Background GM_SkewFlx Diffusivity [m^2/s] */
(PID.TID 0000.0001)                 1.000000000000000E+03
(PID.TID 0000.0001)     ;
(PID.TID 0000.0001) GM_advec*K =    /* Backg. GM-Advec(=Bolus) Diffusivity [m^2/s]*/
(PID.TID 0000.0001)                 0.000000000000000E+00
(PID.TID 0000.0001)     ;
(PID.TID 0000.0001) GM_Kmin_horiz = /* Minimum Horizontal Diffusivity [m^2/s] */
(PID.TID 0000.0001)                 5.000000000000000E+01
(PID.TID 0000.0001)     ;
(PID.TID 0000.0001) GM_Visbeck_alpha = /* Visbeck alpha coeff. [-] */
(PID.TID 0000.0001)                 0.000000000000000E+00
(PID.TID 0000.0001)     ;
(PID.TID 0000.0001) GM_Small_Number =  /* epsilon used in slope calc */
(PID.TID 0000.0001)                 9.999999999999999E-21
(PID.TID 0000.0001)     ;
(PID.TID 0000.0001) GM_slopeSqCutoff = /* Slope^2 cut-off value */
(PID.TID 0000.0001)                 1.000000000000000E+08
(PID.TID 0000.0001)     ;
(PID.TID 0000.0001) GM_taper_scheme =  /* Type of Tapering/Clipping scheme */
(PID.TID 0000.0001)               'dm95                                    '
(PID.TID 0000.0001)     ;
(PID.TID 0000.0001) GM_maxSlope =  /* Maximum Slope (Tapering/Clipping) */
(PID.TID 0000.0001)                 1.000000000000000E-02
(PID.TID 0000.0001)     ;
(PID.TID 0000.0001) GM_facTrL2dz = /* Minimum Trans.Layer Thick. (factor of dz) */
(PID.TID 0000.0001)                 1.000000000000000E+00
(PID.TID 0000.0001)     ;
(PID.TID 0000.0001) GM_facTrL2ML = /* Max.Trans.Layer Thick. (factor of MxL Depth)*/
(PID.TID 0000.0001)                 5.000000000000000E+00
(PID.TID 0000.0001)     ;
(PID.TID 0000.0001) GM_maxTransLay = /* Maximum Transition Layer Thickness [m] */
(PID.TID 0000.0001)                 5.000000000000000E+02
(PID.TID 0000.0001)     ;
(PID.TID 0000.0001) GM_UseBVP = /* if TRUE => use bvp a la Ferrari et al. (2010) */
(PID.TID 0000.0001)                   F
(PID.TID 0000.0001)     ;
(PID.TID 0000.0001) GM_BVP_ModeNumber = /* Vertical mode number for BVP wave speed */
(PID.TID 0000.0001)                       1
(PID.TID 0000.0001)     ;
(PID.TID 0000.0001) GM_BVP_cMin = /* Minimum wave speed for BVP [m/s] */
(PID.TID 0000.0001)                 1.000000000000000E-01
(PID.TID 0000.0001)     ;
(PID.TID 0000.0001) GM_useSubMeso = /* if TRUE => use Sub-Meso param. (B.Fox-Kemper) */
(PID.TID 0000.0001)                   F
(PID.TID 0000.0001)     ;
(PID.TID 0000.0001) subMeso_Ceff = /* efficiency coeff. of Mixed-Layer Eddies [-] */
(PID.TID 0000.0001)                 7.000000000000001E-02
(PID.TID 0000.0001)     ;
(PID.TID 0000.0001) subMeso_invTau = /* inverse of Sub-Meso mixing time-scale [/s] */
(PID.TID 0000.0001)                 2.000000000000000E-06
(PID.TID 0000.0001)     ;
(PID.TID 0000.0001) subMeso_LfMin = /* minimum length-scale "Lf" [m] */
(PID.TID 0000.0001)                 1.000000000000000E+03
(PID.TID 0000.0001)     ;
(PID.TID 0000.0001) subMeso_Lmax = /* maximum grid-scale length [m] */
(PID.TID 0000.0001)                 1.100000000000000E+05
(PID.TID 0000.0001)     ;
(PID.TID 0000.0001) CTRL_CHECK: ctrl package
(PID.TID 0000.0001) COST_CHECK: cost package
(PID.TID 0000.0001) GRDCHK_CHECK: grdchk package
(PID.TID 0000.0001) GAD_CHECK: #define ALLOW_GENERIC_ADVDIFF
(PID.TID 0000.0001) // =======================================================
(PID.TID 0000.0001) // CONFIG_CHECK : Normal End
(PID.TID 0000.0001) // =======================================================
(PID.TID 0000.0001) 
(PID.TID 0000.0001) INI_CG2D: CG2D normalisation factor =  1.9156564154949553E-04
(PID.TID 0000.0001) INI_CG2D: cg2dTolerance = 5.809016360175296E-07 (Area=3.6388673751E+14)
(PID.TID 0000.0001) 
(PID.TID 0000.0001)  nRecords = 123 ; filePrec =  64 ; fileIter =     72000
(PID.TID 0000.0001)     nDims =   2 , dims:
(PID.TID 0000.0001)    1: 192   1 192
(PID.TID 0000.0001)    2:  32   1  32
(PID.TID 0000.0001)     nFlds =  11 , nFl3D =   8 , fields:
(PID.TID 0000.0001)  >Uvel    < >GuNm1   < >Vvel    < >GvNm1   < >Theta   < >GtNm1   < >Salt    < >GsNm1   < >EtaN    < >dEtaHdt < >EtaH    <
(PID.TID 0000.0001)   nTimRec =   0 , timeList:
(PID.TID 0000.0001) READ_MFLDS_3D_RL: read field: "Uvel    ", #   1 in fldList, rec=   1
(PID.TID 0000.0001) READ_MFLDS_3D_RL: read field: "Vvel    ", #   3 in fldList, rec=   3
(PID.TID 0000.0001) READ_MFLDS_3D_RL: read field: "Theta   ", #   5 in fldList, rec=   5
(PID.TID 0000.0001) READ_MFLDS_3D_RL: read field: "Salt    ", #   7 in fldList, rec=   7
(PID.TID 0000.0001) READ_MFLDS_3D_RL: read field: "GuNm1   ", #   2 in fldList, rec=   2
(PID.TID 0000.0001) READ_MFLDS_3D_RL: field: "GuNm2   " missing in file: pickup.0000072000
(PID.TID 0000.0001) READ_MFLDS_3D_RL: read field: "GvNm1   ", #   4 in fldList, rec=   4
(PID.TID 0000.0001) READ_MFLDS_3D_RL: field: "GvNm2   " missing in file: pickup.0000072000
(PID.TID 0000.0001) READ_MFLDS_3D_RL: read field: "EtaN    ", #   9 in fldList, rec= 121
(PID.TID 0000.0001) READ_MFLDS_3D_RL: read field: "dEtaHdt ", #  10 in fldList, rec= 122
(PID.TID 0000.0001) READ_MFLDS_3D_RL: read field: "EtaH    ", #  11 in fldList, rec= 123
(PID.TID 0000.0001) // =======================================================
(PID.TID 0000.0001) // Begin MONITOR dynamic field statistics
(PID.TID 0000.0001) // =======================================================
(PID.TID 0000.0001) %MON time_tsnumber                =                 72000
(PID.TID 0000.0001) %MON time_secondsf                =   6.2208000000000E+09
(PID.TID 0000.0001) %MON dynstat_eta_max              =   9.2249308874653E-01
(PID.TID 0000.0001) %MON dynstat_eta_min              =  -1.6181619580030E+00
(PID.TID 0000.0001) %MON dynstat_eta_mean             =   1.4386344596806E-14
(PID.TID 0000.0001) %MON dynstat_eta_sd               =   5.9907976973986E-01
(PID.TID 0000.0001) %MON dynstat_eta_del2             =   7.8581345364806E-04
(PID.TID 0000.0001) %MON dynstat_uvel_max             =   1.8639442347386E-01
(PID.TID 0000.0001) %MON dynstat_uvel_min             =  -2.8803502100767E-01
(PID.TID 0000.0001) %MON dynstat_uvel_mean            =  -4.8914430325890E-04
(PID.TID 0000.0001) %MON dynstat_uvel_sd              =   1.2021379389426E-02
(PID.TID 0000.0001) %MON dynstat_uvel_del2            =   5.1214215649781E-05
(PID.TID 0000.0001) %MON dynstat_vvel_max             =   1.7346247050018E-01
(PID.TID 0000.0001) %MON dynstat_vvel_min             =  -2.2519444280963E-01
(PID.TID 0000.0001) %MON dynstat_vvel_mean            =  -4.0398186384005E-04
(PID.TID 0000.0001) %MON dynstat_vvel_sd              =   1.2638380334010E-02
(PID.TID 0000.0001) %MON dynstat_vvel_del2            =   5.0639130168720E-05
(PID.TID 0000.0001) %MON dynstat_wvel_max             =   1.0315419012187E-04
(PID.TID 0000.0001) %MON dynstat_wvel_min             =  -2.0412353696425E-04
(PID.TID 0000.0001) %MON dynstat_wvel_mean            =  -7.5426404424407E-23
(PID.TID 0000.0001) %MON dynstat_wvel_sd              =   3.8379860233396E-06
(PID.TID 0000.0001) %MON dynstat_wvel_del2            =   2.6456681169339E-08
(PID.TID 0000.0001) %MON dynstat_theta_max            =   3.0925958904704E+01
(PID.TID 0000.0001) %MON dynstat_theta_min            =  -2.0000000000000E+00
(PID.TID 0000.0001) %MON dynstat_theta_mean           =   3.9091312053343E+00
(PID.TID 0000.0001) %MON dynstat_theta_sd             =   4.5711433204032E+00
(PID.TID 0000.0001) %MON dynstat_theta_del2           =   2.6589242567180E-03
(PID.TID 0000.0001) %MON dynstat_salt_max             =   4.1386265990462E+01
(PID.TID 0000.0001) %MON dynstat_salt_min             =   1.8383410676806E+01
(PID.TID 0000.0001) %MON dynstat_salt_mean            =   3.4772068623474E+01
(PID.TID 0000.0001) %MON dynstat_salt_sd              =   5.3145226117181E-01
(PID.TID 0000.0001) %MON dynstat_salt_del2            =   8.0693627005697E-04
(PID.TID 0000.0001) %MON forcing_qnet_max             =   4.6211611868841E+02
(PID.TID 0000.0001) %MON forcing_qnet_min             =  -2.0410376912710E+02
(PID.TID 0000.0001) %MON forcing_qnet_mean            =  -1.2329247921290E+01
(PID.TID 0000.0001) %MON forcing_qnet_sd              =   1.1327998988989E+02
(PID.TID 0000.0001) %MON forcing_qnet_del2            =   4.4323506322358E-01
(PID.TID 0000.0001) %MON forcing_qsw_max              =   0.0000000000000E+00
(PID.TID 0000.0001) %MON forcing_qsw_min              =   0.0000000000000E+00
(PID.TID 0000.0001) %MON forcing_qsw_mean             =   0.0000000000000E+00
(PID.TID 0000.0001) %MON forcing_qsw_sd               =   0.0000000000000E+00
(PID.TID 0000.0001) %MON forcing_qsw_del2             =   0.0000000000000E+00
(PID.TID 0000.0001) %MON forcing_empmr_max            =   0.0000000000000E+00
(PID.TID 0000.0001) %MON forcing_empmr_min            =   0.0000000000000E+00
(PID.TID 0000.0001) %MON forcing_empmr_mean           =   0.0000000000000E+00
(PID.TID 0000.0001) %MON forcing_empmr_sd             =   0.0000000000000E+00
(PID.TID 0000.0001) %MON forcing_empmr_del2           =   0.0000000000000E+00
(PID.TID 0000.0001) %MON forcing_fu_max               =   2.4892781143428E-01
(PID.TID 0000.0001) %MON forcing_fu_min               =  -2.5159107438040E-01
(PID.TID 0000.0001) %MON forcing_fu_mean              =  -3.8956966288612E-03
(PID.TID 0000.0001) %MON forcing_fu_sd                =   6.5480383395885E-02
(PID.TID 0000.0001) %MON forcing_fu_del2              =   2.3114393556995E-04
(PID.TID 0000.0001) %MON forcing_fv_max               =   2.9305960402537E-01
(PID.TID 0000.0001) %MON forcing_fv_min               =  -3.3950131228473E-01
(PID.TID 0000.0001) %MON forcing_fv_mean              =  -1.3743384707768E-02
(PID.TID 0000.0001) %MON forcing_fv_sd                =   7.6816469815204E-02
(PID.TID 0000.0001) %MON forcing_fv_del2              =   2.5671701728584E-04
(PID.TID 0000.0001) %MON advcfl_uvel_max              =   8.1692195603793E-02
(PID.TID 0000.0001) %MON advcfl_vvel_max              =   7.5609847114589E-02
(PID.TID 0000.0001) %MON advcfl_wvel_max              =   6.6551975825327E-02
(PID.TID 0000.0001) %MON advcfl_W_hf_max              =   7.3511900279873E-02
(PID.TID 0000.0001) %MON pe_b_mean                    =   4.7811655460464E-04
(PID.TID 0000.0001) %MON ke_max                       =   4.0700637549387E-02
(PID.TID 0000.0001) %MON ke_mean                      =   1.4067882101803E-04
(PID.TID 0000.0001) %MON ke_vol                       =   1.3398024453628E+18
(PID.TID 0000.0001) %MON vort_r_min                   =  -1.1843904755479E-06
(PID.TID 0000.0001) %MON vort_r_max                   =   1.2148454936551E-06
(PID.TID 0000.0001) %MON vort_a_mean                  =  -2.0493733748264E-05
(PID.TID 0000.0001) %MON vort_a_sd                    =   7.5053947910691E-05
(PID.TID 0000.0001) %MON vort_p_mean                  =  -2.4715773639925E-05
(PID.TID 0000.0001) %MON vort_p_sd                    =   1.2777078256013E-04
(PID.TID 0000.0001) %MON surfExpan_theta_mean         =   3.3855955095235E-08
(PID.TID 0000.0001) %MON surfExpan_salt_mean          =   1.3163665490079E-08
(PID.TID 0000.0001) // =======================================================
(PID.TID 0000.0001) // End MONITOR dynamic field statistics
(PID.TID 0000.0001) // =======================================================
 EXTERNAL_FIELDS_LOAD, it=     72000 : Reading new data, i0,i1=   12    1 (prev=   12    0 )
(PID.TID 0000.0001) SOLVE_FOR_PRESSURE: putPmEinXvector =    F
 cg2d: Sum(rhs),rhsMax =  -9.66338120633736E-12  4.27829651258201E+00
(PID.TID 0000.0001)                    cg2d_init_res =    1.97996442300056E-01
(PID.TID 0000.0001)                       cg2d_iters =    62
(PID.TID 0000.0001)                         cg2d_res =    5.28010244415989E-07
(PID.TID 0000.0001) // =======================================================
(PID.TID 0000.0001) // Begin MONITOR dynamic field statistics
(PID.TID 0000.0001) // =======================================================
(PID.TID 0000.0001) %MON time_tsnumber                =                 72001
(PID.TID 0000.0001) %MON time_secondsf                =   6.2208864000000E+09
(PID.TID 0000.0001) %MON dynstat_eta_max              =   9.1995572046866E-01
(PID.TID 0000.0001) %MON dynstat_eta_min              =  -1.6208656660430E+00
(PID.TID 0000.0001) %MON dynstat_eta_mean             =   1.4193977047279E-14
(PID.TID 0000.0001) %MON dynstat_eta_sd               =   5.9887315476673E-01
(PID.TID 0000.0001) %MON dynstat_eta_del2             =   7.9094050873445E-04
(PID.TID 0000.0001) %MON dynstat_uvel_max             =   1.8679494007781E-01
(PID.TID 0000.0001) %MON dynstat_uvel_min             =  -2.8776754891783E-01
(PID.TID 0000.0001) %MON dynstat_uvel_mean            =  -4.8899237825530E-04
(PID.TID 0000.0001) %MON dynstat_uvel_sd              =   1.2021281622921E-02
(PID.TID 0000.0001) %MON dynstat_uvel_del2            =   5.1199702711979E-05
(PID.TID 0000.0001) %MON dynstat_vvel_max             =   1.7379352572600E-01
(PID.TID 0000.0001) %MON dynstat_vvel_min             =  -2.2518089168121E-01
(PID.TID 0000.0001) %MON dynstat_vvel_mean            =  -4.0402669134000E-04
(PID.TID 0000.0001) %MON dynstat_vvel_sd              =   1.2641361726340E-02
(PID.TID 0000.0001) %MON dynstat_vvel_del2            =   5.0605320446836E-05
(PID.TID 0000.0001) %MON dynstat_wvel_max             =   1.0316903234604E-04
(PID.TID 0000.0001) %MON dynstat_wvel_min             =  -2.0439123329301E-04
(PID.TID 0000.0001) %MON dynstat_wvel_mean            =   2.8552076608107E-10
(PID.TID 0000.0001) %MON dynstat_wvel_sd              =   3.8359890728016E-06
(PID.TID 0000.0001) %MON dynstat_wvel_del2            =   2.6453775023320E-08
(PID.TID 0000.0001) %MON dynstat_theta_max            =   3.0937508069936E+01
(PID.TID 0000.0001) %MON dynstat_theta_min            =  -2.0034956974493E+00
(PID.TID 0000.0001) %MON dynstat_theta_mean           =   3.9091888334654E+00
(PID.TID 0000.0001) %MON dynstat_theta_sd             =   4.5710986834451E+00
(PID.TID 0000.0001) %MON dynstat_theta_del2           =   2.6413792824417E-03
(PID.TID 0000.0001) %MON dynstat_salt_max             =   4.1386683836132E+01
(PID.TID 0000.0001) %MON dynstat_salt_min             =   1.8383743484853E+01
(PID.TID 0000.0001) %MON dynstat_salt_mean            =   3.4772069007215E+01
(PID.TID 0000.0001) %MON dynstat_salt_sd              =   5.3143499606597E-01
(PID.TID 0000.0001) %MON dynstat_salt_del2            =   8.0250482219957E-04
(PID.TID 0000.0001) %MON forcing_qnet_max             =   4.5344826813507E+02
(PID.TID 0000.0001) %MON forcing_qnet_min             =  -2.1502574251756E+02
(PID.TID 0000.0001) %MON forcing_qnet_mean            =  -1.2145822391644E+01
(PID.TID 0000.0001) %MON forcing_qnet_sd              =   1.1565376981455E+02
(PID.TID 0000.0001) %MON forcing_qnet_del2            =   4.1640148928199E-01
(PID.TID 0000.0001) %MON forcing_qsw_max              =   0.0000000000000E+00
(PID.TID 0000.0001) %MON forcing_qsw_min              =   0.0000000000000E+00
(PID.TID 0000.0001) %MON forcing_qsw_mean             =   0.0000000000000E+00
(PID.TID 0000.0001) %MON forcing_qsw_sd               =   0.0000000000000E+00
(PID.TID 0000.0001) %MON forcing_qsw_del2             =   0.0000000000000E+00
(PID.TID 0000.0001) %MON forcing_empmr_max            =   7.6494447208479E-05
(PID.TID 0000.0001) %MON forcing_empmr_min            =  -1.5362614137596E-04
(PID.TID 0000.0001) %MON forcing_empmr_mean           =  -2.7256318706594E-21
(PID.TID 0000.0001) %MON forcing_empmr_sd             =   2.4051723601802E-05
(PID.TID 0000.0001) %MON forcing_empmr_del2           =   1.2276157049243E-07
(PID.TID 0000.0001) %MON forcing_fu_max               =   2.4760613571392E-01
(PID.TID 0000.0001) %MON forcing_fu_min               =  -2.0293190974520E-01
(PID.TID 0000.0001) %MON forcing_fu_mean              =  -4.5478806648627E-03
(PID.TID 0000.0001) %MON forcing_fu_sd                =   6.3937396831278E-02
(PID.TID 0000.0001) %MON forcing_fu_del2              =   2.0509729664672E-04
(PID.TID 0000.0001) %MON forcing_fv_max               =   2.5281098043587E-01
(PID.TID 0000.0001) %MON forcing_fv_min               =  -3.2691992401999E-01
(PID.TID 0000.0001) %MON forcing_fv_mean              =  -1.3684501518858E-02
(PID.TID 0000.0001) %MON forcing_fv_sd                =   7.5153512230531E-02
(PID.TID 0000.0001) %MON forcing_fv_del2              =   2.3373863441584E-04
(PID.TID 0000.0001) %MON advcfl_uvel_max              =   8.1616335445521E-02
(PID.TID 0000.0001) %MON advcfl_vvel_max              =   7.5754149423549E-02
(PID.TID 0000.0001) %MON advcfl_wvel_max              =   6.6639254930249E-02
(PID.TID 0000.0001) %MON advcfl_W_hf_max              =   7.3608320184015E-02
(PID.TID 0000.0001) %MON pe_b_mean                    =   4.7778681886976E-04
(PID.TID 0000.0001) %MON ke_max                       =   4.0599306491268E-02
(PID.TID 0000.0001) %MON ke_mean                      =   1.4071264753199E-04
(PID.TID 0000.0001) %MON ke_vol                       =   1.3398024453628E+18
(PID.TID 0000.0001) %MON vort_r_min                   =  -1.1880200923833E-06
(PID.TID 0000.0001) %MON vort_r_max                   =   1.2156200537852E-06
(PID.TID 0000.0001) %MON vort_a_mean                  =  -2.0493733748264E-05
(PID.TID 0000.0001) %MON vort_a_sd                    =   7.5053947739503E-05
(PID.TID 0000.0001) %MON vort_p_mean                  =  -2.4715773632851E-05
(PID.TID 0000.0001) %MON vort_p_sd                    =   1.2777077923654E-04
(PID.TID 0000.0001) %MON surfExpan_theta_mean         =   3.5393968118170E-08
(PID.TID 0000.0001) %MON surfExpan_salt_mean          =   1.3180581723008E-08
(PID.TID 0000.0001) // =======================================================
(PID.TID 0000.0001) // End MONITOR dynamic field statistics
(PID.TID 0000.0001) // =======================================================
 cg2d: Sum(rhs),rhsMax =  -9.74864633462857E-12  4.27315636347913E+00
(PID.TID 0000.0001)                    cg2d_init_res =    4.63522161208057E-01
(PID.TID 0000.0001)                       cg2d_iters =    63
(PID.TID 0000.0001)                         cg2d_res =    5.78166461063151E-07
(PID.TID 0000.0001) // =======================================================
(PID.TID 0000.0001) // Begin MONITOR dynamic field statistics
(PID.TID 0000.0001) // =======================================================
(PID.TID 0000.0001) %MON time_tsnumber                =                 72002
(PID.TID 0000.0001) %MON time_secondsf                =   6.2209728000000E+09
(PID.TID 0000.0001) %MON dynstat_eta_max              =   9.1814320786876E-01
(PID.TID 0000.0001) %MON dynstat_eta_min              =  -1.6199304514783E+00
(PID.TID 0000.0001) %MON dynstat_eta_mean             =   1.4042831115507E-14
(PID.TID 0000.0001) %MON dynstat_eta_sd               =   5.9860161866418E-01
(PID.TID 0000.0001) %MON dynstat_eta_del2             =   7.9058460248948E-04
(PID.TID 0000.0001) %MON dynstat_uvel_max             =   1.8714169582536E-01
(PID.TID 0000.0001) %MON dynstat_uvel_min             =  -2.8746953900202E-01
(PID.TID 0000.0001) %MON dynstat_uvel_mean            =  -4.8878644677819E-04
(PID.TID 0000.0001) %MON dynstat_uvel_sd              =   1.2021041357381E-02
(PID.TID 0000.0001) %MON dynstat_uvel_del2            =   5.1182499644614E-05
(PID.TID 0000.0001) %MON dynstat_vvel_max             =   1.7408605121537E-01
(PID.TID 0000.0001) %MON dynstat_vvel_min             =  -2.2515710682325E-01
(PID.TID 0000.0001) %MON dynstat_vvel_mean            =  -4.0388164711122E-04
(PID.TID 0000.0001) %MON dynstat_vvel_sd              =   1.2644505605918E-02
(PID.TID 0000.0001) %MON dynstat_vvel_del2            =   5.0571871257949E-05
(PID.TID 0000.0001) %MON dynstat_wvel_max             =   1.0332675610789E-04
(PID.TID 0000.0001) %MON dynstat_wvel_min             =  -2.0476502273766E-04
(PID.TID 0000.0001) %MON dynstat_wvel_mean            =   1.3577705699448E-10
(PID.TID 0000.0001) %MON dynstat_wvel_sd              =   3.8344479860358E-06
(PID.TID 0000.0001) %MON dynstat_wvel_del2            =   2.6461909682385E-08
(PID.TID 0000.0001) %MON dynstat_theta_max            =   3.0948560428879E+01
(PID.TID 0000.0001) %MON dynstat_theta_min            =  -2.0071682266156E+00
(PID.TID 0000.0001) %MON dynstat_theta_mean           =   3.9092463358264E+00
(PID.TID 0000.0001) %MON dynstat_theta_sd             =   4.5710610176880E+00
(PID.TID 0000.0001) %MON dynstat_theta_del2           =   2.6295618638702E-03
(PID.TID 0000.0001) %MON dynstat_salt_max             =   4.1387085217655E+01
(PID.TID 0000.0001) %MON dynstat_salt_min             =   1.8384082956956E+01
(PID.TID 0000.0001) %MON dynstat_salt_mean            =   3.4772069380721E+01
(PID.TID 0000.0001) %MON dynstat_salt_sd              =   5.3141694627186E-01
(PID.TID 0000.0001) %MON dynstat_salt_del2            =   7.9900703649575E-04
(PID.TID 0000.0001) %MON forcing_qnet_max             =   4.5335380716717E+02
(PID.TID 0000.0001) %MON forcing_qnet_min             =  -2.1405338853096E+02
(PID.TID 0000.0001) %MON forcing_qnet_mean            =  -1.2158050760287E+01
(PID.TID 0000.0001) %MON forcing_qnet_sd              =   1.1544877109799E+02
(PID.TID 0000.0001) %MON forcing_qnet_del2            =   4.1737635676168E-01
(PID.TID 0000.0001) %MON forcing_qsw_max              =   0.0000000000000E+00
(PID.TID 0000.0001) %MON forcing_qsw_min              =   0.0000000000000E+00
(PID.TID 0000.0001) %MON forcing_qsw_mean             =   0.0000000000000E+00
(PID.TID 0000.0001) %MON forcing_qsw_sd               =   0.0000000000000E+00
(PID.TID 0000.0001) %MON forcing_qsw_del2             =   0.0000000000000E+00
(PID.TID 0000.0001) %MON forcing_empmr_max            =   7.6494447208479E-05
(PID.TID 0000.0001) %MON forcing_empmr_min            =  -1.5362614137596E-04
(PID.TID 0000.0001) %MON forcing_empmr_mean           =  -2.7256318706594E-21
(PID.TID 0000.0001) %MON forcing_empmr_sd             =   2.4051723601802E-05
(PID.TID 0000.0001) %MON forcing_empmr_del2           =   1.2276157049243E-07
(PID.TID 0000.0001) %MON forcing_fu_max               =   2.4755808644372E-01
(PID.TID 0000.0001) %MON forcing_fu_min               =  -2.0607770640355E-01
(PID.TID 0000.0001) %MON forcing_fu_mean              =  -4.5044017291293E-03
(PID.TID 0000.0001) %MON forcing_fu_sd                =   6.3947166868600E-02
(PID.TID 0000.0001) %MON forcing_fu_del2              =   2.0524826999043E-04
(PID.TID 0000.0001) %MON forcing_fv_max               =   2.5549422200851E-01
(PID.TID 0000.0001) %MON forcing_fv_min               =  -3.2770782795392E-01
(PID.TID 0000.0001) %MON forcing_fv_mean              =  -1.3688427064785E-02
(PID.TID 0000.0001) %MON forcing_fv_sd                =   7.5192943168452E-02
(PID.TID 0000.0001) %MON forcing_fv_del2              =   2.3392164091250E-04
(PID.TID 0000.0001) %MON advcfl_uvel_max              =   8.1531814180540E-02
(PID.TID 0000.0001) %MON advcfl_vvel_max              =   7.5881657163200E-02
(PID.TID 0000.0001) %MON advcfl_wvel_max              =   6.6761124394466E-02
(PID.TID 0000.0001) %MON advcfl_W_hf_max              =   7.3742907175559E-02
(PID.TID 0000.0001) %MON pe_b_mean                    =   4.7735364881491E-04
(PID.TID 0000.0001) %MON ke_max                       =   4.0494507396561E-02
(PID.TID 0000.0001) %MON ke_mean                      =   1.4074672182457E-04
(PID.TID 0000.0001) %MON ke_vol                       =   1.3398024453628E+18
(PID.TID 0000.0001) %MON vort_r_min                   =  -1.1919429439305E-06
(PID.TID 0000.0001) %MON vort_r_max                   =   1.2167735792585E-06
(PID.TID 0000.0001) %MON vort_a_mean                  =  -2.0493733748264E-05
(PID.TID 0000.0001) %MON vort_a_sd                    =   7.5053947591942E-05
(PID.TID 0000.0001) %MON vort_p_mean                  =  -2.4715773740884E-05
(PID.TID 0000.0001) %MON vort_p_sd                    =   1.2777077007372E-04
(PID.TID 0000.0001) %MON surfExpan_theta_mean         =   3.5564240515882E-08
(PID.TID 0000.0001) %MON surfExpan_salt_mean          =   1.3466201319197E-08
(PID.TID 0000.0001) // =======================================================
(PID.TID 0000.0001) // End MONITOR dynamic field statistics
(PID.TID 0000.0001) // =======================================================
 cg2d: Sum(rhs),rhsMax =  -9.74864633462857E-12  4.26761612032118E+00
(PID.TID 0000.0001)                    cg2d_init_res =    4.71802058150776E-01
(PID.TID 0000.0001)                       cg2d_iters =    64
(PID.TID 0000.0001)                         cg2d_res =    4.75277021391455E-07
(PID.TID 0000.0001) // =======================================================
(PID.TID 0000.0001) // Begin MONITOR dynamic field statistics
(PID.TID 0000.0001) // =======================================================
(PID.TID 0000.0001) %MON time_tsnumber                =                 72003
(PID.TID 0000.0001) %MON time_secondsf                =   6.2210592000000E+09
(PID.TID 0000.0001) %MON dynstat_eta_max              =   9.1644190286462E-01
(PID.TID 0000.0001) %MON dynstat_eta_min              =  -1.6189126739594E+00
(PID.TID 0000.0001) %MON dynstat_eta_mean             =   1.4180236508027E-14
(PID.TID 0000.0001) %MON dynstat_eta_sd               =   5.9835385384427E-01
(PID.TID 0000.0001) %MON dynstat_eta_del2             =   7.8960423974203E-04
(PID.TID 0000.0001) %MON dynstat_uvel_max             =   1.8743272132063E-01
(PID.TID 0000.0001) %MON dynstat_uvel_min             =  -2.8714362920816E-01
(PID.TID 0000.0001) %MON dynstat_uvel_mean            =  -4.8852295394230E-04
(PID.TID 0000.0001) %MON dynstat_uvel_sd              =   1.2020617821411E-02
(PID.TID 0000.0001) %MON dynstat_uvel_del2            =   5.1162822442766E-05
(PID.TID 0000.0001) %MON dynstat_vvel_max             =   1.7433166029106E-01
(PID.TID 0000.0001) %MON dynstat_vvel_min             =  -2.2512353855360E-01
(PID.TID 0000.0001) %MON dynstat_vvel_mean            =  -4.0358511692047E-04
(PID.TID 0000.0001) %MON dynstat_vvel_sd              =   1.2647712837150E-02
(PID.TID 0000.0001) %MON dynstat_vvel_del2            =   5.0538410446160E-05
(PID.TID 0000.0001) %MON dynstat_wvel_max             =   1.0357581443196E-04
(PID.TID 0000.0001) %MON dynstat_wvel_min             =  -2.0509255379309E-04
(PID.TID 0000.0001) %MON dynstat_wvel_mean            =   5.9701187615430E-11
(PID.TID 0000.0001) %MON dynstat_wvel_sd              =   3.8329946253949E-06
(PID.TID 0000.0001) %MON dynstat_wvel_del2            =   2.6474929185636E-08
(PID.TID 0000.0001) %MON dynstat_theta_max            =   3.0959137031757E+01
(PID.TID 0000.0001) %MON dynstat_theta_min            =  -2.0110410441880E+00
(PID.TID 0000.0001) %MON dynstat_theta_mean           =   3.9093039671180E+00
(PID.TID 0000.0001) %MON dynstat_theta_sd             =   4.5710307700279E+00
(PID.TID 0000.0001) %MON dynstat_theta_del2           =   2.6157335239820E-03
(PID.TID 0000.0001) %MON dynstat_salt_max             =   4.1387470494656E+01
(PID.TID 0000.0001) %MON dynstat_salt_min             =   1.8384428903787E+01
(PID.TID 0000.0001) %MON dynstat_salt_mean            =   3.4772069767655E+01
(PID.TID 0000.0001) %MON dynstat_salt_sd              =   5.3139836864667E-01
(PID.TID 0000.0001) %MON dynstat_salt_del2            =   7.9538571701326E-04
(PID.TID 0000.0001) %MON forcing_qnet_max             =   4.5325934619927E+02
(PID.TID 0000.0001) %MON forcing_qnet_min             =  -2.1308103454435E+02
(PID.TID 0000.0001) %MON forcing_qnet_mean            =  -1.2170279128930E+01
(PID.TID 0000.0001) %MON forcing_qnet_sd              =   1.1525031618572E+02
(PID.TID 0000.0001) %MON forcing_qnet_del2            =   4.1847271762860E-01
(PID.TID 0000.0001) %MON forcing_qsw_max              =   0.0000000000000E+00
(PID.TID 0000.0001) %MON forcing_qsw_min              =   0.0000000000000E+00
(PID.TID 0000.0001) %MON forcing_qsw_mean             =   0.0000000000000E+00
(PID.TID 0000.0001) %MON forcing_qsw_sd               =   0.0000000000000E+00
(PID.TID 0000.0001) %MON forcing_qsw_del2             =   0.0000000000000E+00
(PID.TID 0000.0001) %MON forcing_empmr_max            =   7.6494447208479E-05
(PID.TID 0000.0001) %MON forcing_empmr_min            =  -1.5362614137596E-04
(PID.TID 0000.0001) %MON forcing_empmr_mean           =  -2.7256318706594E-21
(PID.TID 0000.0001) %MON forcing_empmr_sd             =   2.4051723601802E-05
(PID.TID 0000.0001) %MON forcing_empmr_del2           =   1.2276157049243E-07
(PID.TID 0000.0001) %MON forcing_fu_max               =   2.4751003717351E-01
(PID.TID 0000.0001) %MON forcing_fu_min               =  -2.0922350306190E-01
(PID.TID 0000.0001) %MON forcing_fu_mean              =  -4.4609227933959E-03
(PID.TID 0000.0001) %MON forcing_fu_sd                =   6.3970406478471E-02
(PID.TID 0000.0001) %MON forcing_fu_del2              =   2.0564087338622E-04
(PID.TID 0000.0001) %MON forcing_fv_max               =   2.5817746358114E-01
(PID.TID 0000.0001) %MON forcing_fv_min               =  -3.2849573188785E-01
(PID.TID 0000.0001) %MON forcing_fv_mean              =  -1.3692352610712E-02
(PID.TID 0000.0001) %MON forcing_fv_sd                =   7.5242720295677E-02
(PID.TID 0000.0001) %MON forcing_fv_del2              =   2.3430754301775E-04
(PID.TID 0000.0001) %MON advcfl_uvel_max              =   8.1439379980921E-02
(PID.TID 0000.0001) %MON advcfl_vvel_max              =   7.5988714699101E-02
(PID.TID 0000.0001) %MON advcfl_wvel_max              =   6.6867911878199E-02
(PID.TID 0000.0001) %MON advcfl_W_hf_max              =   7.3860879730617E-02
(PID.TID 0000.0001) %MON pe_b_mean                    =   4.7695857148630E-04
(PID.TID 0000.0001) %MON ke_max                       =   4.0386181698503E-02
(PID.TID 0000.0001) %MON ke_mean                      =   1.4077944557941E-04
(PID.TID 0000.0001) %MON ke_vol                       =   1.3398024453628E+18
(PID.TID 0000.0001) %MON vort_r_min                   =  -1.1961180570728E-06
(PID.TID 0000.0001) %MON vort_r_max                   =   1.2183812024062E-06
(PID.TID 0000.0001) %MON vort_a_mean                  =  -2.0493733748264E-05
(PID.TID 0000.0001) %MON vort_a_sd                    =   7.5053947450534E-05
(PID.TID 0000.0001) %MON vort_p_mean                  =  -2.4715773758046E-05
(PID.TID 0000.0001) %MON vort_p_sd                    =   1.2777076089586E-04
(PID.TID 0000.0001) %MON surfExpan_theta_mean         =   3.7892924550678E-08
(PID.TID 0000.0001) %MON surfExpan_salt_mean          =   1.3727562868132E-08
(PID.TID 0000.0001) // =======================================================
(PID.TID 0000.0001) // End MONITOR dynamic field statistics
(PID.TID 0000.0001) // =======================================================
 cg2d: Sum(rhs),rhsMax =  -9.83391146291979E-12  4.26249552210549E+00
(PID.TID 0000.0001)                    cg2d_init_res =    4.63831080127332E-01
(PID.TID 0000.0001)                       cg2d_iters =    64
(PID.TID 0000.0001)                         cg2d_res =    4.73608332197454E-07
(PID.TID 0000.0001) // =======================================================
(PID.TID 0000.0001) // Begin MONITOR dynamic field statistics
(PID.TID 0000.0001) // =======================================================
(PID.TID 0000.0001) %MON time_tsnumber                =                 72004
(PID.TID 0000.0001) %MON time_secondsf                =   6.2211456000000E+09
(PID.TID 0000.0001) %MON dynstat_eta_max              =   9.1468305536368E-01
(PID.TID 0000.0001) %MON dynstat_eta_min              =  -1.6181716045158E+00
(PID.TID 0000.0001) %MON dynstat_eta_mean             =   1.4400085136058E-14
(PID.TID 0000.0001) %MON dynstat_eta_sd               =   5.9815444573017E-01
(PID.TID 0000.0001) %MON dynstat_eta_del2             =   7.8869536354862E-04
(PID.TID 0000.0001) %MON dynstat_uvel_max             =   1.8766376344799E-01
(PID.TID 0000.0001) %MON dynstat_uvel_min             =  -2.8679213507638E-01
(PID.TID 0000.0001) %MON dynstat_uvel_mean            =  -4.8821334461082E-04
(PID.TID 0000.0001) %MON dynstat_uvel_sd              =   1.2020024526492E-02
(PID.TID 0000.0001) %MON dynstat_uvel_del2            =   5.1140846489480E-05
(PID.TID 0000.0001) %MON dynstat_vvel_max             =   1.7452702231948E-01
(PID.TID 0000.0001) %MON dynstat_vvel_min             =  -2.2508104820079E-01
(PID.TID 0000.0001) %MON dynstat_vvel_mean            =  -4.0317683816742E-04
(PID.TID 0000.0001) %MON dynstat_vvel_sd              =   1.2650880503251E-02
(PID.TID 0000.0001) %MON dynstat_vvel_del2            =   5.0504448086123E-05
(PID.TID 0000.0001) %MON dynstat_wvel_max             =   1.0390580540781E-04
(PID.TID 0000.0001) %MON dynstat_wvel_min             =  -2.0537248340056E-04
(PID.TID 0000.0001) %MON dynstat_wvel_mean            =   5.0230626539700E-11
(PID.TID 0000.0001) %MON dynstat_wvel_sd              =   3.8316867908036E-06
(PID.TID 0000.0001) %MON dynstat_wvel_del2            =   2.6494031937146E-08
(PID.TID 0000.0001) %MON dynstat_theta_max            =   3.0969257879142E+01
(PID.TID 0000.0001) %MON dynstat_theta_min            =  -2.0150817487470E+00
(PID.TID 0000.0001) %MON dynstat_theta_mean           =   3.9093619572787E+00
(PID.TID 0000.0001) %MON dynstat_theta_sd             =   4.5710076279687E+00
(PID.TID 0000.0001) %MON dynstat_theta_del2           =   2.6093625791750E-03
(PID.TID 0000.0001) %MON dynstat_salt_max             =   4.1387839324727E+01
(PID.TID 0000.0001) %MON dynstat_salt_min             =   1.8384781171303E+01
(PID.TID 0000.0001) %MON dynstat_salt_mean            =   3.4772070172754E+01
(PID.TID 0000.0001) %MON dynstat_salt_sd              =   5.3137960854953E-01
(PID.TID 0000.0001) %MON dynstat_salt_del2            =   7.9377078601464E-04
(PID.TID 0000.0001) %MON forcing_qnet_max             =   4.5316488523137E+02
(PID.TID 0000.0001) %MON forcing_qnet_min             =  -2.1210868055774E+02
(PID.TID 0000.0001) %MON forcing_qnet_mean            =  -1.2182507497573E+01
(PID.TID 0000.0001) %MON forcing_qnet_sd              =   1.1505843893838E+02
(PID.TID 0000.0001) %MON forcing_qnet_del2            =   4.1968961974738E-01
(PID.TID 0000.0001) %MON forcing_qsw_max              =   0.0000000000000E+00
(PID.TID 0000.0001) %MON forcing_qsw_min              =   0.0000000000000E+00
(PID.TID 0000.0001) %MON forcing_qsw_mean             =   0.0000000000000E+00
(PID.TID 0000.0001) %MON forcing_qsw_sd               =   0.0000000000000E+00
(PID.TID 0000.0001) %MON forcing_qsw_del2             =   0.0000000000000E+00
(PID.TID 0000.0001) %MON forcing_empmr_max            =   7.6494447208479E-05
(PID.TID 0000.0001) %MON forcing_empmr_min            =  -1.5362614137596E-04
(PID.TID 0000.0001) %MON forcing_empmr_mean           =  -2.7256318706594E-21
(PID.TID 0000.0001) %MON forcing_empmr_sd             =   2.4051723601802E-05
(PID.TID 0000.0001) %MON forcing_empmr_del2           =   1.2276157049243E-07
(PID.TID 0000.0001) %MON forcing_fu_max               =   2.4746198790331E-01
(PID.TID 0000.0001) %MON forcing_fu_min               =  -2.1236929972025E-01
(PID.TID 0000.0001) %MON forcing_fu_mean              =  -4.4174438576624E-03
(PID.TID 0000.0001) %MON forcing_fu_sd                =   6.4007100989353E-02
(PID.TID 0000.0001) %MON forcing_fu_del2              =   2.0627372714610E-04
(PID.TID 0000.0001) %MON forcing_fv_max               =   2.6086070515377E-01
(PID.TID 0000.0001) %MON forcing_fv_min               =  -3.2928363582178E-01
(PID.TID 0000.0001) %MON forcing_fv_mean              =  -1.3696278156640E-02
(PID.TID 0000.0001) %MON forcing_fv_sd                =   7.5302823094907E-02
(PID.TID 0000.0001) %MON forcing_fv_del2              =   2.3489534074143E-04
(PID.TID 0000.0001) %MON advcfl_uvel_max              =   8.1339689577768E-02
(PID.TID 0000.0001) %MON advcfl_vvel_max              =   7.6073870254990E-02
(PID.TID 0000.0001) %MON advcfl_wvel_max              =   6.6959179493615E-02
(PID.TID 0000.0001) %MON advcfl_W_hf_max              =   7.3961724086980E-02
(PID.TID 0000.0001) %MON pe_b_mean                    =   4.7664072090175E-04
(PID.TID 0000.0001) %MON ke_max                       =   4.0274364101855E-02
(PID.TID 0000.0001) %MON ke_mean                      =   1.4080978022294E-04
(PID.TID 0000.0001) %MON ke_vol                       =   1.3398024453628E+18
(PID.TID 0000.0001) %MON vort_r_min                   =  -1.2005198408679E-06
(PID.TID 0000.0001) %MON vort_r_max                   =   1.2203720381012E-06
(PID.TID 0000.0001) %MON vort_a_mean                  =  -2.0493733748264E-05
(PID.TID 0000.0001) %MON vort_a_sd                    =   7.5053947314361E-05
(PID.TID 0000.0001) %MON vort_p_mean                  =  -2.4715773732913E-05
(PID.TID 0000.0001) %MON vort_p_sd                    =   1.2777075308889E-04
(PID.TID 0000.0001) %MON surfExpan_theta_mean         =   4.0289631437439E-08
(PID.TID 0000.0001) %MON surfExpan_salt_mean          =   1.3883930939364E-08
(PID.TID 0000.0001) // =======================================================
(PID.TID 0000.0001) // End MONITOR dynamic field statistics
(PID.TID 0000.0001) // =======================================================
 cg2d: Sum(rhs),rhsMax =  -9.89075488178059E-12  4.25768834061612E+00
(PID.TID 0000.0001)                    cg2d_init_res =    4.63901172224546E-01
(PID.TID 0000.0001)                       cg2d_iters =    64
(PID.TID 0000.0001)                         cg2d_res =    4.71462434091252E-07
(PID.TID 0000.0001) // =======================================================
(PID.TID 0000.0001) // Begin MONITOR dynamic field statistics
(PID.TID 0000.0001) // =======================================================
(PID.TID 0000.0001) %MON time_tsnumber                =                 72005
(PID.TID 0000.0001) %MON time_secondsf                =   6.2212320000000E+09
(PID.TID 0000.0001) %MON dynstat_eta_max              =   9.1288720599607E-01
(PID.TID 0000.0001) %MON dynstat_eta_min              =  -1.6176033835692E+00
(PID.TID 0000.0001) %MON dynstat_eta_mean             =   1.4276420282791E-14
(PID.TID 0000.0001) %MON dynstat_eta_sd               =   5.9799591232960E-01
(PID.TID 0000.0001) %MON dynstat_eta_del2             =   7.8790047442415E-04
(PID.TID 0000.0001) %MON dynstat_uvel_max             =   1.8783123125849E-01
(PID.TID 0000.0001) %MON dynstat_uvel_min             =  -2.8641733768381E-01
(PID.TID 0000.0001) %MON dynstat_uvel_mean            =  -4.8789711270248E-04
(PID.TID 0000.0001) %MON dynstat_uvel_sd              =   1.2019324902192E-02
(PID.TID 0000.0001) %MON dynstat_uvel_del2            =   5.1116678013474E-05
(PID.TID 0000.0001) %MON dynstat_vvel_max             =   1.7466649750708E-01
(PID.TID 0000.0001) %MON dynstat_vvel_min             =  -2.2503034039842E-01
(PID.TID 0000.0001) %MON dynstat_vvel_mean            =  -4.0272111012168E-04
(PID.TID 0000.0001) %MON dynstat_vvel_sd              =   1.2653942261904E-02
(PID.TID 0000.0001) %MON dynstat_vvel_del2            =   5.0470119522008E-05
(PID.TID 0000.0001) %MON dynstat_wvel_max             =   1.0431537678048E-04
(PID.TID 0000.0001) %MON dynstat_wvel_min             =  -2.0560261542048E-04
(PID.TID 0000.0001) %MON dynstat_wvel_mean            =   5.6553579870633E-11
(PID.TID 0000.0001) %MON dynstat_wvel_sd              =   3.8305820180885E-06
(PID.TID 0000.0001) %MON dynstat_wvel_del2            =   2.6519301142429E-08
(PID.TID 0000.0001) %MON dynstat_theta_max            =   3.0978942393173E+01
(PID.TID 0000.0001) %MON dynstat_theta_min            =  -2.0192726385066E+00
(PID.TID 0000.0001) %MON dynstat_theta_mean           =   3.9094201642167E+00
(PID.TID 0000.0001) %MON dynstat_theta_sd             =   4.5709955853156E+00
(PID.TID 0000.0001) %MON dynstat_theta_del2           =   2.5983824828055E-03
(PID.TID 0000.0001) %MON dynstat_salt_max             =   4.1388191326656E+01
(PID.TID 0000.0001) %MON dynstat_salt_min             =   1.8385139601612E+01
(PID.TID 0000.0001) %MON dynstat_salt_mean            =   3.4772070591277E+01
(PID.TID 0000.0001) %MON dynstat_salt_sd              =   5.3136292210422E-01
(PID.TID 0000.0001) %MON dynstat_salt_del2            =   7.9028142686522E-04
(PID.TID 0000.0001) %MON forcing_qnet_max             =   4.5307042426348E+02
(PID.TID 0000.0001) %MON forcing_qnet_min             =  -2.1113632657113E+02
(PID.TID 0000.0001) %MON forcing_qnet_mean            =  -1.2194735866217E+01
(PID.TID 0000.0001) %MON forcing_qnet_sd              =   1.1487317231679E+02
(PID.TID 0000.0001) %MON forcing_qnet_del2            =   4.2102601790904E-01
(PID.TID 0000.0001) %MON forcing_qsw_max              =   0.0000000000000E+00
(PID.TID 0000.0001) %MON forcing_qsw_min              =   0.0000000000000E+00
(PID.TID 0000.0001) %MON forcing_qsw_mean             =   0.0000000000000E+00
(PID.TID 0000.0001) %MON forcing_qsw_sd               =   0.0000000000000E+00
(PID.TID 0000.0001) %MON forcing_qsw_del2             =   0.0000000000000E+00
(PID.TID 0000.0001) %MON forcing_empmr_max            =   7.6494447208479E-05
(PID.TID 0000.0001) %MON forcing_empmr_min            =  -1.5362614137596E-04
(PID.TID 0000.0001) %MON forcing_empmr_mean           =  -2.5159678806086E-21
(PID.TID 0000.0001) %MON forcing_empmr_sd             =   2.4051723601802E-05
(PID.TID 0000.0001) %MON forcing_empmr_del2           =   1.2276157049243E-07
(PID.TID 0000.0001) %MON forcing_fu_max               =   2.4741393863310E-01
(PID.TID 0000.0001) %MON forcing_fu_min               =  -2.1551509637860E-01
(PID.TID 0000.0001) %MON forcing_fu_mean              =  -4.3739649219290E-03
(PID.TID 0000.0001) %MON forcing_fu_sd                =   6.4057227278753E-02
(PID.TID 0000.0001) %MON forcing_fu_del2              =   2.0714462929353E-04
(PID.TID 0000.0001) %MON forcing_fv_max               =   2.6354394672640E-01
(PID.TID 0000.0001) %MON forcing_fv_min               =  -3.3007153975572E-01
(PID.TID 0000.0001) %MON forcing_fv_mean              =  -1.3700203702567E-02
(PID.TID 0000.0001) %MON forcing_fv_sd                =   7.5373226864996E-02
(PID.TID 0000.0001) %MON forcing_fv_del2              =   2.3568352349763E-04
(PID.TID 0000.0001) %MON advcfl_uvel_max              =   8.1233389927821E-02
(PID.TID 0000.0001) %MON advcfl_vvel_max              =   7.6134665524309E-02
(PID.TID 0000.0001) %MON advcfl_wvel_max              =   6.7034211216337E-02
(PID.TID 0000.0001) %MON advcfl_W_hf_max              =   7.4044640014193E-02
(PID.TID 0000.0001) %MON pe_b_mean                    =   4.7638809898680E-04
(PID.TID 0000.0001) %MON ke_max                       =   4.0159132566659E-02
(PID.TID 0000.0001) %MON ke_mean                      =   1.4083768879604E-04
(PID.TID 0000.0001) %MON ke_vol                       =   1.3398024453628E+18
(PID.TID 0000.0001) %MON vort_r_min                   =  -1.2051051204626E-06
(PID.TID 0000.0001) %MON vort_r_max                   =   1.2226680903393E-06
(PID.TID 0000.0001) %MON vort_a_mean                  =  -2.0493733748264E-05
(PID.TID 0000.0001) %MON vort_a_sd                    =   7.5053947177465E-05
(PID.TID 0000.0001) %MON vort_p_mean                  =  -2.4715773700568E-05
(PID.TID 0000.0001) %MON vort_p_sd                    =   1.2777074651225E-04
(PID.TID 0000.0001) %MON surfExpan_theta_mean         =   4.2283534382805E-08
(PID.TID 0000.0001) %MON surfExpan_salt_mean          =   1.3985251582534E-08
(PID.TID 0000.0001) // =======================================================
(PID.TID 0000.0001) // End MONITOR dynamic field statistics
(PID.TID 0000.0001) // =======================================================
 cg2d: Sum(rhs),rhsMax =  -9.66338120633736E-12  4.25317697567183E+00
(PID.TID 0000.0001)                    cg2d_init_res =    4.52583195122276E-01
(PID.TID 0000.0001)                       cg2d_iters =    64
(PID.TID 0000.0001)                         cg2d_res =    4.53543459620522E-07
(PID.TID 0000.0001) // =======================================================
(PID.TID 0000.0001) // Begin MONITOR dynamic field statistics
(PID.TID 0000.0001) // =======================================================
(PID.TID 0000.0001) %MON time_tsnumber                =                 72006
(PID.TID 0000.0001) %MON time_secondsf                =   6.2213184000000E+09
(PID.TID 0000.0001) %MON dynstat_eta_max              =   9.1113770097461E-01
(PID.TID 0000.0001) %MON dynstat_eta_min              =  -1.6171220102869E+00
(PID.TID 0000.0001) %MON dynstat_eta_mean             =   1.4248939204287E-14
(PID.TID 0000.0001) %MON dynstat_eta_sd               =   5.9786328175923E-01
(PID.TID 0000.0001) %MON dynstat_eta_del2             =   7.8718438980802E-04
(PID.TID 0000.0001) %MON dynstat_uvel_max             =   1.8793283282641E-01
(PID.TID 0000.0001) %MON dynstat_uvel_min             =  -2.8602134505211E-01
(PID.TID 0000.0001) %MON dynstat_uvel_mean            =  -4.8758805570242E-04
(PID.TID 0000.0001) %MON dynstat_uvel_sd              =   1.2018571403267E-02
(PID.TID 0000.0001) %MON dynstat_uvel_del2            =   5.1090827291373E-05
(PID.TID 0000.0001) %MON dynstat_vvel_max             =   1.7474772986308E-01
(PID.TID 0000.0001) %MON dynstat_vvel_min             =  -2.2497206525278E-01
(PID.TID 0000.0001) %MON dynstat_vvel_mean            =  -4.0228490656547E-04
(PID.TID 0000.0001) %MON dynstat_vvel_sd              =   1.2656814784458E-02
(PID.TID 0000.0001) %MON dynstat_vvel_del2            =   5.0435641085359E-05
(PID.TID 0000.0001) %MON dynstat_wvel_max             =   1.0478909697710E-04
(PID.TID 0000.0001) %MON dynstat_wvel_min             =  -2.0577788622001E-04
(PID.TID 0000.0001) %MON dynstat_wvel_mean            =   6.7384894654097E-11
(PID.TID 0000.0001) %MON dynstat_wvel_sd              =   3.8297269123981E-06
(PID.TID 0000.0001) %MON dynstat_wvel_del2            =   2.6550891725101E-08
(PID.TID 0000.0001) %MON dynstat_theta_max            =   3.0988209664046E+01
(PID.TID 0000.0001) %MON dynstat_theta_min            =  -2.0235941789313E+00
(PID.TID 0000.0001) %MON dynstat_theta_mean           =   3.9094786555124E+00
(PID.TID 0000.0001) %MON dynstat_theta_sd             =   4.5709907543597E+00
(PID.TID 0000.0001) %MON dynstat_theta_del2           =   2.5897490855897E-03
(PID.TID 0000.0001) %MON dynstat_salt_max             =   4.1388526320316E+01
(PID.TID 0000.0001) %MON dynstat_salt_min             =   1.8385504055082E+01
(PID.TID 0000.0001) %MON dynstat_salt_mean            =   3.4772071024289E+01
(PID.TID 0000.0001) %MON dynstat_salt_sd              =   5.3134605276115E-01
(PID.TID 0000.0001) %MON dynstat_salt_del2            =   7.8735692238518E-04
(PID.TID 0000.0001) %MON forcing_qnet_max             =   4.5297596329558E+02
(PID.TID 0000.0001) %MON forcing_qnet_min             =  -2.1016397258453E+02
(PID.TID 0000.0001) %MON forcing_qnet_mean            =  -1.2206964234860E+01
(PID.TID 0000.0001) %MON forcing_qnet_sd              =   1.1469454835547E+02
(PID.TID 0000.0001) %MON forcing_qnet_del2            =   4.2248077813955E-01
(PID.TID 0000.0001) %MON forcing_qsw_max              =   0.0000000000000E+00
(PID.TID 0000.0001) %MON forcing_qsw_min              =   0.0000000000000E+00
(PID.TID 0000.0001) %MON forcing_qsw_mean             =   0.0000000000000E+00
(PID.TID 0000.0001) %MON forcing_qsw_sd               =   0.0000000000000E+00
(PID.TID 0000.0001) %MON forcing_qsw_del2             =   0.0000000000000E+00
(PID.TID 0000.0001) %MON forcing_empmr_max            =   7.6494447208479E-05
(PID.TID 0000.0001) %MON forcing_empmr_min            =  -1.5362614137596E-04
(PID.TID 0000.0001) %MON forcing_empmr_mean           =  -2.9352958607101E-21
(PID.TID 0000.0001) %MON forcing_empmr_sd             =   2.4051723601802E-05
(PID.TID 0000.0001) %MON forcing_empmr_del2           =   1.2276157049243E-07
(PID.TID 0000.0001) %MON forcing_fu_max               =   2.4736588936290E-01
(PID.TID 0000.0001) %MON forcing_fu_min               =  -2.1866089303695E-01
(PID.TID 0000.0001) %MON forcing_fu_mean              =  -4.3304859861956E-03
(PID.TID 0000.0001) %MON forcing_fu_sd                =   6.4120753845867E-02
(PID.TID 0000.0001) %MON forcing_fu_del2              =   2.0825059330114E-04
(PID.TID 0000.0001) %MON forcing_fv_max               =   2.6622718829904E-01
(PID.TID 0000.0001) %MON forcing_fv_min               =  -3.3085944368965E-01
(PID.TID 0000.0001) %MON forcing_fv_mean              =  -1.3704129248494E-02
(PID.TID 0000.0001) %MON forcing_fv_sd                =   7.5453902771370E-02
(PID.TID 0000.0001) %MON forcing_fv_del2              =   2.3667008926707E-04
(PID.TID 0000.0001) %MON advcfl_uvel_max              =   8.1121078906010E-02
(PID.TID 0000.0001) %MON advcfl_vvel_max              =   7.6170073563869E-02
(PID.TID 0000.0001) %MON advcfl_wvel_max              =   6.7091356110976E-02
(PID.TID 0000.0001) %MON advcfl_W_hf_max              =   7.4107798600928E-02
(PID.TID 0000.0001) %MON pe_b_mean                    =   4.7617680450408E-04
(PID.TID 0000.0001) %MON ke_max                       =   4.0040568407189E-02
(PID.TID 0000.0001) %MON ke_mean                      =   1.4086280229309E-04
(PID.TID 0000.0001) %MON ke_vol                       =   1.3398024453628E+18
(PID.TID 0000.0001) %MON vort_r_min                   =  -1.2098325189844E-06
(PID.TID 0000.0001) %MON vort_r_max                   =   1.2252122675953E-06
(PID.TID 0000.0001) %MON vort_a_mean                  =  -2.0493733748264E-05
(PID.TID 0000.0001) %MON vort_a_sd                    =   7.5053947032502E-05
(PID.TID 0000.0001) %MON vort_p_mean                  =  -2.4715773669125E-05
(PID.TID 0000.0001) %MON vort_p_sd                    =   1.2777074087212E-04
(PID.TID 0000.0001) %MON surfExpan_theta_mean         =   4.3922693334452E-08
(PID.TID 0000.0001) %MON surfExpan_salt_mean          =   1.4050046230298E-08
(PID.TID 0000.0001) // =======================================================
(PID.TID 0000.0001) // End MONITOR dynamic field statistics
(PID.TID 0000.0001) // =======================================================
 cg2d: Sum(rhs),rhsMax =  -9.74864633462857E-12  4.24897733577763E+00
(PID.TID 0000.0001)                    cg2d_init_res =    4.48187183966503E-01
(PID.TID 0000.0001)                       cg2d_iters =    63
(PID.TID 0000.0001)                         cg2d_res =    5.71178088840066E-07
(PID.TID 0000.0001) // =======================================================
(PID.TID 0000.0001) // Begin MONITOR dynamic field statistics
(PID.TID 0000.0001) // =======================================================
(PID.TID 0000.0001) %MON time_tsnumber                =                 72007
(PID.TID 0000.0001) %MON time_secondsf                =   6.2214048000000E+09
(PID.TID 0000.0001) %MON dynstat_eta_max              =   9.0951308999350E-01
(PID.TID 0000.0001) %MON dynstat_eta_min              =  -1.6166805867605E+00
(PID.TID 0000.0001) %MON dynstat_eta_mean             =   1.4207717586531E-14
(PID.TID 0000.0001) %MON dynstat_eta_sd               =   5.9774496641078E-01
(PID.TID 0000.0001) %MON dynstat_eta_del2             =   7.8654967909672E-04
(PID.TID 0000.0001) %MON dynstat_uvel_max             =   1.8796705645959E-01
(PID.TID 0000.0001) %MON dynstat_uvel_min             =  -2.8560601428694E-01
(PID.TID 0000.0001) %MON dynstat_uvel_mean            =  -4.8727121506989E-04
(PID.TID 0000.0001) %MON dynstat_uvel_sd              =   1.2017813843267E-02
(PID.TID 0000.0001) %MON dynstat_uvel_del2            =   5.1063550560539E-05
(PID.TID 0000.0001) %MON dynstat_vvel_max             =   1.7477027049403E-01
(PID.TID 0000.0001) %MON dynstat_vvel_min             =  -2.2490684706316E-01
(PID.TID 0000.0001) %MON dynstat_vvel_mean            =  -4.0190593309132E-04
(PID.TID 0000.0001) %MON dynstat_vvel_sd              =   1.2659416271774E-02
(PID.TID 0000.0001) %MON dynstat_vvel_del2            =   5.0401215212217E-05
(PID.TID 0000.0001) %MON dynstat_wvel_max             =   1.0531722595234E-04
(PID.TID 0000.0001) %MON dynstat_wvel_min             =  -2.0589478915501E-04
(PID.TID 0000.0001) %MON dynstat_wvel_mean            =   8.1371009817572E-11
(PID.TID 0000.0001) %MON dynstat_wvel_sd              =   3.8291649968305E-06
(PID.TID 0000.0001) %MON dynstat_wvel_del2            =   2.6588478974867E-08
(PID.TID 0000.0001) %MON dynstat_theta_max            =   3.0997078623945E+01
(PID.TID 0000.0001) %MON dynstat_theta_min            =  -2.0280292009595E+00
(PID.TID 0000.0001) %MON dynstat_theta_mean           =   3.9095373844672E+00
(PID.TID 0000.0001) %MON dynstat_theta_sd             =   4.5709931602369E+00
(PID.TID 0000.0001) %MON dynstat_theta_del2           =   2.5809699008568E-03
(PID.TID 0000.0001) %MON dynstat_salt_max             =   4.1388844287884E+01
(PID.TID 0000.0001) %MON dynstat_salt_min             =   1.8385874414266E+01
(PID.TID 0000.0001) %MON dynstat_salt_mean            =   3.4772071470409E+01
(PID.TID 0000.0001) %MON dynstat_salt_sd              =   5.3132874530495E-01
(PID.TID 0000.0001) %MON dynstat_salt_del2            =   7.8442992803452E-04
(PID.TID 0000.0001) %MON forcing_qnet_max             =   4.5288150232768E+02
(PID.TID 0000.0001) %MON forcing_qnet_min             =  -2.0919161859792E+02
(PID.TID 0000.0001) %MON forcing_qnet_mean            =  -1.2219192603503E+01
(PID.TID 0000.0001) %MON forcing_qnet_sd              =   1.1452259813662E+02
(PID.TID 0000.0001) %MON forcing_qnet_del2            =   4.2405268227766E-01
(PID.TID 0000.0001) %MON forcing_qsw_max              =   0.0000000000000E+00
(PID.TID 0000.0001) %MON forcing_qsw_min              =   0.0000000000000E+00
(PID.TID 0000.0001) %MON forcing_qsw_mean             =   0.0000000000000E+00
(PID.TID 0000.0001) %MON forcing_qsw_sd               =   0.0000000000000E+00
(PID.TID 0000.0001) %MON forcing_qsw_del2             =   0.0000000000000E+00
(PID.TID 0000.0001) %MON forcing_empmr_max            =   7.6494447208479E-05
(PID.TID 0000.0001) %MON forcing_empmr_min            =  -1.5362614137596E-04
(PID.TID 0000.0001) %MON forcing_empmr_mean           =  -2.7256318706594E-21
(PID.TID 0000.0001) %MON forcing_empmr_sd             =   2.4051723601802E-05
(PID.TID 0000.0001) %MON forcing_empmr_del2           =   1.2276157049243E-07
(PID.TID 0000.0001) %MON forcing_fu_max               =   2.4731784009269E-01
(PID.TID 0000.0001) %MON forcing_fu_min               =  -2.2180668969530E-01
(PID.TID 0000.0001) %MON forcing_fu_mean              =  -4.2870070504621E-03
(PID.TID 0000.0001) %MON forcing_fu_sd                =   6.4197640910106E-02
(PID.TID 0000.0001) %MON forcing_fu_del2              =   2.0958789804308E-04
(PID.TID 0000.0001) %MON forcing_fv_max               =   2.6891042987167E-01
(PID.TID 0000.0001) %MON forcing_fv_min               =  -3.3164734762358E-01
(PID.TID 0000.0001) %MON forcing_fv_mean              =  -1.3708054794422E-02
(PID.TID 0000.0001) %MON forcing_fv_sd                =   7.5544817904543E-02
(PID.TID 0000.0001) %MON forcing_fv_del2              =   2.3785256950118E-04
(PID.TID 0000.0001) %MON advcfl_uvel_max              =   8.1003283222727E-02
(PID.TID 0000.0001) %MON advcfl_vvel_max              =   7.6179898707344E-02
(PID.TID 0000.0001) %MON advcfl_wvel_max              =   6.7129470879218E-02
(PID.TID 0000.0001) %MON advcfl_W_hf_max              =   7.4149934012286E-02
(PID.TID 0000.0001) %MON pe_b_mean                    =   4.7598835523280E-04
(PID.TID 0000.0001) %MON ke_max                       =   3.9918726447462E-02
(PID.TID 0000.0001) %MON ke_mean                      =   1.4088471566318E-04
(PID.TID 0000.0001) %MON ke_vol                       =   1.3398024453628E+18
(PID.TID 0000.0001) %MON vort_r_min                   =  -1.2146630396514E-06
(PID.TID 0000.0001) %MON vort_r_max                   =   1.2279557596137E-06
(PID.TID 0000.0001) %MON vort_a_mean                  =  -2.0493733748264E-05
(PID.TID 0000.0001) %MON vort_a_sd                    =   7.5053946877167E-05
(PID.TID 0000.0001) %MON vort_p_mean                  =  -2.4715773640429E-05
(PID.TID 0000.0001) %MON vort_p_sd                    =   1.2777073576085E-04
(PID.TID 0000.0001) %MON surfExpan_theta_mean         =   4.5292889584980E-08
(PID.TID 0000.0001) %MON surfExpan_salt_mean          =   1.4085231580320E-08
(PID.TID 0000.0001) // =======================================================
(PID.TID 0000.0001) // End MONITOR dynamic field statistics
(PID.TID 0000.0001) // =======================================================
 cg2d: Sum(rhs),rhsMax =  -9.37916411203332E-12  4.24510427778353E+00
(PID.TID 0000.0001)                    cg2d_init_res =    4.44871995447646E-01
(PID.TID 0000.0001)                       cg2d_iters =    63
(PID.TID 0000.0001)                         cg2d_res =    5.60781646069391E-07
(PID.TID 0000.0001) // =======================================================
(PID.TID 0000.0001) // Begin MONITOR dynamic field statistics
(PID.TID 0000.0001) // =======================================================
(PID.TID 0000.0001) %MON time_tsnumber                =                 72008
(PID.TID 0000.0001) %MON time_secondsf                =   6.2214912000000E+09
(PID.TID 0000.0001) %MON dynstat_eta_max              =   9.0798906890691E-01
(PID.TID 0000.0001) %MON dynstat_eta_min              =  -1.6162522505130E+00
(PID.TID 0000.0001) %MON dynstat_eta_mean             =   1.4290160822043E-14
(PID.TID 0000.0001) %MON dynstat_eta_sd               =   5.9763399619371E-01
(PID.TID 0000.0001) %MON dynstat_eta_del2             =   7.8597265753048E-04
(PID.TID 0000.0001) %MON dynstat_uvel_max             =   1.8793323363863E-01
(PID.TID 0000.0001) %MON dynstat_uvel_min             =  -2.8517292240095E-01
(PID.TID 0000.0001) %MON dynstat_uvel_mean            =  -4.8692000021584E-04
(PID.TID 0000.0001) %MON dynstat_uvel_sd              =   1.2017100345389E-02
(PID.TID 0000.0001) %MON dynstat_uvel_del2            =   5.1035251253063E-05
(PID.TID 0000.0001) %MON dynstat_vvel_max             =   1.7473506341756E-01
(PID.TID 0000.0001) %MON dynstat_vvel_min             =  -2.2483528450287E-01
(PID.TID 0000.0001) %MON dynstat_vvel_mean            =  -4.0159046911673E-04
(PID.TID 0000.0001) %MON dynstat_vvel_sd              =   1.2661673378265E-02
(PID.TID 0000.0001) %MON dynstat_vvel_del2            =   5.0366932899438E-05
(PID.TID 0000.0001) %MON dynstat_wvel_max             =   1.0590392280223E-04
(PID.TID 0000.0001) %MON dynstat_wvel_min             =  -2.0597805569122E-04
(PID.TID 0000.0001) %MON dynstat_wvel_mean            =   1.0141610140285E-10
(PID.TID 0000.0001) %MON dynstat_wvel_sd              =   3.8289999336349E-06
(PID.TID 0000.0001) %MON dynstat_wvel_del2            =   2.6632810661111E-08
(PID.TID 0000.0001) %MON dynstat_theta_max            =   3.1005568139747E+01
(PID.TID 0000.0001) %MON dynstat_theta_min            =  -2.0325621122709E+00
(PID.TID 0000.0001) %MON dynstat_theta_mean           =   3.9095964613957E+00
(PID.TID 0000.0001) %MON dynstat_theta_sd             =   4.5710036692406E+00
(PID.TID 0000.0001) %MON dynstat_theta_del2           =   2.5724132340191E-03
(PID.TID 0000.0001) %MON dynstat_salt_max             =   4.1389145299555E+01
(PID.TID 0000.0001) %MON dynstat_salt_min             =   1.8386250583346E+01
(PID.TID 0000.0001) %MON dynstat_salt_mean            =   3.4772071933214E+01
(PID.TID 0000.0001) %MON dynstat_salt_sd              =   5.3131177164176E-01
(PID.TID 0000.0001) %MON dynstat_salt_del2            =   7.8155798775629E-04
(PID.TID 0000.0001) %MON forcing_qnet_max             =   4.5278704135979E+02
(PID.TID 0000.0001) %MON forcing_qnet_min             =  -2.0821926461131E+02
(PID.TID 0000.0001) %MON forcing_qnet_mean            =  -1.2231420972146E+01
(PID.TID 0000.0001) %MON forcing_qnet_sd              =   1.1435735176461E+02
(PID.TID 0000.0001) %MON forcing_qnet_del2            =   4.2574043278125E-01
(PID.TID 0000.0001) %MON forcing_qsw_max              =   0.0000000000000E+00
(PID.TID 0000.0001) %MON forcing_qsw_min              =   0.0000000000000E+00
(PID.TID 0000.0001) %MON forcing_qsw_mean             =   0.0000000000000E+00
(PID.TID 0000.0001) %MON forcing_qsw_sd               =   0.0000000000000E+00
(PID.TID 0000.0001) %MON forcing_qsw_del2             =   0.0000000000000E+00
(PID.TID 0000.0001) %MON forcing_empmr_max            =   7.6494447208479E-05
(PID.TID 0000.0001) %MON forcing_empmr_min            =  -1.5362614137596E-04
(PID.TID 0000.0001) %MON forcing_empmr_mean           =  -2.3063038905579E-21
(PID.TID 0000.0001) %MON forcing_empmr_sd             =   2.4051723601802E-05
(PID.TID 0000.0001) %MON forcing_empmr_del2           =   1.2276157049243E-07
(PID.TID 0000.0001) %MON forcing_fu_max               =   2.4726979082249E-01
(PID.TID 0000.0001) %MON forcing_fu_min               =  -2.2495248635365E-01
(PID.TID 0000.0001) %MON forcing_fu_mean              =  -4.2435281147287E-03
(PID.TID 0000.0001) %MON forcing_fu_sd                =   6.4287840534767E-02
(PID.TID 0000.0001) %MON forcing_fu_del2              =   2.1115214806548E-04
(PID.TID 0000.0001) %MON forcing_fv_max               =   2.7159367144430E-01
(PID.TID 0000.0001) %MON forcing_fv_min               =  -3.3243525155752E-01
(PID.TID 0000.0001) %MON forcing_fv_mean              =  -1.3711980340349E-02
(PID.TID 0000.0001) %MON forcing_fv_sd                =   7.5645935346452E-02
(PID.TID 0000.0001) %MON forcing_fv_del2              =   2.3922805906111E-04
(PID.TID 0000.0001) %MON advcfl_uvel_max              =   8.0880450148677E-02
(PID.TID 0000.0001) %MON advcfl_vvel_max              =   7.6164552438715E-02
(PID.TID 0000.0001) %MON advcfl_wvel_max              =   6.7156618912156E-02
(PID.TID 0000.0001) %MON advcfl_W_hf_max              =   7.4179951730575E-02
(PID.TID 0000.0001) %MON pe_b_mean                    =   4.7581163897067E-04
(PID.TID 0000.0001) %MON ke_max                       =   3.9793631327114E-02
(PID.TID 0000.0001) %MON ke_mean                      =   1.4090308682091E-04
(PID.TID 0000.0001) %MON ke_vol                       =   1.3398024453628E+18
(PID.TID 0000.0001) %MON vort_r_min                   =  -1.2195608504854E-06
(PID.TID 0000.0001) %MON vort_r_max                   =   1.2308457013219E-06
(PID.TID 0000.0001) %MON vort_a_mean                  =  -2.0493733748264E-05
(PID.TID 0000.0001) %MON vort_a_sd                    =   7.5053946712929E-05
(PID.TID 0000.0001) %MON vort_p_mean                  =  -2.4715773615726E-05
(PID.TID 0000.0001) %MON vort_p_sd                    =   1.2777073083309E-04
(PID.TID 0000.0001) %MON surfExpan_theta_mean         =   4.6507326557340E-08
(PID.TID 0000.0001) %MON surfExpan_salt_mean          =   1.4101627274965E-08
(PID.TID 0000.0001) // =======================================================
(PID.TID 0000.0001) // End MONITOR dynamic field statistics
(PID.TID 0000.0001) // =======================================================
 cg2d: Sum(rhs),rhsMax =  -9.74864633462857E-12  4.24156387050421E+00
(PID.TID 0000.0001)                    cg2d_init_res =    4.41647583391311E-01
(PID.TID 0000.0001)                       cg2d_iters =    63
(PID.TID 0000.0001)                         cg2d_res =    5.49201098700604E-07
(PID.TID 0000.0001) // =======================================================
(PID.TID 0000.0001) // Begin MONITOR dynamic field statistics
(PID.TID 0000.0001) // =======================================================
(PID.TID 0000.0001) %MON time_tsnumber                =                 72009
(PID.TID 0000.0001) %MON time_secondsf                =   6.2215776000000E+09
(PID.TID 0000.0001) %MON dynstat_eta_max              =   9.0655294314454E-01
(PID.TID 0000.0001) %MON dynstat_eta_min              =  -1.6158141790281E+00
(PID.TID 0000.0001) %MON dynstat_eta_mean             =   1.4125274351019E-14
(PID.TID 0000.0001) %MON dynstat_eta_sd               =   5.9752714511645E-01
(PID.TID 0000.0001) %MON dynstat_eta_del2             =   7.8545425547821E-04
(PID.TID 0000.0001) %MON dynstat_uvel_max             =   1.8783159039056E-01
(PID.TID 0000.0001) %MON dynstat_uvel_min             =  -2.8472341884373E-01
(PID.TID 0000.0001) %MON dynstat_uvel_mean            =  -4.8650655634371E-04
(PID.TID 0000.0001) %MON dynstat_uvel_sd              =   1.2016471077922E-02
(PID.TID 0000.0001) %MON dynstat_uvel_del2            =   5.1006321310987E-05
(PID.TID 0000.0001) %MON dynstat_vvel_max             =   1.7464414310935E-01
(PID.TID 0000.0001) %MON dynstat_vvel_min             =  -2.2475792342430E-01
(PID.TID 0000.0001) %MON dynstat_vvel_mean            =  -4.0132360977697E-04
(PID.TID 0000.0001) %MON dynstat_vvel_sd              =   1.2663521038925E-02
(PID.TID 0000.0001) %MON dynstat_vvel_del2            =   5.0332794032695E-05
(PID.TID 0000.0001) %MON dynstat_wvel_max             =   1.0652359333615E-04
(PID.TID 0000.0001) %MON dynstat_wvel_min             =  -2.0599876704194E-04
(PID.TID 0000.0001) %MON dynstat_wvel_mean            =   1.2636167244178E-10
(PID.TID 0000.0001) %MON dynstat_wvel_sd              =   3.8291680884692E-06
(PID.TID 0000.0001) %MON dynstat_wvel_del2            =   2.6681550318278E-08
(PID.TID 0000.0001) %MON dynstat_theta_max            =   3.1013697056293E+01
(PID.TID 0000.0001) %MON dynstat_theta_min            =  -2.0371790659845E+00
(PID.TID 0000.0001) %MON dynstat_theta_mean           =   3.9096558248112E+00
(PID.TID 0000.0001) %MON dynstat_theta_sd             =   4.5710200687025E+00
(PID.TID 0000.0001) %MON dynstat_theta_del2           =   2.5651415788726E-03
(PID.TID 0000.0001) %MON dynstat_salt_max             =   4.1389429348917E+01
(PID.TID 0000.0001) %MON dynstat_salt_min             =   1.8386632485716E+01
(PID.TID 0000.0001) %MON dynstat_salt_mean            =   3.4772072411056E+01
(PID.TID 0000.0001) %MON dynstat_salt_sd              =   5.3129427922997E-01
(PID.TID 0000.0001) %MON dynstat_salt_del2            =   7.7944391262380E-04
(PID.TID 0000.0001) %MON forcing_qnet_max             =   4.5269258039189E+02
(PID.TID 0000.0001) %MON forcing_qnet_min             =  -2.0724691062470E+02
(PID.TID 0000.0001) %MON forcing_qnet_mean            =  -1.2243649340789E+01
(PID.TID 0000.0001) %MON forcing_qnet_sd              =   1.1419883834096E+02
(PID.TID 0000.0001) %MON forcing_qnet_del2            =   4.2754265772092E-01
(PID.TID 0000.0001) %MON forcing_qsw_max              =   0.0000000000000E+00
(PID.TID 0000.0001) %MON forcing_qsw_min              =   0.0000000000000E+00
(PID.TID 0000.0001) %MON forcing_qsw_mean             =   0.0000000000000E+00
(PID.TID 0000.0001) %MON forcing_qsw_sd               =   0.0000000000000E+00
(PID.TID 0000.0001) %MON forcing_qsw_del2             =   0.0000000000000E+00
(PID.TID 0000.0001) %MON forcing_empmr_max            =   7.6494447208479E-05
(PID.TID 0000.0001) %MON forcing_empmr_min            =  -1.5362614137596E-04
(PID.TID 0000.0001) %MON forcing_empmr_mean           =  -2.7256318706594E-21
(PID.TID 0000.0001) %MON forcing_empmr_sd             =   2.4051723601802E-05
(PID.TID 0000.0001) %MON forcing_empmr_del2           =   1.2276157049243E-07
(PID.TID 0000.0001) %MON forcing_fu_max               =   2.4722174155228E-01
(PID.TID 0000.0001) %MON forcing_fu_min               =  -2.2809828301201E-01
(PID.TID 0000.0001) %MON forcing_fu_mean              =  -4.2000491789953E-03
(PID.TID 0000.0001) %MON forcing_fu_sd                =   6.4391296774987E-02
(PID.TID 0000.0001) %MON forcing_fu_del2              =   2.1293834199113E-04
(PID.TID 0000.0001) %MON forcing_fv_max               =   2.7427691301694E-01
(PID.TID 0000.0001) %MON forcing_fv_min               =  -3.3322315549145E-01
(PID.TID 0000.0001) %MON forcing_fv_mean              =  -1.3715905886277E-02
(PID.TID 0000.0001) %MON forcing_fv_sd                =   7.5757214244312E-02
(PID.TID 0000.0001) %MON forcing_fv_del2              =   2.4079325037298E-04
(PID.TID 0000.0001) %MON advcfl_uvel_max              =   8.0752962413359E-02
(PID.TID 0000.0001) %MON advcfl_vvel_max              =   7.6124921557271E-02
(PID.TID 0000.0001) %MON advcfl_wvel_max              =   6.7163371594050E-02
(PID.TID 0000.0001) %MON advcfl_W_hf_max              =   7.4187452099863E-02
(PID.TID 0000.0001) %MON pe_b_mean                    =   4.7564151330317E-04
(PID.TID 0000.0001) %MON ke_max                       =   3.9665297978614E-02
(PID.TID 0000.0001) %MON ke_mean                      =   1.4091757428270E-04
(PID.TID 0000.0001) %MON ke_vol                       =   1.3398024453628E+18
(PID.TID 0000.0001) %MON vort_r_min                   =  -1.2244931036739E-06
(PID.TID 0000.0001) %MON vort_r_max                   =   1.2338266833273E-06
(PID.TID 0000.0001) %MON vort_a_mean                  =  -2.0493733748264E-05
(PID.TID 0000.0001) %MON vort_a_sd                    =   7.5053946544912E-05
(PID.TID 0000.0001) %MON vort_p_mean                  =  -2.4715773597796E-05
(PID.TID 0000.0001) %MON vort_p_sd                    =   1.2777072588578E-04
(PID.TID 0000.0001) %MON surfExpan_theta_mean         =   4.7574670473099E-08
(PID.TID 0000.0001) %MON surfExpan_salt_mean          =   1.4101416408725E-08
(PID.TID 0000.0001) // =======================================================
(PID.TID 0000.0001) // End MONITOR dynamic field statistics
(PID.TID 0000.0001) // =======================================================
 cg2d: Sum(rhs),rhsMax =  -9.69180291576777E-12  4.23836038178081E+00
(PID.TID 0000.0001)                    cg2d_init_res =    4.39375572033830E-01
(PID.TID 0000.0001)                       cg2d_iters =    63
(PID.TID 0000.0001)                         cg2d_res =    5.44040222162072E-07
(PID.TID 0000.0001) // =======================================================
(PID.TID 0000.0001) // Begin MONITOR dynamic field statistics
(PID.TID 0000.0001) // =======================================================
(PID.TID 0000.0001) %MON time_tsnumber                =                 72010
(PID.TID 0000.0001) %MON time_secondsf                =   6.2216640000000E+09
(PID.TID 0000.0001) %MON dynstat_eta_max              =   9.0518090897117E-01
(PID.TID 0000.0001) %MON dynstat_eta_min              =  -1.6153515497170E+00
(PID.TID 0000.0001) %MON dynstat_eta_mean             =   1.4331382439798E-14
(PID.TID 0000.0001) %MON dynstat_eta_sd               =   5.9742353077999E-01
(PID.TID 0000.0001) %MON dynstat_eta_del2             =   7.8500263301154E-04
(PID.TID 0000.0001) %MON dynstat_uvel_max             =   1.8766326990275E-01
(PID.TID 0000.0001) %MON dynstat_uvel_min             =  -2.8425868817774E-01
(PID.TID 0000.0001) %MON dynstat_uvel_mean            =  -4.8601426019040E-04
(PID.TID 0000.0001) %MON dynstat_uvel_sd              =   1.2015954924541E-02
(PID.TID 0000.0001) %MON dynstat_uvel_del2            =   5.0977049203787E-05
(PID.TID 0000.0001) %MON dynstat_vvel_max             =   1.7450031767856E-01
(PID.TID 0000.0001) %MON dynstat_vvel_min             =  -2.2467523966561E-01
(PID.TID 0000.0001) %MON dynstat_vvel_mean            =  -4.0108044829721E-04
(PID.TID 0000.0001) %MON dynstat_vvel_sd              =   1.2664908197311E-02
(PID.TID 0000.0001) %MON dynstat_vvel_del2            =   5.0298818340016E-05
(PID.TID 0000.0001) %MON dynstat_wvel_max             =   1.0716304990154E-04
(PID.TID 0000.0001) %MON dynstat_wvel_min             =  -2.0595259736147E-04
(PID.TID 0000.0001) %MON dynstat_wvel_mean            =   1.5158717637353E-10
(PID.TID 0000.0001) %MON dynstat_wvel_sd              =   3.8296300572615E-06
(PID.TID 0000.0001) %MON dynstat_wvel_del2            =   2.6732855943982E-08
(PID.TID 0000.0001) %MON dynstat_theta_max            =   3.1021484192982E+01
(PID.TID 0000.0001) %MON dynstat_theta_min            =  -2.0418677806220E+00
(PID.TID 0000.0001) %MON dynstat_theta_mean           =   3.9097154264433E+00
(PID.TID 0000.0001) %MON dynstat_theta_sd             =   4.5710442684145E+00
(PID.TID 0000.0001) %MON dynstat_theta_del2           =   2.5570995306245E-03
(PID.TID 0000.0001) %MON dynstat_salt_max             =   4.1389696078964E+01
(PID.TID 0000.0001) %MON dynstat_salt_min             =   1.8387020061852E+01
(PID.TID 0000.0001) %MON dynstat_salt_mean            =   3.4772072902101E+01
(PID.TID 0000.0001) %MON dynstat_salt_sd              =   5.3127678674320E-01
(PID.TID 0000.0001) %MON dynstat_salt_del2            =   7.7682767092928E-04
(PID.TID 0000.0001) %MON forcing_qnet_max             =   4.5259811942399E+02
(PID.TID 0000.0001) %MON forcing_qnet_min             =  -2.0627455663810E+02
(PID.TID 0000.0001) %MON forcing_qnet_mean            =  -1.2255877709432E+01
(PID.TID 0000.0001) %MON forcing_qnet_sd              =   1.1404708593992E+02
(PID.TID 0000.0001) %MON forcing_qnet_del2            =   4.2945791591934E-01
(PID.TID 0000.0001) %MON forcing_qsw_max              =   0.0000000000000E+00
(PID.TID 0000.0001) %MON forcing_qsw_min              =   0.0000000000000E+00
(PID.TID 0000.0001) %MON forcing_qsw_mean             =   0.0000000000000E+00
(PID.TID 0000.0001) %MON forcing_qsw_sd               =   0.0000000000000E+00
(PID.TID 0000.0001) %MON forcing_qsw_del2             =   0.0000000000000E+00
(PID.TID 0000.0001) %MON forcing_empmr_max            =   7.6494447208479E-05
(PID.TID 0000.0001) %MON forcing_empmr_min            =  -1.5362614137596E-04
(PID.TID 0000.0001) %MON forcing_empmr_mean           =  -1.8869759104565E-21
(PID.TID 0000.0001) %MON forcing_empmr_sd             =   2.4051723601802E-05
(PID.TID 0000.0001) %MON forcing_empmr_del2           =   1.2276157049243E-07
(PID.TID 0000.0001) %MON forcing_fu_max               =   2.4734156444157E-01
(PID.TID 0000.0001) %MON forcing_fu_min               =  -2.3124407967036E-01
(PID.TID 0000.0001) %MON forcing_fu_mean              =  -4.1565702432618E-03
(PID.TID 0000.0001) %MON forcing_fu_sd                =   6.4507945848906E-02
(PID.TID 0000.0001) %MON forcing_fu_del2              =   2.1494094672237E-04
(PID.TID 0000.0001) %MON forcing_fv_max               =   2.7696015458957E-01
(PID.TID 0000.0001) %MON forcing_fv_min               =  -3.3401105942538E-01
(PID.TID 0000.0001) %MON forcing_fv_mean              =  -1.3719831432204E-02
(PID.TID 0000.0001) %MON forcing_fv_sd                =   7.5878609891640E-02
(PID.TID 0000.0001) %MON forcing_fv_del2              =   2.4254447090673E-04
(PID.TID 0000.0001) %MON advcfl_uvel_max              =   8.0621155981153E-02
(PID.TID 0000.0001) %MON advcfl_vvel_max              =   7.6062230078234E-02
(PID.TID 0000.0001) %MON advcfl_wvel_max              =   6.7148318535967E-02
(PID.TID 0000.0001) %MON advcfl_W_hf_max              =   7.4170850121029E-02
(PID.TID 0000.0001) %MON pe_b_mean                    =   4.7547657014633E-04
(PID.TID 0000.0001) %MON ke_max                       =   3.9533752138991E-02
(PID.TID 0000.0001) %MON ke_mean                      =   1.4092787778188E-04
(PID.TID 0000.0001) %MON ke_vol                       =   1.3398024453628E+18
(PID.TID 0000.0001) %MON vort_r_min                   =  -1.2294293862709E-06
(PID.TID 0000.0001) %MON vort_r_max                   =   1.2368419989390E-06
(PID.TID 0000.0001) %MON vort_a_mean                  =  -2.0493733748264E-05
(PID.TID 0000.0001) %MON vort_a_sd                    =   7.5053946379553E-05
(PID.TID 0000.0001) %MON vort_p_mean                  =  -2.4715773588260E-05
(PID.TID 0000.0001) %MON vort_p_sd                    =   1.2777072082730E-04
(PID.TID 0000.0001) %MON surfExpan_theta_mean         =   4.8496457484039E-08
(PID.TID 0000.0001) %MON surfExpan_salt_mean          =   1.4097374277883E-08
(PID.TID 0000.0001) // =======================================================
(PID.TID 0000.0001) // End MONITOR dynamic field statistics
(PID.TID 0000.0001) // =======================================================
 cg2d: Sum(rhs),rhsMax =  -9.63495949690696E-12  4.23549215406899E+00
(PID.TID 0000.0001)                    cg2d_init_res =    4.36155650101201E-01
(PID.TID 0000.0001)                       cg2d_iters =    63
(PID.TID 0000.0001)                         cg2d_res =    5.41787840099521E-07
(PID.TID 0000.0001) // =======================================================
(PID.TID 0000.0001) // Begin MONITOR dynamic field statistics
(PID.TID 0000.0001) // =======================================================
(PID.TID 0000.0001) %MON time_tsnumber                =                 72011
(PID.TID 0000.0001) %MON time_secondsf                =   6.2217504000000E+09
(PID.TID 0000.0001) %MON dynstat_eta_max              =   9.0385433536791E-01
(PID.TID 0000.0001) %MON dynstat_eta_min              =  -1.6148585629029E+00
(PID.TID 0000.0001) %MON dynstat_eta_mean             =   1.4139014890271E-14
(PID.TID 0000.0001) %MON dynstat_eta_sd               =   5.9732336207578E-01
(PID.TID 0000.0001) %MON dynstat_eta_del2             =   7.8460104479076E-04
(PID.TID 0000.0001) %MON dynstat_uvel_max             =   1.8743033645291E-01
(PID.TID 0000.0001) %MON dynstat_uvel_min             =  -2.8377978922474E-01
(PID.TID 0000.0001) %MON dynstat_uvel_mean            =  -4.8544191839541E-04
(PID.TID 0000.0001) %MON dynstat_uvel_sd              =   1.2015572093488E-02
(PID.TID 0000.0001) %MON dynstat_uvel_del2            =   5.0947878393969E-05
(PID.TID 0000.0001) %MON dynstat_vvel_max             =   1.7430706441717E-01
(PID.TID 0000.0001) %MON dynstat_vvel_min             =  -2.2458764468528E-01
(PID.TID 0000.0001) %MON dynstat_vvel_mean            =  -4.0083500062805E-04
(PID.TID 0000.0001) %MON dynstat_vvel_sd              =   1.2665797303154E-02
(PID.TID 0000.0001) %MON dynstat_vvel_del2            =   5.0265034200899E-05
(PID.TID 0000.0001) %MON dynstat_wvel_max             =   1.0780976239528E-04
(PID.TID 0000.0001) %MON dynstat_wvel_min             =  -2.0583741227717E-04
(PID.TID 0000.0001) %MON dynstat_wvel_mean            =   1.7134333402562E-10
(PID.TID 0000.0001) %MON dynstat_wvel_sd              =   3.8303554973499E-06
(PID.TID 0000.0001) %MON dynstat_wvel_del2            =   2.6786164710735E-08
(PID.TID 0000.0001) %MON dynstat_theta_max            =   3.1028948274380E+01
(PID.TID 0000.0001) %MON dynstat_theta_min            =  -2.0466174293316E+00
(PID.TID 0000.0001) %MON dynstat_theta_mean           =   3.9097753855212E+00
(PID.TID 0000.0001) %MON dynstat_theta_sd             =   4.5710758281636E+00
(PID.TID 0000.0001) %MON dynstat_theta_del2           =   2.5488608341352E-03
(PID.TID 0000.0001) %MON dynstat_salt_max             =   4.1389945665317E+01
(PID.TID 0000.0001) %MON dynstat_salt_min             =   1.8387413267918E+01
(PID.TID 0000.0001) %MON dynstat_salt_mean            =   3.4772073409663E+01
(PID.TID 0000.0001) %MON dynstat_salt_sd              =   5.3125948930253E-01
(PID.TID 0000.0001) %MON dynstat_salt_del2            =   7.7429019514210E-04
(PID.TID 0000.0001) %MON forcing_qnet_max             =   4.5250365845610E+02
(PID.TID 0000.0001) %MON forcing_qnet_min             =  -2.0572520854632E+02
(PID.TID 0000.0001) %MON forcing_qnet_mean            =  -1.2268106078075E+01
(PID.TID 0000.0001) %MON forcing_qnet_sd              =   1.1390212158476E+02
(PID.TID 0000.0001) %MON forcing_qnet_del2            =   4.3148470219571E-01
(PID.TID 0000.0001) %MON forcing_qsw_max              =   0.0000000000000E+00
(PID.TID 0000.0001) %MON forcing_qsw_min              =   0.0000000000000E+00
(PID.TID 0000.0001) %MON forcing_qsw_mean             =   0.0000000000000E+00
(PID.TID 0000.0001) %MON forcing_qsw_sd               =   0.0000000000000E+00
(PID.TID 0000.0001) %MON forcing_qsw_del2             =   0.0000000000000E+00
(PID.TID 0000.0001) %MON forcing_empmr_max            =   7.6494447208479E-05
(PID.TID 0000.0001) %MON forcing_empmr_min            =  -1.5362614137596E-04
(PID.TID 0000.0001) %MON forcing_empmr_mean           =  -2.7256318706594E-21
(PID.TID 0000.0001) %MON forcing_empmr_sd             =   2.4051723601802E-05
(PID.TID 0000.0001) %MON forcing_empmr_del2           =   1.2276157049243E-07
(PID.TID 0000.0001) %MON forcing_fu_max               =   2.4760593894036E-01
(PID.TID 0000.0001) %MON forcing_fu_min               =  -2.3438987632871E-01
(PID.TID 0000.0001) %MON forcing_fu_mean              =  -4.1130913075284E-03
(PID.TID 0000.0001) %MON forcing_fu_sd                =   6.4637716330841E-02
(PID.TID 0000.0001) %MON forcing_fu_del2              =   2.1715397508819E-04
(PID.TID 0000.0001) %MON forcing_fv_max               =   2.7964339616220E-01
(PID.TID 0000.0001) %MON forcing_fv_min               =  -3.3479896335931E-01
(PID.TID 0000.0001) %MON forcing_fv_mean              =  -1.3723756978131E-02
(PID.TID 0000.0001) %MON forcing_fv_sd                =   7.6010073816084E-02
(PID.TID 0000.0001) %MON forcing_fv_del2              =   2.4447772305236E-04
(PID.TID 0000.0001) %MON advcfl_uvel_max              =   8.0485331153996E-02
(PID.TID 0000.0001) %MON advcfl_vvel_max              =   7.5977993704185E-02
(PID.TID 0000.0001) %MON advcfl_wvel_max              =   6.7110763851878E-02
(PID.TID 0000.0001) %MON advcfl_W_hf_max              =   7.4129388949416E-02
(PID.TID 0000.0001) %MON pe_b_mean                    =   4.7531713926814E-04
(PID.TID 0000.0001) %MON ke_max                       =   3.9399041529054E-02
(PID.TID 0000.0001) %MON ke_mean                      =   1.4093376682928E-04
(PID.TID 0000.0001) %MON ke_vol                       =   1.3398024453628E+18
(PID.TID 0000.0001) %MON vort_r_min                   =  -1.2343411948890E-06
(PID.TID 0000.0001) %MON vort_r_max                   =   1.2398355640982E-06
(PID.TID 0000.0001) %MON vort_a_mean                  =  -2.0493733748264E-05
(PID.TID 0000.0001) %MON vort_a_sd                    =   7.5053946223123E-05
(PID.TID 0000.0001) %MON vort_p_mean                  =  -2.4715773587398E-05
(PID.TID 0000.0001) %MON vort_p_sd                    =   1.2777071568171E-04
(PID.TID 0000.0001) %MON surfExpan_theta_mean         =   4.9206795258550E-08
(PID.TID 0000.0001) %MON surfExpan_salt_mean          =   1.4098320598941E-08
(PID.TID 0000.0001) // =======================================================
(PID.TID 0000.0001) // End MONITOR dynamic field statistics
(PID.TID 0000.0001) // =======================================================
 cg2d: Sum(rhs),rhsMax =  -9.72022462519817E-12  4.23294943101930E+00
(PID.TID 0000.0001)                    cg2d_init_res =    4.33991410590412E-01
(PID.TID 0000.0001)                       cg2d_iters =    63
(PID.TID 0000.0001)                         cg2d_res =    5.43169141105655E-07
(PID.TID 0000.0001) // =======================================================
(PID.TID 0000.0001) // Begin MONITOR dynamic field statistics
(PID.TID 0000.0001) // =======================================================
(PID.TID 0000.0001) %MON time_tsnumber                =                 72012
(PID.TID 0000.0001) %MON time_secondsf                =   6.2218368000000E+09
(PID.TID 0000.0001) %MON dynstat_eta_max              =   9.0255847646250E-01
(PID.TID 0000.0001) %MON dynstat_eta_min              =  -1.6143367980880E+00
(PID.TID 0000.0001) %MON dynstat_eta_mean             =   1.4317641900547E-14
(PID.TID 0000.0001) %MON dynstat_eta_sd               =   5.9722716053479E-01
(PID.TID 0000.0001) %MON dynstat_eta_del2             =   7.8426121241488E-04
(PID.TID 0000.0001) %MON dynstat_uvel_max             =   1.8713575128509E-01
(PID.TID 0000.0001) %MON dynstat_uvel_min             =  -2.8328766903972E-01
(PID.TID 0000.0001) %MON dynstat_uvel_mean            =  -4.8479974630796E-04
(PID.TID 0000.0001) %MON dynstat_uvel_sd              =   1.2015328679473E-02
(PID.TID 0000.0001) %MON dynstat_uvel_del2            =   5.0919160514187E-05
(PID.TID 0000.0001) %MON dynstat_vvel_max             =   1.7406814542314E-01
(PID.TID 0000.0001) %MON dynstat_vvel_min             =  -2.2449549843120E-01
(PID.TID 0000.0001) %MON dynstat_vvel_mean            =  -4.0056519844010E-04
(PID.TID 0000.0001) %MON dynstat_vvel_sd              =   1.2666166545963E-02
(PID.TID 0000.0001) %MON dynstat_vvel_del2            =   5.0231430067815E-05
(PID.TID 0000.0001) %MON dynstat_wvel_max             =   1.0845102230015E-04
(PID.TID 0000.0001) %MON dynstat_wvel_min             =  -2.0565208745418E-04
(PID.TID 0000.0001) %MON dynstat_wvel_mean            =   1.8275610588509E-10
(PID.TID 0000.0001) %MON dynstat_wvel_sd              =   3.8312781114152E-06
(PID.TID 0000.0001) %MON dynstat_wvel_del2            =   2.6839820863333E-08
(PID.TID 0000.0001) %MON dynstat_theta_max            =   3.1036107842234E+01
(PID.TID 0000.0001) %MON dynstat_theta_min            =  -2.0514183414634E+00
(PID.TID 0000.0001) %MON dynstat_theta_mean           =   3.9098356179686E+00
(PID.TID 0000.0001) %MON dynstat_theta_sd             =   4.5711143684881E+00
(PID.TID 0000.0001) %MON dynstat_theta_del2           =   2.5400723277056E-03
(PID.TID 0000.0001) %MON dynstat_salt_max             =   4.1390178242774E+01
(PID.TID 0000.0001) %MON dynstat_salt_min             =   1.8387812076467E+01
(PID.TID 0000.0001) %MON dynstat_salt_mean            =   3.4772073932055E+01
(PID.TID 0000.0001) %MON dynstat_salt_sd              =   5.3124208251262E-01
(PID.TID 0000.0001) %MON dynstat_salt_del2            =   7.7153943564667E-04
(PID.TID 0000.0001) %MON forcing_qnet_max             =   4.5240919748820E+02
(PID.TID 0000.0001) %MON forcing_qnet_min             =  -2.0540092066247E+02
(PID.TID 0000.0001) %MON forcing_qnet_mean            =  -1.2280334446718E+01
(PID.TID 0000.0001) %MON forcing_qnet_sd              =   1.1376397122458E+02
(PID.TID 0000.0001) %MON forcing_qnet_del2            =   4.3362145267556E-01
(PID.TID 0000.0001) %MON forcing_qsw_max              =   0.0000000000000E+00
(PID.TID 0000.0001) %MON forcing_qsw_min              =   0.0000000000000E+00
(PID.TID 0000.0001) %MON forcing_qsw_mean             =   0.0000000000000E+00
(PID.TID 0000.0001) %MON forcing_qsw_sd               =   0.0000000000000E+00
(PID.TID 0000.0001) %MON forcing_qsw_del2             =   0.0000000000000E+00
(PID.TID 0000.0001) %MON forcing_empmr_max            =   7.6494447208479E-05
(PID.TID 0000.0001) %MON forcing_empmr_min            =  -1.5362614137596E-04
(PID.TID 0000.0001) %MON forcing_empmr_mean           =  -2.7256318706594E-21
(PID.TID 0000.0001) %MON forcing_empmr_sd             =   2.4051723601802E-05
(PID.TID 0000.0001) %MON forcing_empmr_del2           =   1.2276157049243E-07
(PID.TID 0000.0001) %MON forcing_fu_max               =   2.4787031343914E-01
(PID.TID 0000.0001) %MON forcing_fu_min               =  -2.3765894517478E-01
(PID.TID 0000.0001) %MON forcing_fu_mean              =  -4.0696123717950E-03
(PID.TID 0000.0001) %MON forcing_fu_sd                =   6.4780529365136E-02
(PID.TID 0000.0001) %MON forcing_fu_del2              =   2.1957106468296E-04
(PID.TID 0000.0001) %MON forcing_fv_max               =   2.8232663773484E-01
(PID.TID 0000.0001) %MON forcing_fv_min               =  -3.3558686729325E-01
(PID.TID 0000.0001) %MON forcing_fv_mean              =  -1.3727682524059E-02
(PID.TID 0000.0001) %MON forcing_fv_sd                =   7.6151553873676E-02
(PID.TID 0000.0001) %MON forcing_fv_del2              =   2.4658872547121E-04
(PID.TID 0000.0001) %MON advcfl_uvel_max              =   8.0345756534653E-02
(PID.TID 0000.0001) %MON advcfl_vvel_max              =   7.5873852280631E-02
(PID.TID 0000.0001) %MON advcfl_wvel_max              =   6.7050340966193E-02
(PID.TID 0000.0001) %MON advcfl_W_hf_max              =   7.4062667018837E-02
(PID.TID 0000.0001) %MON pe_b_mean                    =   4.7516404778720E-04
(PID.TID 0000.0001) %MON ke_max                       =   3.9261237741578E-02
(PID.TID 0000.0001) %MON ke_mean                      =   1.4093504719348E-04
(PID.TID 0000.0001) %MON ke_vol                       =   1.3398024453628E+18
(PID.TID 0000.0001) %MON vort_r_min                   =  -1.2392016706917E-06
(PID.TID 0000.0001) %MON vort_r_max                   =   1.2427518312040E-06
(PID.TID 0000.0001) %MON vort_a_mean                  =  -2.0493733748264E-05
(PID.TID 0000.0001) %MON vort_a_sd                    =   7.5053946080265E-05
(PID.TID 0000.0001) %MON vort_p_mean                  =  -2.4715773593381E-05
(PID.TID 0000.0001) %MON vort_p_sd                    =   1.2777071051665E-04
(PID.TID 0000.0001) %MON surfExpan_theta_mean         =   4.9705072695422E-08
(PID.TID 0000.0001) %MON surfExpan_salt_mean          =   1.4109276562530E-08
(PID.TID 0000.0001) // =======================================================
(PID.TID 0000.0001) // End MONITOR dynamic field statistics
(PID.TID 0000.0001) // =======================================================
 cg2d: Sum(rhs),rhsMax =  -9.83391146291979E-12  4.23071303839920E+00
(PID.TID 0000.0001)                    cg2d_init_res =    4.32550300255006E-01
(PID.TID 0000.0001)                       cg2d_iters =    63
(PID.TID 0000.0001)                         cg2d_res =    5.46509661512823E-07
(PID.TID 0000.0001) // =======================================================
(PID.TID 0000.0001) // Begin MONITOR dynamic field statistics
(PID.TID 0000.0001) // =======================================================
(PID.TID 0000.0001) %MON time_tsnumber                =                 72013
(PID.TID 0000.0001) %MON time_secondsf                =   6.2219232000000E+09
(PID.TID 0000.0001) %MON dynstat_eta_max              =   9.0128937379308E-01
(PID.TID 0000.0001) %MON dynstat_eta_min              =  -1.6137915907437E+00
(PID.TID 0000.0001) %MON dynstat_eta_mean             =   1.4097793272515E-14
(PID.TID 0000.0001) %MON dynstat_eta_sd               =   5.9713495160293E-01
(PID.TID 0000.0001) %MON dynstat_eta_del2             =   7.8396870071702E-04
(PID.TID 0000.0001) %MON dynstat_uvel_max             =   1.8678332475242E-01
(PID.TID 0000.0001) %MON dynstat_uvel_min             =  -2.8278315517778E-01
(PID.TID 0000.0001) %MON dynstat_uvel_mean            =  -4.8410904206965E-04
(PID.TID 0000.0001) %MON dynstat_uvel_sd              =   1.2015217982984E-02
(PID.TID 0000.0001) %MON dynstat_uvel_del2            =   5.0891240551809E-05
(PID.TID 0000.0001) %MON dynstat_vvel_max             =   1.7378746350827E-01
(PID.TID 0000.0001) %MON dynstat_vvel_min             =  -2.2439913928999E-01
(PID.TID 0000.0001) %MON dynstat_vvel_mean            =  -4.0025695416869E-04
(PID.TID 0000.0001) %MON dynstat_vvel_sd              =   1.2666010188334E-02
(PID.TID 0000.0001) %MON dynstat_vvel_del2            =   5.0198018266245E-05
(PID.TID 0000.0001) %MON dynstat_wvel_max             =   1.0907405163357E-04
(PID.TID 0000.0001) %MON dynstat_wvel_min             =  -2.0539682189715E-04
(PID.TID 0000.0001) %MON dynstat_wvel_mean            =   1.8571744296978E-10
(PID.TID 0000.0001) %MON dynstat_wvel_sd              =   3.8323270853364E-06
(PID.TID 0000.0001) %MON dynstat_wvel_del2            =   2.6892369086014E-08
(PID.TID 0000.0001) %MON dynstat_theta_max            =   3.1042981026915E+01
(PID.TID 0000.0001) %MON dynstat_theta_min            =  -2.0562617757690E+00
(PID.TID 0000.0001) %MON dynstat_theta_mean           =   3.9098961239334E+00
(PID.TID 0000.0001) %MON dynstat_theta_sd             =   4.5711558749726E+00
(PID.TID 0000.0001) %MON dynstat_theta_del2           =   2.5345598673473E-03
(PID.TID 0000.0001) %MON dynstat_salt_max             =   4.1390393879555E+01
(PID.TID 0000.0001) %MON dynstat_salt_min             =   1.8388216477911E+01
(PID.TID 0000.0001) %MON dynstat_salt_mean            =   3.4772074468914E+01
(PID.TID 0000.0001) %MON dynstat_salt_sd              =   5.3122335784130E-01
(PID.TID 0000.0001) %MON dynstat_salt_del2            =   7.6964035276466E-04
(PID.TID 0000.0001) %MON forcing_qnet_max             =   4.5231473652030E+02
(PID.TID 0000.0001) %MON forcing_qnet_min             =  -2.0507663277863E+02
(PID.TID 0000.0001) %MON forcing_qnet_mean            =  -1.2292562815361E+01
(PID.TID 0000.0001) %MON forcing_qnet_sd              =   1.1363265971198E+02
(PID.TID 0000.0001) %MON forcing_qnet_del2            =   4.3586655012794E-01
(PID.TID 0000.0001) %MON forcing_qsw_max              =   0.0000000000000E+00
(PID.TID 0000.0001) %MON forcing_qsw_min              =   0.0000000000000E+00
(PID.TID 0000.0001) %MON forcing_qsw_mean             =   0.0000000000000E+00
(PID.TID 0000.0001) %MON forcing_qsw_sd               =   0.0000000000000E+00
(PID.TID 0000.0001) %MON forcing_qsw_del2             =   0.0000000000000E+00
(PID.TID 0000.0001) %MON forcing_empmr_max            =   7.6494447208479E-05
(PID.TID 0000.0001) %MON forcing_empmr_min            =  -1.5362614137596E-04
(PID.TID 0000.0001) %MON forcing_empmr_mean           =  -2.7256318706594E-21
(PID.TID 0000.0001) %MON forcing_empmr_sd             =   2.4051723601802E-05
(PID.TID 0000.0001) %MON forcing_empmr_del2           =   1.2276157049243E-07
(PID.TID 0000.0001) %MON forcing_fu_max               =   2.4813468793793E-01
(PID.TID 0000.0001) %MON forcing_fu_min               =  -2.4114197747619E-01
(PID.TID 0000.0001) %MON forcing_fu_mean              =  -4.0261334360615E-03
(PID.TID 0000.0001) %MON forcing_fu_sd                =   6.4936298899217E-02
(PID.TID 0000.0001) %MON forcing_fu_del2              =   2.2218555584494E-04
(PID.TID 0000.0001) %MON forcing_fv_max               =   2.8500987930747E-01
(PID.TID 0000.0001) %MON forcing_fv_min               =  -3.3637477122718E-01
(PID.TID 0000.0001) %MON forcing_fv_mean              =  -1.3731608069986E-02
(PID.TID 0000.0001) %MON forcing_fv_sd                =   7.6302994349070E-02
(PID.TID 0000.0001) %MON forcing_fv_del2              =   2.4887295503804E-04
(PID.TID 0000.0001) %MON advcfl_uvel_max              =   8.0202666833442E-02
(PID.TID 0000.0001) %MON advcfl_vvel_max              =   7.5751506988243E-02
(PID.TID 0000.0001) %MON advcfl_wvel_max              =   6.6967114761938E-02
(PID.TID 0000.0001) %MON advcfl_W_hf_max              =   7.3970757353718E-02
(PID.TID 0000.0001) %MON pe_b_mean                    =   4.7501733313709E-04
(PID.TID 0000.0001) %MON ke_max                       =   3.9120430161336E-02
(PID.TID 0000.0001) %MON ke_mean                      =   1.4093158100374E-04
(PID.TID 0000.0001) %MON ke_vol                       =   1.3398024453628E+18
(PID.TID 0000.0001) %MON vort_r_min                   =  -1.2439855543139E-06
(PID.TID 0000.0001) %MON vort_r_max                   =   1.2455369126543E-06
(PID.TID 0000.0001) %MON vort_a_mean                  =  -2.0493733748264E-05
(PID.TID 0000.0001) %MON vort_a_sd                    =   7.5053945953379E-05
(PID.TID 0000.0001) %MON vort_p_mean                  =  -2.4715773604199E-05
(PID.TID 0000.0001) %MON vort_p_sd                    =   1.2777070541232E-04
(PID.TID 0000.0001) %MON surfExpan_theta_mean         =   4.9975426952372E-08
(PID.TID 0000.0001) %MON surfExpan_salt_mean          =   1.4126721138341E-08
(PID.TID 0000.0001) // =======================================================
(PID.TID 0000.0001) // End MONITOR dynamic field statistics
(PID.TID 0000.0001) // =======================================================
 cg2d: Sum(rhs),rhsMax =  -9.35074240260292E-12  4.22875492838227E+00
(PID.TID 0000.0001)                    cg2d_init_res =    4.31308112490026E-01
(PID.TID 0000.0001)                       cg2d_iters =    63
(PID.TID 0000.0001)                         cg2d_res =    5.45002636962756E-07
(PID.TID 0000.0001) // =======================================================
(PID.TID 0000.0001) // Begin MONITOR dynamic field statistics
(PID.TID 0000.0001) // =======================================================
(PID.TID 0000.0001) %MON time_tsnumber                =                 72014
(PID.TID 0000.0001) %MON time_secondsf                =   6.2220096000000E+09
(PID.TID 0000.0001) %MON dynstat_eta_max              =   9.0004537544260E-01
(PID.TID 0000.0001) %MON dynstat_eta_min              =  -1.6132283869909E+00
(PID.TID 0000.0001) %MON dynstat_eta_mean             =   1.4358863518302E-14
(PID.TID 0000.0001) %MON dynstat_eta_sd               =   5.9704663773038E-01
(PID.TID 0000.0001) %MON dynstat_eta_del2             =   7.8380450028333E-04
(PID.TID 0000.0001) %MON dynstat_uvel_max             =   1.8637764784101E-01
(PID.TID 0000.0001) %MON dynstat_uvel_min             =  -2.8226693737896E-01
(PID.TID 0000.0001) %MON dynstat_uvel_mean            =  -4.8339335291157E-04
(PID.TID 0000.0001) %MON dynstat_uvel_sd              =   1.2015222549888E-02
(PID.TID 0000.0001) %MON dynstat_uvel_del2            =   5.0864467081609E-05
(PID.TID 0000.0001) %MON dynstat_vvel_max             =   1.7346884811377E-01
(PID.TID 0000.0001) %MON dynstat_vvel_min             =  -2.2429890438406E-01
(PID.TID 0000.0001) %MON dynstat_vvel_mean            =  -3.9990553316285E-04
(PID.TID 0000.0001) %MON dynstat_vvel_sd              =   1.2665340043756E-02
(PID.TID 0000.0001) %MON dynstat_vvel_del2            =   5.0164868789740E-05
(PID.TID 0000.0001) %MON dynstat_wvel_max             =   1.0966633283574E-04
(PID.TID 0000.0001) %MON dynstat_wvel_min             =  -2.0507282488432E-04
(PID.TID 0000.0001) %MON dynstat_wvel_mean            =   1.7809848659886E-10
(PID.TID 0000.0001) %MON dynstat_wvel_sd              =   3.8334401879531E-06
(PID.TID 0000.0001) %MON dynstat_wvel_del2            =   2.6942749290996E-08
(PID.TID 0000.0001) %MON dynstat_theta_max            =   3.1049585280865E+01
(PID.TID 0000.0001) %MON dynstat_theta_min            =  -2.0611396909206E+00
(PID.TID 0000.0001) %MON dynstat_theta_mean           =   3.9099568732220E+00
(PID.TID 0000.0001) %MON dynstat_theta_sd             =   4.5712065019263E+00
(PID.TID 0000.0001) %MON dynstat_theta_del2           =   2.5276347821761E-03
(PID.TID 0000.0001) %MON dynstat_salt_max             =   4.1390592613271E+01
(PID.TID 0000.0001) %MON dynstat_salt_min             =   1.8388626482847E+01
(PID.TID 0000.0001) %MON dynstat_salt_mean            =   3.4772075020527E+01
(PID.TID 0000.0001) %MON dynstat_salt_sd              =   5.3120510504982E-01
(PID.TID 0000.0001) %MON dynstat_salt_del2            =   7.6754249074513E-04
(PID.TID 0000.0001) %MON forcing_qnet_max             =   4.5222027555240E+02
(PID.TID 0000.0001) %MON forcing_qnet_min             =  -2.0475234489479E+02
(PID.TID 0000.0001) %MON forcing_qnet_mean            =  -1.2304791184004E+01
(PID.TID 0000.0001) %MON forcing_qnet_sd              =   1.1350821078146E+02
(PID.TID 0000.0001) %MON forcing_qnet_del2            =   4.3821832929352E-01
(PID.TID 0000.0001) %MON forcing_qsw_max              =   0.0000000000000E+00
(PID.TID 0000.0001) %MON forcing_qsw_min              =   0.0000000000000E+00
(PID.TID 0000.0001) %MON forcing_qsw_mean             =   0.0000000000000E+00
(PID.TID 0000.0001) %MON forcing_qsw_sd               =   0.0000000000000E+00
(PID.TID 0000.0001) %MON forcing_qsw_del2             =   0.0000000000000E+00
(PID.TID 0000.0001) %MON forcing_empmr_max            =   7.6494447208479E-05
(PID.TID 0000.0001) %MON forcing_empmr_min            =  -1.5362614137596E-04
(PID.TID 0000.0001) %MON forcing_empmr_mean           =  -2.7256318706594E-21
(PID.TID 0000.0001) %MON forcing_empmr_sd             =   2.4051723601802E-05
(PID.TID 0000.0001) %MON forcing_empmr_del2           =   1.2276157049243E-07
(PID.TID 0000.0001) %MON forcing_fu_max               =   2.4839906243671E-01
(PID.TID 0000.0001) %MON forcing_fu_min               =  -2.4462500977759E-01
(PID.TID 0000.0001) %MON forcing_fu_mean              =  -3.9826545003281E-03
(PID.TID 0000.0001) %MON forcing_fu_sd                =   6.5104931934298E-02
(PID.TID 0000.0001) %MON forcing_fu_del2              =   2.2499056699550E-04
(PID.TID 0000.0001) %MON forcing_fv_max               =   2.8769312088010E-01
(PID.TID 0000.0001) %MON forcing_fv_min               =  -3.3716267516111E-01
(PID.TID 0000.0001) %MON forcing_fv_mean              =  -1.3735533615913E-02
(PID.TID 0000.0001) %MON forcing_fv_sd                =   7.6464336061349E-02
(PID.TID 0000.0001) %MON forcing_fv_del2              =   2.5132568855654E-04
(PID.TID 0000.0001) %MON advcfl_uvel_max              =   8.0056257673722E-02
(PID.TID 0000.0001) %MON advcfl_vvel_max              =   7.5612627026505E-02
(PID.TID 0000.0001) %MON advcfl_wvel_max              =   6.6861479509454E-02
(PID.TID 0000.0001) %MON advcfl_W_hf_max              =   7.3854096248484E-02
(PID.TID 0000.0001) %MON pe_b_mean                    =   4.7487683719748E-04
(PID.TID 0000.0001) %MON ke_max                       =   3.8976715836490E-02
(PID.TID 0000.0001) %MON ke_mean                      =   1.4092332336814E-04
(PID.TID 0000.0001) %MON ke_vol                       =   1.3398024453628E+18
(PID.TID 0000.0001) %MON vort_r_min                   =  -1.2486692782968E-06
(PID.TID 0000.0001) %MON vort_r_max                   =   1.2481388795141E-06
(PID.TID 0000.0001) %MON vort_a_mean                  =  -2.0493733748264E-05
(PID.TID 0000.0001) %MON vort_a_sd                    =   7.5053945843270E-05
(PID.TID 0000.0001) %MON vort_p_mean                  =  -2.4715773617279E-05
(PID.TID 0000.0001) %MON vort_p_sd                    =   1.2777070042188E-04
(PID.TID 0000.0001) %MON surfExpan_theta_mean         =   5.0016365716313E-08
(PID.TID 0000.0001) %MON surfExpan_salt_mean          =   1.4146786275570E-08
(PID.TID 0000.0001) // =======================================================
(PID.TID 0000.0001) // End MONITOR dynamic field statistics
(PID.TID 0000.0001) // =======================================================
 cg2d: Sum(rhs),rhsMax =  -9.57811607804615E-12  4.22703969239150E+00
(PID.TID 0000.0001)                    cg2d_init_res =    4.30039845745096E-01
(PID.TID 0000.0001)                       cg2d_iters =    63
(PID.TID 0000.0001)                         cg2d_res =    5.44086937437376E-07
(PID.TID 0000.0001) // =======================================================
(PID.TID 0000.0001) // Begin MONITOR dynamic field statistics
(PID.TID 0000.0001) // =======================================================
(PID.TID 0000.0001) %MON time_tsnumber                =                 72015
(PID.TID 0000.0001) %MON time_secondsf                =   6.2220960000000E+09
(PID.TID 0000.0001) %MON dynstat_eta_max              =   8.9883475153671E-01
(PID.TID 0000.0001) %MON dynstat_eta_min              =  -1.6126511712488E+00
(PID.TID 0000.0001) %MON dynstat_eta_mean             =   1.4400085136058E-14
(PID.TID 0000.0001) %MON dynstat_eta_sd               =   5.9696172602815E-01
(PID.TID 0000.0001) %MON dynstat_eta_del2             =   7.8363350298735E-04
(PID.TID 0000.0001) %MON dynstat_uvel_max             =   1.8592400600653E-01
(PID.TID 0000.0001) %MON dynstat_uvel_min             =  -2.8173956302355E-01
(PID.TID 0000.0001) %MON dynstat_uvel_mean            =  -4.8266103344571E-04
(PID.TID 0000.0001) %MON dynstat_uvel_sd              =   1.2015311592746E-02
(PID.TID 0000.0001) %MON dynstat_uvel_del2            =   5.0838944948044E-05
(PID.TID 0000.0001) %MON dynstat_vvel_max             =   1.7311592641504E-01
(PID.TID 0000.0001) %MON dynstat_vvel_min             =  -2.2419512872730E-01
(PID.TID 0000.0001) %MON dynstat_vvel_mean            =  -3.9951299133222E-04
(PID.TID 0000.0001) %MON dynstat_vvel_sd              =   1.2664180187367E-02
(PID.TID 0000.0001) %MON dynstat_vvel_del2            =   5.0131991284712E-05
(PID.TID 0000.0001) %MON dynstat_wvel_max             =   1.1021746667786E-04
(PID.TID 0000.0001) %MON dynstat_wvel_min             =  -2.0468410746439E-04
(PID.TID 0000.0001) %MON dynstat_wvel_mean            =   1.6464366824080E-10
(PID.TID 0000.0001) %MON dynstat_wvel_sd              =   3.8344955318438E-06
(PID.TID 0000.0001) %MON dynstat_wvel_del2            =   2.6988480690654E-08
(PID.TID 0000.0001) %MON dynstat_theta_max            =   3.1055937100874E+01
(PID.TID 0000.0001) %MON dynstat_theta_min            =  -2.0660439969028E+00
(PID.TID 0000.0001) %MON dynstat_theta_mean           =   3.9100179024846E+00
(PID.TID 0000.0001) %MON dynstat_theta_sd             =   4.5712636352163E+00
(PID.TID 0000.0001) %MON dynstat_theta_del2           =   2.5230372080278E-03
(PID.TID 0000.0001) %MON dynstat_salt_max             =   4.1390774494887E+01
(PID.TID 0000.0001) %MON dynstat_salt_min             =   1.8389042124900E+01
(PID.TID 0000.0001) %MON dynstat_salt_mean            =   3.4772075588933E+01
(PID.TID 0000.0001) %MON dynstat_salt_sd              =   5.3118656786674E-01
(PID.TID 0000.0001) %MON dynstat_salt_del2            =   7.6566497505291E-04
(PID.TID 0000.0001) %MON forcing_qnet_max             =   4.5655909646370E+02
(PID.TID 0000.0001) %MON forcing_qnet_min             =  -2.0442805701094E+02
(PID.TID 0000.0001) %MON forcing_qnet_mean            =  -1.2317019552647E+01
(PID.TID 0000.0001) %MON forcing_qnet_sd              =   1.1339064702855E+02
(PID.TID 0000.0001) %MON forcing_qnet_del2            =   4.4067508217007E-01
(PID.TID 0000.0001) %MON forcing_qsw_max              =   0.0000000000000E+00
(PID.TID 0000.0001) %MON forcing_qsw_min              =   0.0000000000000E+00
(PID.TID 0000.0001) %MON forcing_qsw_mean             =   0.0000000000000E+00
(PID.TID 0000.0001) %MON forcing_qsw_sd               =   0.0000000000000E+00
(PID.TID 0000.0001) %MON forcing_qsw_del2             =   0.0000000000000E+00
(PID.TID 0000.0001) %MON forcing_empmr_max            =   7.6494447208479E-05
(PID.TID 0000.0001) %MON forcing_empmr_min            =  -1.5362614137596E-04
(PID.TID 0000.0001) %MON forcing_empmr_mean           =  -2.7256318706594E-21
(PID.TID 0000.0001) %MON forcing_empmr_sd             =   2.4051723601802E-05
(PID.TID 0000.0001) %MON forcing_empmr_del2           =   1.2276157049243E-07
(PID.TID 0000.0001) %MON forcing_fu_max               =   2.4866343693550E-01
(PID.TID 0000.0001) %MON forcing_fu_min               =  -2.4810804207900E-01
(PID.TID 0000.0001) %MON forcing_fu_mean              =  -3.9391755645947E-03
(PID.TID 0000.0001) %MON forcing_fu_sd                =   6.5286328792105E-02
(PID.TID 0000.0001) %MON forcing_fu_del2              =   2.2797906587778E-04
(PID.TID 0000.0001) %MON forcing_fv_max               =   2.9037636245273E-01
(PID.TID 0000.0001) %MON forcing_fv_min               =  -3.3795057909504E-01
(PID.TID 0000.0001) %MON forcing_fv_mean              =  -1.3739459161841E-02
(PID.TID 0000.0001) %MON forcing_fv_sd                =   7.6635516474945E-02
(PID.TID 0000.0001) %MON forcing_fv_del2              =   2.5394204351914E-04
(PID.TID 0000.0001) %MON advcfl_uvel_max              =   7.9906684302928E-02
(PID.TID 0000.0001) %MON advcfl_vvel_max              =   7.5458793430063E-02
(PID.TID 0000.0001) %MON advcfl_wvel_max              =   6.6734742961976E-02
(PID.TID 0000.0001) %MON advcfl_W_hf_max              =   7.3714127320835E-02
(PID.TID 0000.0001) %MON pe_b_mean                    =   4.7474177326540E-04
(PID.TID 0000.0001) %MON ke_max                       =   3.8830193286291E-02
(PID.TID 0000.0001) %MON ke_mean                      =   1.4091022247687E-04
(PID.TID 0000.0001) %MON ke_vol                       =   1.3398024453628E+18
(PID.TID 0000.0001) %MON vort_r_min                   =  -1.2532311239509E-06
(PID.TID 0000.0001) %MON vort_r_max                   =   1.2505084162790E-06
(PID.TID 0000.0001) %MON vort_a_mean                  =  -2.0493733748264E-05
(PID.TID 0000.0001) %MON vort_a_sd                    =   7.5053945747731E-05
(PID.TID 0000.0001) %MON vort_p_mean                  =  -2.4715773628667E-05
(PID.TID 0000.0001) %MON vort_p_sd                    =   1.2777069560994E-04
(PID.TID 0000.0001) %MON surfExpan_theta_mean         =   4.9867262546499E-08
(PID.TID 0000.0001) %MON surfExpan_salt_mean          =   1.4173762521058E-08
(PID.TID 0000.0001) // =======================================================
(PID.TID 0000.0001) // End MONITOR dynamic field statistics
(PID.TID 0000.0001) // =======================================================
 EXTERNAL_FIELDS_LOAD, it=     72015 : Reading new data, i0,i1=    1    2 (prev=   12    1 )
 cg2d: Sum(rhs),rhsMax =  -9.37916411203332E-12  4.22552624914725E+00
(PID.TID 0000.0001)                    cg2d_init_res =    4.29659092959362E-01
(PID.TID 0000.0001)                       cg2d_iters =    63
(PID.TID 0000.0001)                         cg2d_res =    5.47645561733236E-07
(PID.TID 0000.0001) // =======================================================
(PID.TID 0000.0001) // Begin MONITOR dynamic field statistics
(PID.TID 0000.0001) // =======================================================
(PID.TID 0000.0001) %MON time_tsnumber                =                 72016
(PID.TID 0000.0001) %MON time_secondsf                =   6.2221824000000E+09
(PID.TID 0000.0001) %MON dynstat_eta_max              =   8.9765041004935E-01
(PID.TID 0000.0001) %MON dynstat_eta_min              =  -1.6120625602651E+00
(PID.TID 0000.0001) %MON dynstat_eta_mean             =   1.4207717586531E-14
(PID.TID 0000.0001) %MON dynstat_eta_sd               =   5.9687950841641E-01
(PID.TID 0000.0001) %MON dynstat_eta_del2             =   7.8349244380546E-04
(PID.TID 0000.0001) %MON dynstat_uvel_max             =   1.8542828334445E-01
(PID.TID 0000.0001) %MON dynstat_uvel_min             =  -2.8120143991722E-01
(PID.TID 0000.0001) %MON dynstat_uvel_mean            =  -4.8192395299407E-04
(PID.TID 0000.0001) %MON dynstat_uvel_sd              =   1.2015444516253E-02
(PID.TID 0000.0001) %MON dynstat_uvel_del2            =   5.0814824443475E-05
(PID.TID 0000.0001) %MON dynstat_vvel_max             =   1.7273198679553E-01
(PID.TID 0000.0001) %MON dynstat_vvel_min             =  -2.2408813811325E-01
(PID.TID 0000.0001) %MON dynstat_vvel_mean            =  -3.9908596417775E-04
(PID.TID 0000.0001) %MON dynstat_vvel_sd              =   1.2662570955523E-02
(PID.TID 0000.0001) %MON dynstat_vvel_del2            =   5.0099380534900E-05
(PID.TID 0000.0001) %MON dynstat_wvel_max             =   1.1072009718641E-04
(PID.TID 0000.0001) %MON dynstat_wvel_min             =  -2.0423532483521E-04
(PID.TID 0000.0001) %MON dynstat_wvel_mean            =   1.4476596506479E-10
(PID.TID 0000.0001) %MON dynstat_wvel_sd              =   3.8354558773989E-06
(PID.TID 0000.0001) %MON dynstat_wvel_del2            =   2.7030299508689E-08
(PID.TID 0000.0001) %MON dynstat_theta_max            =   3.1062051724364E+01
(PID.TID 0000.0001) %MON dynstat_theta_min            =  -2.0709667198556E+00
(PID.TID 0000.0001) %MON dynstat_theta_mean           =   3.9100791121102E+00
(PID.TID 0000.0001) %MON dynstat_theta_sd             =   4.5713292289376E+00
(PID.TID 0000.0001) %MON dynstat_theta_del2           =   2.5167211714883E-03
(PID.TID 0000.0001) %MON dynstat_salt_max             =   4.1390939598697E+01
(PID.TID 0000.0001) %MON dynstat_salt_min             =   1.8389463463967E+01
(PID.TID 0000.0001) %MON dynstat_salt_mean            =   3.4772076171785E+01
(PID.TID 0000.0001) %MON dynstat_salt_sd              =   5.3116858138499E-01
(PID.TID 0000.0001) %MON dynstat_salt_del2            =   7.6337917025876E-04
(PID.TID 0000.0001) %MON forcing_qnet_max             =   4.6211611868841E+02
(PID.TID 0000.0001) %MON forcing_qnet_min             =  -2.0410376912710E+02
(PID.TID 0000.0001) %MON forcing_qnet_mean            =  -1.2329247921290E+01
(PID.TID 0000.0001) %MON forcing_qnet_sd              =   1.1327998988989E+02
(PID.TID 0000.0001) %MON forcing_qnet_del2            =   4.4323506322358E-01
(PID.TID 0000.0001) %MON forcing_qsw_max              =   0.0000000000000E+00
(PID.TID 0000.0001) %MON forcing_qsw_min              =   0.0000000000000E+00
(PID.TID 0000.0001) %MON forcing_qsw_mean             =   0.0000000000000E+00
(PID.TID 0000.0001) %MON forcing_qsw_sd               =   0.0000000000000E+00
(PID.TID 0000.0001) %MON forcing_qsw_del2             =   0.0000000000000E+00
(PID.TID 0000.0001) %MON forcing_empmr_max            =   7.6494447208479E-05
(PID.TID 0000.0001) %MON forcing_empmr_min            =  -1.5362614137596E-04
(PID.TID 0000.0001) %MON forcing_empmr_mean           =  -2.7256318706594E-21
(PID.TID 0000.0001) %MON forcing_empmr_sd             =   2.4051723601802E-05
(PID.TID 0000.0001) %MON forcing_empmr_del2           =   1.2276157049243E-07
(PID.TID 0000.0001) %MON forcing_fu_max               =   2.4892781143428E-01
(PID.TID 0000.0001) %MON forcing_fu_min               =  -2.5159107438040E-01
(PID.TID 0000.0001) %MON forcing_fu_mean              =  -3.8956966288612E-03
(PID.TID 0000.0001) %MON forcing_fu_sd                =   6.5480383395885E-02
(PID.TID 0000.0001) %MON forcing_fu_del2              =   2.3114393556995E-04
(PID.TID 0000.0001) %MON forcing_fv_max               =   2.9305960402537E-01
(PID.TID 0000.0001) %MON forcing_fv_min               =  -3.3950131228473E-01
(PID.TID 0000.0001) %MON forcing_fv_mean              =  -1.3743384707768E-02
(PID.TID 0000.0001) %MON forcing_fv_sd                =   7.6816469815204E-02
(PID.TID 0000.0001) %MON forcing_fv_del2              =   2.5671701728584E-04
(PID.TID 0000.0001) %MON advcfl_uvel_max              =   7.9754062382486E-02
(PID.TID 0000.0001) %MON advcfl_vvel_max              =   7.5291439558945E-02
(PID.TID 0000.0001) %MON advcfl_wvel_max              =   6.6588422889669E-02
(PID.TID 0000.0001) %MON advcfl_W_hf_max              =   7.3552529300782E-02
(PID.TID 0000.0001) %MON pe_b_mean                    =   4.7461101296636E-04
(PID.TID 0000.0001) %MON ke_max                       =   3.8680957537055E-02
(PID.TID 0000.0001) %MON ke_mean                      =   1.4089231327675E-04
(PID.TID 0000.0001) %MON ke_vol                       =   1.3398024453628E+18
(PID.TID 0000.0001) %MON vort_r_min                   =  -1.2576513835657E-06
(PID.TID 0000.0001) %MON vort_r_max                   =   1.2525985702925E-06
(PID.TID 0000.0001) %MON vort_a_mean                  =  -2.0493733748264E-05
(PID.TID 0000.0001) %MON vort_a_sd                    =   7.5053945664652E-05
(PID.TID 0000.0001) %MON vort_p_mean                  =  -2.4715773637532E-05
(PID.TID 0000.0001) %MON vort_p_sd                    =   1.2777069092335E-04
(PID.TID 0000.0001) %MON surfExpan_theta_mean         =   4.9534522134537E-08
(PID.TID 0000.0001) %MON surfExpan_salt_mean          =   1.4197376384907E-08
(PID.TID 0000.0001) // =======================================================
(PID.TID 0000.0001) // End MONITOR dynamic field statistics
(PID.TID 0000.0001) // =======================================================
 cg2d: Sum(rhs),rhsMax =  -9.63495949690696E-12  4.22405606524942E+00
(PID.TID 0000.0001)                    cg2d_init_res =    4.26142454466188E-01
(PID.TID 0000.0001)                       cg2d_iters =    63
(PID.TID 0000.0001)                         cg2d_res =    5.32141930004228E-07
(PID.TID 0000.0001) // =======================================================
(PID.TID 0000.0001) // Begin MONITOR dynamic field statistics
(PID.TID 0000.0001) // =======================================================
(PID.TID 0000.0001) %MON time_tsnumber                =                 72017
(PID.TID 0000.0001) %MON time_secondsf                =   6.2222688000000E+09
(PID.TID 0000.0001) %MON dynstat_eta_max              =   8.9652127910126E-01
(PID.TID 0000.0001) %MON dynstat_eta_min              =  -1.6113957878437E+00
(PID.TID 0000.0001) %MON dynstat_eta_mean             =   1.4317641900547E-14
(PID.TID 0000.0001) %MON dynstat_eta_sd               =   5.9679548764873E-01
(PID.TID 0000.0001) %MON dynstat_eta_del2             =   7.8336521111142E-04
(PID.TID 0000.0001) %MON dynstat_uvel_max             =   1.8537123613828E-01
(PID.TID 0000.0001) %MON dynstat_uvel_min             =  -2.8065810171808E-01
(PID.TID 0000.0001) %MON dynstat_uvel_mean            =  -4.8122763380018E-04
(PID.TID 0000.0001) %MON dynstat_uvel_sd              =   1.2015612251157E-02
(PID.TID 0000.0001) %MON dynstat_uvel_del2            =   5.0790745686402E-05
(PID.TID 0000.0001) %MON dynstat_vvel_max             =   1.7231961025927E-01
(PID.TID 0000.0001) %MON dynstat_vvel_min             =  -2.2396965941755E-01
(PID.TID 0000.0001) %MON dynstat_vvel_mean            =  -3.9865367105741E-04
(PID.TID 0000.0001) %MON dynstat_vvel_sd              =   1.2659997717303E-02
(PID.TID 0000.0001) %MON dynstat_vvel_del2            =   5.0066835538142E-05
(PID.TID 0000.0001) %MON dynstat_wvel_max             =   1.1116215317034E-04
(PID.TID 0000.0001) %MON dynstat_wvel_min             =  -2.0371706756698E-04
(PID.TID 0000.0001) %MON dynstat_wvel_mean            =   1.0652368727183E-10
(PID.TID 0000.0001) %MON dynstat_wvel_sd              =   3.8361890866650E-06
(PID.TID 0000.0001) %MON dynstat_wvel_del2            =   2.7066428438946E-08
(PID.TID 0000.0001) %MON dynstat_theta_max            =   3.1067750413506E+01
(PID.TID 0000.0001) %MON dynstat_theta_min            =  -2.0759301361592E+00
(PID.TID 0000.0001) %MON dynstat_theta_mean           =   3.9101410744938E+00
(PID.TID 0000.0001) %MON dynstat_theta_sd             =   4.5714043927910E+00
(PID.TID 0000.0001) %MON dynstat_theta_del2           =   2.5101554561361E-03
(PID.TID 0000.0001) %MON dynstat_salt_max             =   4.1391103459888E+01
(PID.TID 0000.0001) %MON dynstat_salt_min             =   1.8389885770618E+01
(PID.TID 0000.0001) %MON dynstat_salt_mean            =   3.4772076769714E+01
(PID.TID 0000.0001) %MON dynstat_salt_sd              =   5.3114968773443E-01
(PID.TID 0000.0001) %MON dynstat_salt_del2            =   7.6138020842961E-04
(PID.TID 0000.0001) %MON forcing_qnet_max             =   4.5753071201305E+02
(PID.TID 0000.0001) %MON forcing_qnet_min             =  -2.0101909770688E+02
(PID.TID 0000.0001) %MON forcing_qnet_mean            =  -1.2374912456645E+01
(PID.TID 0000.0001) %MON forcing_qnet_sd              =   1.1223184124370E+02
(PID.TID 0000.0001) %MON forcing_qnet_del2            =   4.4119059898150E-01
(PID.TID 0000.0001) %MON forcing_qsw_max              =   0.0000000000000E+00
(PID.TID 0000.0001) %MON forcing_qsw_min              =   0.0000000000000E+00
(PID.TID 0000.0001) %MON forcing_qsw_mean             =   0.0000000000000E+00
(PID.TID 0000.0001) %MON forcing_qsw_sd               =   0.0000000000000E+00
(PID.TID 0000.0001) %MON forcing_qsw_del2             =   0.0000000000000E+00
(PID.TID 0000.0001) %MON forcing_empmr_max            =   7.6494447208479E-05
(PID.TID 0000.0001) %MON forcing_empmr_min            =  -1.5362614137596E-04
(PID.TID 0000.0001) %MON forcing_empmr_mean           =  -2.7256318706594E-21
(PID.TID 0000.0001) %MON forcing_empmr_sd             =   2.4051723601802E-05
(PID.TID 0000.0001) %MON forcing_empmr_del2           =   1.2276157049243E-07
(PID.TID 0000.0001) %MON forcing_fu_max               =   2.4586080052368E-01
(PID.TID 0000.0001) %MON forcing_fu_min               =  -2.4690104382675E-01
(PID.TID 0000.0001) %MON forcing_fu_mean              =  -3.9278253198990E-03
(PID.TID 0000.0001) %MON forcing_fu_sd                =   6.5282090105345E-02
(PID.TID 0000.0001) %MON forcing_fu_del2              =   2.2765741152947E-04
(PID.TID 0000.0001) %MON forcing_fv_max               =   2.9225622243089E-01
(PID.TID 0000.0001) %MON forcing_fv_min               =  -3.3606226010595E-01
(PID.TID 0000.0001) %MON forcing_fv_mean              =  -1.3741594714266E-02
(PID.TID 0000.0001) %MON forcing_fv_sd                =   7.6550053729987E-02
(PID.TID 0000.0001) %MON forcing_fv_del2              =   2.5418174123344E-04
(PID.TID 0000.0001) %MON advcfl_uvel_max              =   7.9599961362797E-02
(PID.TID 0000.0001) %MON advcfl_vvel_max              =   7.5111690436436E-02
(PID.TID 0000.0001) %MON advcfl_wvel_max              =   6.6419451463347E-02
(PID.TID 0000.0001) %MON advcfl_W_hf_max              =   7.3365912497399E-02
(PID.TID 0000.0001) %MON pe_b_mean                    =   4.7447740350445E-04
(PID.TID 0000.0001) %MON ke_max                       =   3.8532196431726E-02
(PID.TID 0000.0001) %MON ke_mean                      =   1.4086348263648E-04
(PID.TID 0000.0001) %MON ke_vol                       =   1.3398024453628E+18
(PID.TID 0000.0001) %MON vort_r_min                   =  -1.2617057934340E-06
(PID.TID 0000.0001) %MON vort_r_max                   =   1.2541394475454E-06
(PID.TID 0000.0001) %MON vort_a_mean                  =  -2.0493733748264E-05
(PID.TID 0000.0001) %MON vort_a_sd                    =   7.5053945591442E-05
(PID.TID 0000.0001) %MON vort_p_mean                  =  -2.4715773641359E-05
(PID.TID 0000.0001) %MON vort_p_sd                    =   1.2777068641808E-04
(PID.TID 0000.0001) %MON surfExpan_theta_mean         =   4.8980769846747E-08
(PID.TID 0000.0001) %MON surfExpan_salt_mean          =   1.4243313904699E-08
(PID.TID 0000.0001) // =======================================================
(PID.TID 0000.0001) // End MONITOR dynamic field statistics
(PID.TID 0000.0001) // =======================================================
 cg2d: Sum(rhs),rhsMax =  -9.72022462519817E-12  4.22287762053097E+00
(PID.TID 0000.0001)                    cg2d_init_res =    4.27479172746239E-01
(PID.TID 0000.0001)                       cg2d_iters =    63
(PID.TID 0000.0001)                         cg2d_res =    5.27341221016034E-07
(PID.TID 0000.0001) // =======================================================
(PID.TID 0000.0001) // Begin MONITOR dynamic field statistics
(PID.TID 0000.0001) // =======================================================
(PID.TID 0000.0001) %MON time_tsnumber                =                 72018
(PID.TID 0000.0001) %MON time_secondsf                =   6.2223552000000E+09
(PID.TID 0000.0001) %MON dynstat_eta_max              =   8.9541797607096E-01
(PID.TID 0000.0001) %MON dynstat_eta_min              =  -1.6107506556694E+00
(PID.TID 0000.0001) %MON dynstat_eta_mean             =   1.4372604057554E-14
(PID.TID 0000.0001) %MON dynstat_eta_sd               =   5.9671567453200E-01
(PID.TID 0000.0001) %MON dynstat_eta_del2             =   7.8331523660542E-04
(PID.TID 0000.0001) %MON dynstat_uvel_max             =   1.8535711179582E-01
(PID.TID 0000.0001) %MON dynstat_uvel_min             =  -2.8010616223331E-01
(PID.TID 0000.0001) %MON dynstat_uvel_mean            =  -4.8055853294231E-04
(PID.TID 0000.0001) %MON dynstat_uvel_sd              =   1.2015701526069E-02
(PID.TID 0000.0001) %MON dynstat_uvel_del2            =   5.0767546414373E-05
(PID.TID 0000.0001) %MON dynstat_vvel_max             =   1.7188144069064E-01
(PID.TID 0000.0001) %MON dynstat_vvel_min             =  -2.2384610941607E-01
(PID.TID 0000.0001) %MON dynstat_vvel_mean            =  -3.9821450116984E-04
(PID.TID 0000.0001) %MON dynstat_vvel_sd              =   1.2656848586526E-02
(PID.TID 0000.0001) %MON dynstat_vvel_del2            =   5.0034091194742E-05
(PID.TID 0000.0001) %MON dynstat_wvel_max             =   1.1153465421729E-04
(PID.TID 0000.0001) %MON dynstat_wvel_min             =  -2.0313911139978E-04
(PID.TID 0000.0001) %MON dynstat_wvel_mean            =   7.7130199160305E-11
(PID.TID 0000.0001) %MON dynstat_wvel_sd              =   3.8366242102323E-06
(PID.TID 0000.0001) %MON dynstat_wvel_del2            =   2.7098428435668E-08
(PID.TID 0000.0001) %MON dynstat_theta_max            =   3.1073038327285E+01
(PID.TID 0000.0001) %MON dynstat_theta_min            =  -2.0809315301531E+00
(PID.TID 0000.0001) %MON dynstat_theta_mean           =   3.9102036990887E+00
(PID.TID 0000.0001) %MON dynstat_theta_sd             =   4.5714927002718E+00
(PID.TID 0000.0001) %MON dynstat_theta_del2           =   2.5089042281331E-03
(PID.TID 0000.0001) %MON dynstat_salt_max             =   4.1391267987524E+01
(PID.TID 0000.0001) %MON dynstat_salt_min             =   1.8390308791968E+01
(PID.TID 0000.0001) %MON dynstat_salt_mean            =   3.4772077382734E+01
(PID.TID 0000.0001) %MON dynstat_salt_sd              =   5.3113148922227E-01
(PID.TID 0000.0001) %MON dynstat_salt_del2            =   7.5989771931906E-04
(PID.TID 0000.0001) %MON forcing_qnet_max             =   4.5294530533769E+02
(PID.TID 0000.0001) %MON forcing_qnet_min             =  -1.9793442628666E+02
(PID.TID 0000.0001) %MON forcing_qnet_mean            =  -1.2420576992001E+01
(PID.TID 0000.0001) %MON forcing_qnet_sd              =   1.1119236898197E+02
(PID.TID 0000.0001) %MON forcing_qnet_del2            =   4.3924090499131E-01
(PID.TID 0000.0001) %MON forcing_qsw_max              =   0.0000000000000E+00
(PID.TID 0000.0001) %MON forcing_qsw_min              =   0.0000000000000E+00
(PID.TID 0000.0001) %MON forcing_qsw_mean             =   0.0000000000000E+00
(PID.TID 0000.0001) %MON forcing_qsw_sd               =   0.0000000000000E+00
(PID.TID 0000.0001) %MON forcing_qsw_del2             =   0.0000000000000E+00
(PID.TID 0000.0001) %MON forcing_empmr_max            =   7.6494447208479E-05
(PID.TID 0000.0001) %MON forcing_empmr_min            =  -1.5362614137596E-04
(PID.TID 0000.0001) %MON forcing_empmr_mean           =  -2.7256318706594E-21
(PID.TID 0000.0001) %MON forcing_empmr_sd             =   2.4051723601802E-05
(PID.TID 0000.0001) %MON forcing_empmr_del2           =   1.2276157049243E-07
(PID.TID 0000.0001) %MON forcing_fu_max               =   2.4279378961307E-01
(PID.TID 0000.0001) %MON forcing_fu_min               =  -2.4221101327311E-01
(PID.TID 0000.0001) %MON forcing_fu_mean              =  -3.9599540109368E-03
(PID.TID 0000.0001) %MON forcing_fu_sd                =   6.5097565012911E-02
(PID.TID 0000.0001) %MON forcing_fu_del2              =   2.2436904772888E-04
(PID.TID 0000.0001) %MON forcing_fv_max               =   2.9145284083641E-01
(PID.TID 0000.0001) %MON forcing_fv_min               =  -3.3262320792717E-01
(PID.TID 0000.0001) %MON forcing_fv_mean              =  -1.3739804720763E-02
(PID.TID 0000.0001) %MON forcing_fv_sd                =   7.6299912613877E-02
(PID.TID 0000.0001) %MON forcing_fv_del2              =   2.5181803534899E-04
(PID.TID 0000.0001) %MON advcfl_uvel_max              =   7.9443420855350E-02
(PID.TID 0000.0001) %MON advcfl_vvel_max              =   7.4920698494496E-02
(PID.TID 0000.0001) %MON advcfl_wvel_max              =   6.6231015943174E-02
(PID.TID 0000.0001) %MON advcfl_W_hf_max              =   7.3157798944848E-02
(PID.TID 0000.0001) %MON pe_b_mean                    =   4.7435050245070E-04
(PID.TID 0000.0001) %MON ke_max                       =   3.8381810879241E-02
(PID.TID 0000.0001) %MON ke_mean                      =   1.4082703870515E-04
(PID.TID 0000.0001) %MON ke_vol                       =   1.3398024453628E+18
(PID.TID 0000.0001) %MON vort_r_min                   =  -1.2655319057352E-06
(PID.TID 0000.0001) %MON vort_r_max                   =   1.2552831570836E-06
(PID.TID 0000.0001) %MON vort_a_mean                  =  -2.0493733748264E-05
(PID.TID 0000.0001) %MON vort_a_sd                    =   7.5053945531578E-05
(PID.TID 0000.0001) %MON vort_p_mean                  =  -2.4715773637634E-05
(PID.TID 0000.0001) %MON vort_p_sd                    =   1.2777068206765E-04
(PID.TID 0000.0001) %MON surfExpan_theta_mean         =   4.8395954585213E-08
(PID.TID 0000.0001) %MON surfExpan_salt_mean          =   1.4330492281286E-08
(PID.TID 0000.0001) // =======================================================
(PID.TID 0000.0001) // End MONITOR dynamic field statistics
(PID.TID 0000.0001) // =======================================================
 cg2d: Sum(rhs),rhsMax =  -9.46442924032453E-12  4.22169095170633E+00
(PID.TID 0000.0001)                    cg2d_init_res =    4.24194343496238E-01
(PID.TID 0000.0001)                       cg2d_iters =    63
(PID.TID 0000.0001)                         cg2d_res =    5.27510895077199E-07
(PID.TID 0000.0001) // =======================================================
(PID.TID 0000.0001) // Begin MONITOR dynamic field statistics
(PID.TID 0000.0001) // =======================================================
(PID.TID 0000.0001) %MON time_tsnumber                =                 72019
(PID.TID 0000.0001) %MON time_secondsf                =   6.2224416000000E+09
(PID.TID 0000.0001) %MON dynstat_eta_max              =   8.9433484704698E-01
(PID.TID 0000.0001) %MON dynstat_eta_min              =  -1.6101043190882E+00
(PID.TID 0000.0001) %MON dynstat_eta_mean             =   1.4097793272515E-14
(PID.TID 0000.0001) %MON dynstat_eta_sd               =   5.9663895126551E-01
(PID.TID 0000.0001) %MON dynstat_eta_del2             =   7.8328464122237E-04
(PID.TID 0000.0001) %MON dynstat_uvel_max             =   1.8527638317630E-01
(PID.TID 0000.0001) %MON dynstat_uvel_min             =  -2.7954668846747E-01
(PID.TID 0000.0001) %MON dynstat_uvel_mean            =  -4.7993056769359E-04
(PID.TID 0000.0001) %MON dynstat_uvel_sd              =   1.2015689691115E-02
(PID.TID 0000.0001) %MON dynstat_uvel_del2            =   5.0745035985510E-05
(PID.TID 0000.0001) %MON dynstat_vvel_max             =   1.7141996990582E-01
(PID.TID 0000.0001) %MON dynstat_vvel_min             =  -2.2371598905600E-01
(PID.TID 0000.0001) %MON dynstat_vvel_mean            =  -3.9775765853690E-04
(PID.TID 0000.0001) %MON dynstat_vvel_sd              =   1.2653134248562E-02
(PID.TID 0000.0001) %MON dynstat_vvel_del2            =   5.0001118734816E-05
(PID.TID 0000.0001) %MON dynstat_wvel_max             =   1.1182554201892E-04
(PID.TID 0000.0001) %MON dynstat_wvel_min             =  -2.0250279964831E-04
(PID.TID 0000.0001) %MON dynstat_wvel_mean            =   4.6130152001231E-11
(PID.TID 0000.0001) %MON dynstat_wvel_sd              =   3.8367239459596E-06
(PID.TID 0000.0001) %MON dynstat_wvel_del2            =   2.7126278683914E-08
(PID.TID 0000.0001) %MON dynstat_theta_max            =   3.1077917087455E+01
(PID.TID 0000.0001) %MON dynstat_theta_min            =  -2.0859763262154E+00
(PID.TID 0000.0001) %MON dynstat_theta_mean           =   3.9102669881707E+00
(PID.TID 0000.0001) %MON dynstat_theta_sd             =   4.5715910446973E+00
(PID.TID 0000.0001) %MON dynstat_theta_del2           =   2.5029725352842E-03
(PID.TID 0000.0001) %MON dynstat_salt_max             =   4.1391433078840E+01
(PID.TID 0000.0001) %MON dynstat_salt_min             =   1.8390732033023E+01
(PID.TID 0000.0001) %MON dynstat_salt_mean            =   3.4772078008184E+01
(PID.TID 0000.0001) %MON dynstat_salt_sd              =   5.3111280570750E-01
(PID.TID 0000.0001) %MON dynstat_salt_del2            =   7.5840626886848E-04
(PID.TID 0000.0001) %MON forcing_qnet_max             =   4.4835989866233E+02
(PID.TID 0000.0001) %MON forcing_qnet_min             =  -1.9586302274640E+02
(PID.TID 0000.0001) %MON forcing_qnet_mean            =  -1.2466241527356E+01
(PID.TID 0000.0001) %MON forcing_qnet_sd              =   1.1016181871259E+02
(PID.TID 0000.0001) %MON forcing_qnet_del2            =   4.3738724859626E-01
(PID.TID 0000.0001) %MON forcing_qsw_max              =   0.0000000000000E+00
(PID.TID 0000.0001) %MON forcing_qsw_min              =   0.0000000000000E+00
(PID.TID 0000.0001) %MON forcing_qsw_mean             =   0.0000000000000E+00
(PID.TID 0000.0001) %MON forcing_qsw_sd               =   0.0000000000000E+00
(PID.TID 0000.0001) %MON forcing_qsw_del2             =   0.0000000000000E+00
(PID.TID 0000.0001) %MON forcing_empmr_max            =   7.6494447208479E-05
(PID.TID 0000.0001) %MON forcing_empmr_min            =  -1.5362614137596E-04
(PID.TID 0000.0001) %MON forcing_empmr_mean           =  -2.7256318706594E-21
(PID.TID 0000.0001) %MON forcing_empmr_sd             =   2.4051723601802E-05
(PID.TID 0000.0001) %MON forcing_empmr_del2           =   1.2276157049243E-07
(PID.TID 0000.0001) %MON forcing_fu_max               =   2.3972677870247E-01
(PID.TID 0000.0001) %MON forcing_fu_min               =  -2.3770170012775E-01
(PID.TID 0000.0001) %MON forcing_fu_mean              =  -3.9920827019745E-03
(PID.TID 0000.0001) %MON forcing_fu_sd                =   6.4926925508109E-02
(PID.TID 0000.0001) %MON forcing_fu_del2              =   2.2128767840564E-04
(PID.TID 0000.0001) %MON forcing_fv_max               =   2.9064945924193E-01
(PID.TID 0000.0001) %MON forcing_fv_min               =  -3.2918415574839E-01
(PID.TID 0000.0001) %MON forcing_fv_mean              =  -1.3738014727260E-02
(PID.TID 0000.0001) %MON forcing_fv_sd                =   7.6066207026079E-02
(PID.TID 0000.0001) %MON forcing_fv_del2              =   2.4963077337507E-04
(PID.TID 0000.0001) %MON advcfl_uvel_max              =   7.9284743482873E-02
(PID.TID 0000.0001) %MON advcfl_vvel_max              =   7.4719549880693E-02
(PID.TID 0000.0001) %MON advcfl_wvel_max              =   6.6023554300430E-02
(PID.TID 0000.0001) %MON advcfl_W_hf_max              =   7.2928668835119E-02
(PID.TID 0000.0001) %MON pe_b_mean                    =   4.7422853018858E-04
(PID.TID 0000.0001) %MON ke_max                       =   3.8230499980325E-02
(PID.TID 0000.0001) %MON ke_mean                      =   1.4078286360958E-04
(PID.TID 0000.0001) %MON ke_vol                       =   1.3398024453628E+18
(PID.TID 0000.0001) %MON vort_r_min                   =  -1.2690714695796E-06
(PID.TID 0000.0001) %MON vort_r_max                   =   1.2559357424311E-06
(PID.TID 0000.0001) %MON vort_a_mean                  =  -2.0493733748264E-05
(PID.TID 0000.0001) %MON vort_a_sd                    =   7.5053945482638E-05
(PID.TID 0000.0001) %MON vort_p_mean                  =  -2.4715773621147E-05
(PID.TID 0000.0001) %MON vort_p_sd                    =   1.2777067782579E-04
(PID.TID 0000.0001) %MON surfExpan_theta_mean         =   4.7841815500980E-08
(PID.TID 0000.0001) %MON surfExpan_salt_mean          =   1.4451838821939E-08
(PID.TID 0000.0001) // =======================================================
(PID.TID 0000.0001) // End MONITOR dynamic field statistics
(PID.TID 0000.0001) // =======================================================
 cg2d: Sum(rhs),rhsMax =  -9.66338120633736E-12  4.22054741679644E+00
(PID.TID 0000.0001)                    cg2d_init_res =    4.20160120414794E-01
(PID.TID 0000.0001)                       cg2d_iters =    63
(PID.TID 0000.0001)                         cg2d_res =    5.06085763307832E-07
(PID.TID 0000.0001) // =======================================================
(PID.TID 0000.0001) // Begin MONITOR dynamic field statistics
(PID.TID 0000.0001) // =======================================================
(PID.TID 0000.0001) %MON time_tsnumber                =                 72020
(PID.TID 0000.0001) %MON time_secondsf                =   6.2225280000000E+09
(PID.TID 0000.0001) %MON dynstat_eta_max              =   8.9327252113729E-01
(PID.TID 0000.0001) %MON dynstat_eta_min              =  -1.6094604698712E+00
(PID.TID 0000.0001) %MON dynstat_eta_mean             =   1.4400085136058E-14
(PID.TID 0000.0001) %MON dynstat_eta_sd               =   5.9656592806451E-01
(PID.TID 0000.0001) %MON dynstat_eta_del2             =   7.8330263581833E-04
(PID.TID 0000.0001) %MON dynstat_uvel_max             =   1.8512593983652E-01
(PID.TID 0000.0001) %MON dynstat_uvel_min             =  -2.7897969032840E-01
(PID.TID 0000.0001) %MON dynstat_uvel_mean            =  -4.7933997117787E-04
(PID.TID 0000.0001) %MON dynstat_uvel_sd              =   1.2015521177534E-02
(PID.TID 0000.0001) %MON dynstat_uvel_del2            =   5.0723199069553E-05
(PID.TID 0000.0001) %MON dynstat_vvel_max             =   1.7093752105438E-01
(PID.TID 0000.0001) %MON dynstat_vvel_min             =  -2.2357963253007E-01
(PID.TID 0000.0001) %MON dynstat_vvel_mean            =  -3.9729455898733E-04
(PID.TID 0000.0001) %MON dynstat_vvel_sd              =   1.2648904874779E-02
(PID.TID 0000.0001) %MON dynstat_vvel_del2            =   4.9967863266708E-05
(PID.TID 0000.0001) %MON dynstat_wvel_max             =   1.1202569294498E-04
(PID.TID 0000.0001) %MON dynstat_wvel_min             =  -2.0181425304673E-04
(PID.TID 0000.0001) %MON dynstat_wvel_mean            =   1.5897475481291E-11
(PID.TID 0000.0001) %MON dynstat_wvel_sd              =   3.8363983083624E-06
(PID.TID 0000.0001) %MON dynstat_wvel_del2            =   2.7149916914197E-08
(PID.TID 0000.0001) %MON dynstat_theta_max            =   3.1082387296260E+01
(PID.TID 0000.0001) %MON dynstat_theta_min            =  -2.0910677959940E+00
(PID.TID 0000.0001) %MON dynstat_theta_mean           =   3.9103308088734E+00
(PID.TID 0000.0001) %MON dynstat_theta_sd             =   4.5716999767613E+00
(PID.TID 0000.0001) %MON dynstat_theta_del2           =   2.4973082206612E-03
(PID.TID 0000.0001) %MON dynstat_salt_max             =   4.1391598822829E+01
(PID.TID 0000.0001) %MON dynstat_salt_min             =   1.8391155053285E+01
(PID.TID 0000.0001) %MON dynstat_salt_mean            =   3.4772078645188E+01
(PID.TID 0000.0001) %MON dynstat_salt_sd              =   5.3109432015564E-01
(PID.TID 0000.0001) %MON dynstat_salt_del2            =   7.5642071887162E-04
(PID.TID 0000.0001) %MON forcing_qnet_max             =   4.4486238709081E+02
(PID.TID 0000.0001) %MON forcing_qnet_min             =  -1.9564239975390E+02
(PID.TID 0000.0001) %MON forcing_qnet_mean            =  -1.2511906062711E+01
(PID.TID 0000.0001) %MON forcing_qnet_sd              =   1.0914044317154E+02
(PID.TID 0000.0001) %MON forcing_qnet_del2            =   4.3563085574914E-01
(PID.TID 0000.0001) %MON forcing_qsw_max              =   0.0000000000000E+00
(PID.TID 0000.0001) %MON forcing_qsw_min              =   0.0000000000000E+00
(PID.TID 0000.0001) %MON forcing_qsw_mean             =   0.0000000000000E+00
(PID.TID 0000.0001) %MON forcing_qsw_sd               =   0.0000000000000E+00
(PID.TID 0000.0001) %MON forcing_qsw_del2             =   0.0000000000000E+00
(PID.TID 0000.0001) %MON forcing_empmr_max            =   7.6494447208479E-05
(PID.TID 0000.0001) %MON forcing_empmr_min            =  -1.5362614137596E-04
(PID.TID 0000.0001) %MON forcing_empmr_mean           =  -1.8869759104565E-21
(PID.TID 0000.0001) %MON forcing_empmr_sd             =   2.4051723601802E-05
(PID.TID 0000.0001) %MON forcing_empmr_del2           =   1.2276157049243E-07
(PID.TID 0000.0001) %MON forcing_fu_max               =   2.3665976779186E-01
(PID.TID 0000.0001) %MON forcing_fu_min               =  -2.3356264696351E-01
(PID.TID 0000.0001) %MON forcing_fu_mean              =  -4.0242113930123E-03
(PID.TID 0000.0001) %MON forcing_fu_sd                =   6.4770281337189E-02
(PID.TID 0000.0001) %MON forcing_fu_del2              =   2.1842206420252E-04
(PID.TID 0000.0001) %MON forcing_fv_max               =   2.8984607764745E-01
(PID.TID 0000.0001) %MON forcing_fv_min               =  -3.2574510356961E-01
(PID.TID 0000.0001) %MON forcing_fv_mean              =  -1.3736224733758E-02
(PID.TID 0000.0001) %MON forcing_fv_sd                =   7.5849088889787E-02
(PID.TID 0000.0001) %MON forcing_fv_del2              =   2.4762463092934E-04
(PID.TID 0000.0001) %MON advcfl_uvel_max              =   7.9123932055424E-02
(PID.TID 0000.0001) %MON advcfl_vvel_max              =   7.4509257223193E-02
(PID.TID 0000.0001) %MON advcfl_wvel_max              =   6.5799062125424E-02
(PID.TID 0000.0001) %MON advcfl_W_hf_max              =   7.2680729638959E-02
(PID.TID 0000.0001) %MON pe_b_mean                    =   4.7411245474286E-04
(PID.TID 0000.0001) %MON ke_max                       =   3.8078301752942E-02
(PID.TID 0000.0001) %MON ke_mean                      =   1.4073094112029E-04
(PID.TID 0000.0001) %MON ke_vol                       =   1.3398024453628E+18
(PID.TID 0000.0001) %MON vort_r_min                   =  -1.2723179764783E-06
(PID.TID 0000.0001) %MON vort_r_max                   =   1.2560852467054E-06
(PID.TID 0000.0001) %MON vort_a_mean                  =  -2.0493733748264E-05
(PID.TID 0000.0001) %MON vort_a_sd                    =   7.5053945442357E-05
(PID.TID 0000.0001) %MON vort_p_mean                  =  -2.4715773592968E-05
(PID.TID 0000.0001) %MON vort_p_sd                    =   1.2777067355229E-04
(PID.TID 0000.0001) %MON surfExpan_theta_mean         =   4.7344712729609E-08
(PID.TID 0000.0001) %MON surfExpan_salt_mean          =   1.4605078596413E-08
(PID.TID 0000.0001) // =======================================================
(PID.TID 0000.0001) // End MONITOR dynamic field statistics
(PID.TID 0000.0001) // =======================================================
(PID.TID 0000.0001) %CHECKPOINT     72020 0000072020
 --> f_ice     = 0.000000000000000D+00
 --> f_smrarea = 0.000000000000000D+00
 --> f_smrarea = 0.000000000000000D+00
 --> f_smrarea = 0.000000000000000D+00
 --> objf_test(bi,bj)   =  0.118447849724000D+05
 --> objf_tracer(bi,bj) =  0.000000000000000D+00
 --> objf_atl(bi,bj)    =  0.000000000000000D+00
 --> objf_test(bi,bj)   =  0.952598910068531D+04
 --> objf_tracer(bi,bj) =  0.000000000000000D+00
 --> objf_atl(bi,bj)    =  0.000000000000000D+00
 --> objf_test(bi,bj)   =  0.694420076054077D+04
 --> objf_tracer(bi,bj) =  0.000000000000000D+00
 --> objf_atl(bi,bj)    =  0.000000000000000D+00
 --> objf_test(bi,bj)   =  0.454148485130305D+04
 --> objf_tracer(bi,bj) =  0.000000000000000D+00
 --> objf_atl(bi,bj)    =  0.000000000000000D+00
 --> objf_test(bi,bj)   =  0.460074422654791D+04
 --> objf_tracer(bi,bj) =  0.000000000000000D+00
 --> objf_atl(bi,bj)    =  0.000000000000000D+00
 --> objf_test(bi,bj)   =  0.135691406204384D+05
 --> objf_tracer(bi,bj) =  0.000000000000000D+00
 --> objf_atl(bi,bj)    =  0.000000000000000D+00
 --> objf_test(bi,bj)   =  0.116257622981338D+05
 --> objf_tracer(bi,bj) =  0.000000000000000D+00
 --> objf_atl(bi,bj)    =  0.000000000000000D+00
 --> objf_test(bi,bj)   =  0.115333327821400D+05
 --> objf_tracer(bi,bj) =  0.000000000000000D+00
 --> objf_atl(bi,bj)    =  0.000000000000000D+00
 --> objf_test(bi,bj)   =  0.727515225458655D+04
 --> objf_tracer(bi,bj) =  0.000000000000000D+00
 --> objf_atl(bi,bj)    =  0.000000000000000D+00
 --> objf_test(bi,bj)   =  0.725947537423716D+04
 --> objf_tracer(bi,bj) =  0.000000000000000D+00
 --> objf_atl(bi,bj)    =  0.000000000000000D+00
 --> objf_test(bi,bj)   =  0.580653449005162D+04
 --> objf_tracer(bi,bj) =  0.000000000000000D+00
 --> objf_atl(bi,bj)    =  0.000000000000000D+00
 --> objf_test(bi,bj)   =  0.666403033529739D+04
 --> objf_tracer(bi,bj) =  0.000000000000000D+00
 --> objf_atl(bi,bj)    =  0.000000000000000D+00
  local fc =  0.101190632066362D+06
 global fc =  0.101190632066362D+06
 EXTERNAL_FIELDS_LOAD, it=     72000 : Reading new data, i0,i1=   12    1 (prev=   12    2 )
(PID.TID 0000.0001) SOLVE_FOR_PRESSURE: putPmEinXvector =    F
 cg2d: Sum(rhs),rhsMax =  -9.66338120633736E-12  4.27829651258201E+00
 cg2d: Sum(rhs),rhsMax =  -9.74864633462857E-12  4.27315636347913E+00
 cg2d: Sum(rhs),rhsMax =  -9.74864633462857E-12  4.26761612032118E+00
 cg2d: Sum(rhs),rhsMax =  -9.83391146291979E-12  4.26249552210549E+00
 cg2d: Sum(rhs),rhsMax =  -9.89075488178059E-12  4.25768834061612E+00
 cg2d: Sum(rhs),rhsMax =  -9.66338120633736E-12  4.25317697567183E+00
 cg2d: Sum(rhs),rhsMax =  -9.74864633462857E-12  4.24897733577763E+00
 cg2d: Sum(rhs),rhsMax =  -9.37916411203332E-12  4.24510427778353E+00
 cg2d: Sum(rhs),rhsMax =  -9.74864633462857E-12  4.24156387050421E+00
 cg2d: Sum(rhs),rhsMax =  -9.69180291576777E-12  4.23836038178081E+00
 cg2d: Sum(rhs),rhsMax =  -9.63495949690696E-12  4.23549215406899E+00
 cg2d: Sum(rhs),rhsMax =  -9.72022462519817E-12  4.23294943101930E+00
 cg2d: Sum(rhs),rhsMax =  -9.83391146291979E-12  4.23071303839920E+00
 cg2d: Sum(rhs),rhsMax =  -9.35074240260292E-12  4.22875492838227E+00
 cg2d: Sum(rhs),rhsMax =  -9.57811607804615E-12  4.22703969239150E+00
 EXTERNAL_FIELDS_LOAD, it=     72015 : Reading new data, i0,i1=    1    2 (prev=   12    1 )
 cg2d: Sum(rhs),rhsMax =  -9.37916411203332E-12  4.22552624914725E+00
 cg2d: Sum(rhs),rhsMax =  -9.63495949690696E-12  4.22405606524942E+00
 cg2d: Sum(rhs),rhsMax =  -9.72022462519817E-12  4.22287762053097E+00
 cg2d: Sum(rhs),rhsMax =  -9.46442924032453E-12  4.22169095170633E+00
 cg2d: Sum(rhs),rhsMax =  -9.66338120633736E-12  4.22054741679644E+00
(PID.TID 0000.0001) Did not write pickup because writePickupAtEnd = FALSE
 cg2d: Sum(rhs),rhsMax =  -9.66338120633736E-12  4.22054741679644E+00
(PID.TID 0000.0001) Did not write pickup because writePickupAtEnd = FALSE
 cg2d: Sum(rhs),rhsMax =  -9.66338120633736E-12  4.22054741679644E+00
(PID.TID 0000.0001) Did not write pickup because writePickupAtEnd = FALSE
(PID.TID 0000.0001) // =======================================================
(PID.TID 0000.0001) // Begin MONITOR dynamic field statistics
(PID.TID 0000.0001) // =======================================================
(PID.TID 0000.0001) %MON ad_time_tsnumber             =                 72020
(PID.TID 0000.0001) %MON ad_time_secondsf             =   6.2225280000000E+09
(PID.TID 0000.0001) %MON ad_dynstat_adeta_max         =   0.0000000000000E+00
(PID.TID 0000.0001) %MON ad_dynstat_adeta_min         =   0.0000000000000E+00
(PID.TID 0000.0001) %MON ad_dynstat_adeta_mean        =   0.0000000000000E+00
(PID.TID 0000.0001) %MON ad_dynstat_adeta_sd          =   0.0000000000000E+00
(PID.TID 0000.0001) %MON ad_dynstat_adeta_del2        =   0.0000000000000E+00
(PID.TID 0000.0001) %MON ad_dynstat_aduvel_max        =   0.0000000000000E+00
(PID.TID 0000.0001) %MON ad_dynstat_aduvel_min        =   0.0000000000000E+00
(PID.TID 0000.0001) %MON ad_dynstat_aduvel_mean       =   0.0000000000000E+00
(PID.TID 0000.0001) %MON ad_dynstat_aduvel_sd         =   0.0000000000000E+00
(PID.TID 0000.0001) %MON ad_dynstat_aduvel_del2       =   0.0000000000000E+00
(PID.TID 0000.0001) %MON ad_dynstat_advvel_max        =   0.0000000000000E+00
(PID.TID 0000.0001) %MON ad_dynstat_advvel_min        =   0.0000000000000E+00
(PID.TID 0000.0001) %MON ad_dynstat_advvel_mean       =   0.0000000000000E+00
(PID.TID 0000.0001) %MON ad_dynstat_advvel_sd         =   0.0000000000000E+00
(PID.TID 0000.0001) %MON ad_dynstat_advvel_del2       =   0.0000000000000E+00
(PID.TID 0000.0001) %MON ad_dynstat_adwvel_max        =   0.0000000000000E+00
(PID.TID 0000.0001) %MON ad_dynstat_adwvel_min        =   0.0000000000000E+00
(PID.TID 0000.0001) %MON ad_dynstat_adwvel_mean       =   0.0000000000000E+00
(PID.TID 0000.0001) %MON ad_dynstat_adwvel_sd         =   0.0000000000000E+00
(PID.TID 0000.0001) %MON ad_dynstat_adwvel_del2       =   0.0000000000000E+00
(PID.TID 0000.0001) %MON ad_dynstat_adtheta_max       =   1.8262824229982E+01
(PID.TID 0000.0001) %MON ad_dynstat_adtheta_min       =  -2.1784526388997E+01
(PID.TID 0000.0001) %MON ad_dynstat_adtheta_mean      =   6.1408126674529E-01
(PID.TID 0000.0001) %MON ad_dynstat_adtheta_sd        =   1.9169322809814E+00
(PID.TID 0000.0001) %MON ad_dynstat_adtheta_del2      =   7.7588390879489E-03
(PID.TID 0000.0001) %MON ad_dynstat_adsalt_max        =   0.0000000000000E+00
(PID.TID 0000.0001) %MON ad_dynstat_adsalt_min        =   0.0000000000000E+00
(PID.TID 0000.0001) %MON ad_dynstat_adsalt_mean       =   0.0000000000000E+00
(PID.TID 0000.0001) %MON ad_dynstat_adsalt_sd         =   0.0000000000000E+00
(PID.TID 0000.0001) %MON ad_dynstat_adsalt_del2       =   0.0000000000000E+00
(PID.TID 0000.0001) %MON ad_forcing_adqnet_max        =   0.0000000000000E+00
(PID.TID 0000.0001) %MON ad_forcing_adqnet_min        =   0.0000000000000E+00
(PID.TID 0000.0001) %MON ad_forcing_adqnet_mean       =   0.0000000000000E+00
(PID.TID 0000.0001) %MON ad_forcing_adqnet_sd         =   0.0000000000000E+00
(PID.TID 0000.0001) %MON ad_forcing_adqnet_del2       =   0.0000000000000E+00
(PID.TID 0000.0001) %MON ad_forcing_adqsw_max         =   0.0000000000000E+00
(PID.TID 0000.0001) %MON ad_forcing_adqsw_min         =   0.0000000000000E+00
(PID.TID 0000.0001) %MON ad_forcing_adqsw_mean        =   0.0000000000000E+00
(PID.TID 0000.0001) %MON ad_forcing_adqsw_sd          =   0.0000000000000E+00
(PID.TID 0000.0001) %MON ad_forcing_adqsw_del2        =   0.0000000000000E+00
(PID.TID 0000.0001) %MON ad_forcing_adempmr_max       =   0.0000000000000E+00
(PID.TID 0000.0001) %MON ad_forcing_adempmr_min       =   0.0000000000000E+00
(PID.TID 0000.0001) %MON ad_forcing_adempmr_mean      =   0.0000000000000E+00
(PID.TID 0000.0001) %MON ad_forcing_adempmr_sd        =   0.0000000000000E+00
(PID.TID 0000.0001) %MON ad_forcing_adempmr_del2      =   0.0000000000000E+00
(PID.TID 0000.0001) %MON ad_forcing_adfu_max          =   0.0000000000000E+00
(PID.TID 0000.0001) %MON ad_forcing_adfu_min          =   0.0000000000000E+00
(PID.TID 0000.0001) %MON ad_forcing_adfu_mean         =   0.0000000000000E+00
(PID.TID 0000.0001) %MON ad_forcing_adfu_sd           =   0.0000000000000E+00
(PID.TID 0000.0001) %MON ad_forcing_adfu_del2         =   0.0000000000000E+00
(PID.TID 0000.0001) %MON ad_forcing_adfv_max          =   0.0000000000000E+00
(PID.TID 0000.0001) %MON ad_forcing_adfv_min          =   0.0000000000000E+00
(PID.TID 0000.0001) %MON ad_forcing_adfv_mean         =   0.0000000000000E+00
(PID.TID 0000.0001) %MON ad_forcing_adfv_sd           =   0.0000000000000E+00
(PID.TID 0000.0001) %MON ad_forcing_adfv_del2         =   0.0000000000000E+00
(PID.TID 0000.0001) %MON ad_advcfl_aduvel_max         =   0.0000000000000E+00
(PID.TID 0000.0001) %MON ad_advcfl_advvel_max         =   0.0000000000000E+00
(PID.TID 0000.0001) %MON ad_advcfl_adwvel_max         =   0.0000000000000E+00
(PID.TID 0000.0001) %MON ad_advcfl_adW_hf_max         =   0.0000000000000E+00
(PID.TID 0000.0001) // =======================================================
(PID.TID 0000.0001) // End MONITOR dynamic field statistics
(PID.TID 0000.0001) // =======================================================
 cg2d: Sum(rhs),rhsMax =  -5.42101086242752E-19  1.74835571694390E-04
 cg2d: Sum(rhs),rhsMax =  -9.46442924032453E-12  4.22169095170633E+00
 cg2d: Sum(rhs),rhsMax =  -9.46442924032453E-12  4.22169095170633E+00
(PID.TID 0000.0001) // =======================================================
(PID.TID 0000.0001) // Begin MONITOR dynamic field statistics
(PID.TID 0000.0001) // =======================================================
(PID.TID 0000.0001) %MON ad_time_tsnumber             =                 72019
(PID.TID 0000.0001) %MON ad_time_secondsf             =   6.2224416000000E+09
(PID.TID 0000.0001) %MON ad_dynstat_adeta_max         =   0.0000000000000E+00
(PID.TID 0000.0001) %MON ad_dynstat_adeta_min         =   0.0000000000000E+00
(PID.TID 0000.0001) %MON ad_dynstat_adeta_mean        =   0.0000000000000E+00
(PID.TID 0000.0001) %MON ad_dynstat_adeta_sd          =   0.0000000000000E+00
(PID.TID 0000.0001) %MON ad_dynstat_adeta_del2        =   0.0000000000000E+00
(PID.TID 0000.0001) %MON ad_dynstat_aduvel_max        =   1.8370584052971E+01
(PID.TID 0000.0001) %MON ad_dynstat_aduvel_min        =  -5.2616462794888E+01
(PID.TID 0000.0001) %MON ad_dynstat_aduvel_mean       =   4.6308513604570E-02
(PID.TID 0000.0001) %MON ad_dynstat_aduvel_sd         =   1.1043236271254E+00
(PID.TID 0000.0001) %MON ad_dynstat_aduvel_del2       =   1.1325902935783E-02
(PID.TID 0000.0001) %MON ad_dynstat_advvel_max        =   3.3873155450371E+01
(PID.TID 0000.0001) %MON ad_dynstat_advvel_min        =  -1.7262507871678E+01
(PID.TID 0000.0001) %MON ad_dynstat_advvel_mean       =  -1.8040783336290E-02
(PID.TID 0000.0001) %MON ad_dynstat_advvel_sd         =   1.0661104591246E+00
(PID.TID 0000.0001) %MON ad_dynstat_advvel_del2       =   9.3783536331248E-03
(PID.TID 0000.0001) %MON ad_dynstat_adwvel_max        =   5.8930985901846E+01
(PID.TID 0000.0001) %MON ad_dynstat_adwvel_min        =  -3.4741255806935E+01
(PID.TID 0000.0001) %MON ad_dynstat_adwvel_mean       =  -1.1083223879792E-03
(PID.TID 0000.0001) %MON ad_dynstat_adwvel_sd         =   6.4391141207469E-01
(PID.TID 0000.0001) %MON ad_dynstat_adwvel_del2       =   8.7397364226990E-03
(PID.TID 0000.0001) %MON ad_dynstat_adtheta_max       =   7.9210916353803E+01
(PID.TID 0000.0001) %MON ad_dynstat_adtheta_min       =  -7.2602971507463E+01
(PID.TID 0000.0001) %MON ad_dynstat_adtheta_mean      =   6.1260716518353E-01
(PID.TID 0000.0001) %MON ad_dynstat_adtheta_sd        =   1.9350348205566E+00
(PID.TID 0000.0001) %MON ad_dynstat_adtheta_del2      =   1.2866200254198E-02
(PID.TID 0000.0001) %MON ad_dynstat_adsalt_max        =   2.5352925744997E+02
(PID.TID 0000.0001) %MON ad_dynstat_adsalt_min        =  -2.5183530932034E+02
(PID.TID 0000.0001) %MON ad_dynstat_adsalt_mean       =  -1.1905586276352E-03
(PID.TID 0000.0001) %MON ad_dynstat_adsalt_sd         =   1.2117402718384E+00
(PID.TID 0000.0001) %MON ad_dynstat_adsalt_del2       =   3.7540466621699E-02
(PID.TID 0000.0001) %MON ad_forcing_adqnet_max        =   0.0000000000000E+00
(PID.TID 0000.0001) %MON ad_forcing_adqnet_min        =   0.0000000000000E+00
(PID.TID 0000.0001) %MON ad_forcing_adqnet_mean       =   0.0000000000000E+00
(PID.TID 0000.0001) %MON ad_forcing_adqnet_sd         =   0.0000000000000E+00
(PID.TID 0000.0001) %MON ad_forcing_adqnet_del2       =   0.0000000000000E+00
(PID.TID 0000.0001) %MON ad_forcing_adqsw_max         =   2.5984810602580E-04
(PID.TID 0000.0001) %MON ad_forcing_adqsw_min         =  -2.3664627418608E-04
(PID.TID 0000.0001) %MON ad_forcing_adqsw_mean        =   1.8881497450296E-05
(PID.TID 0000.0001) %MON ad_forcing_adqsw_sd          =   4.9568647216506E-05
(PID.TID 0000.0001) %MON ad_forcing_adqsw_del2        =   7.0351883274333E-07
(PID.TID 0000.0001) %MON ad_forcing_adempmr_max       =   0.0000000000000E+00
(PID.TID 0000.0001) %MON ad_forcing_adempmr_min       =   0.0000000000000E+00
(PID.TID 0000.0001) %MON ad_forcing_adempmr_mean      =   0.0000000000000E+00
(PID.TID 0000.0001) %MON ad_forcing_adempmr_sd        =   0.0000000000000E+00
(PID.TID 0000.0001) %MON ad_forcing_adempmr_del2      =   0.0000000000000E+00
(PID.TID 0000.0001) %MON ad_forcing_adfu_max          =   0.0000000000000E+00
(PID.TID 0000.0001) %MON ad_forcing_adfu_min          =   0.0000000000000E+00
(PID.TID 0000.0001) %MON ad_forcing_adfu_mean         =   0.0000000000000E+00
(PID.TID 0000.0001) %MON ad_forcing_adfu_sd           =   0.0000000000000E+00
(PID.TID 0000.0001) %MON ad_forcing_adfu_del2         =   0.0000000000000E+00
(PID.TID 0000.0001) %MON ad_forcing_adfv_max          =   0.0000000000000E+00
(PID.TID 0000.0001) %MON ad_forcing_adfv_min          =   0.0000000000000E+00
(PID.TID 0000.0001) %MON ad_forcing_adfv_mean         =   0.0000000000000E+00
(PID.TID 0000.0001) %MON ad_forcing_adfv_sd           =   0.0000000000000E+00
(PID.TID 0000.0001) %MON ad_forcing_adfv_del2         =   0.0000000000000E+00
(PID.TID 0000.0001) %MON ad_advcfl_aduvel_max         =   1.9447495881493E+01
(PID.TID 0000.0001) %MON ad_advcfl_advvel_max         =   1.2143958984253E+01
(PID.TID 0000.0001) %MON ad_advcfl_adwvel_max         =   8.4860619698658E+04
(PID.TID 0000.0001) %MON ad_advcfl_adW_hf_max         =   1.0183350849057E+05
(PID.TID 0000.0001) // =======================================================
(PID.TID 0000.0001) // End MONITOR dynamic field statistics
(PID.TID 0000.0001) // =======================================================
 cg2d: Sum(rhs),rhsMax =  -1.40946282423116E-18  1.43971051496059E-03
 cg2d: Sum(rhs),rhsMax =  -9.72022462519817E-12  4.22287762053097E+00
 cg2d: Sum(rhs),rhsMax =  -9.72022462519817E-12  4.22287762053097E+00
(PID.TID 0000.0001) // =======================================================
(PID.TID 0000.0001) // Begin MONITOR dynamic field statistics
(PID.TID 0000.0001) // =======================================================
(PID.TID 0000.0001) %MON ad_time_tsnumber             =                 72018
(PID.TID 0000.0001) %MON ad_time_secondsf             =   6.2223552000000E+09
(PID.TID 0000.0001) %MON ad_dynstat_adeta_max         =   0.0000000000000E+00
(PID.TID 0000.0001) %MON ad_dynstat_adeta_min         =   0.0000000000000E+00
(PID.TID 0000.0001) %MON ad_dynstat_adeta_mean        =   0.0000000000000E+00
(PID.TID 0000.0001) %MON ad_dynstat_adeta_sd          =   0.0000000000000E+00
(PID.TID 0000.0001) %MON ad_dynstat_adeta_del2        =   0.0000000000000E+00
(PID.TID 0000.0001) %MON ad_dynstat_aduvel_max        =   3.5244629630733E+01
(PID.TID 0000.0001) %MON ad_dynstat_aduvel_min        =  -1.0280432277300E+02
(PID.TID 0000.0001) %MON ad_dynstat_aduvel_mean       =   1.0318585941372E-01
(PID.TID 0000.0001) %MON ad_dynstat_aduvel_sd         =   2.1685532204789E+00
(PID.TID 0000.0001) %MON ad_dynstat_aduvel_del2       =   2.2126541982831E-02
(PID.TID 0000.0001) %MON ad_dynstat_advvel_max        =   6.4743892449734E+01
(PID.TID 0000.0001) %MON ad_dynstat_advvel_min        =  -3.3208423293165E+01
(PID.TID 0000.0001) %MON ad_dynstat_advvel_mean       =  -8.7094016362189E-03
(PID.TID 0000.0001) %MON ad_dynstat_advvel_sd         =   2.0931405785992E+00
(PID.TID 0000.0001) %MON ad_dynstat_advvel_del2       =   1.8397898760064E-02
(PID.TID 0000.0001) %MON ad_dynstat_adwvel_max        =   7.5876931413604E+01
(PID.TID 0000.0001) %MON ad_dynstat_adwvel_min        =  -4.4731917094794E+01
(PID.TID 0000.0001) %MON ad_dynstat_adwvel_mean       =  -1.6283361569101E-03
(PID.TID 0000.0001) %MON ad_dynstat_adwvel_sd         =   8.3457423361405E-01
(PID.TID 0000.0001) %MON ad_dynstat_adwvel_del2       =   1.1183465876877E-02
(PID.TID 0000.0001) %MON ad_dynstat_adtheta_max       =   5.9206828556289E+01
(PID.TID 0000.0001) %MON ad_dynstat_adtheta_min       =  -7.1516505310019E+01
(PID.TID 0000.0001) %MON ad_dynstat_adtheta_mean      =   6.1267377106320E-01
(PID.TID 0000.0001) %MON ad_dynstat_adtheta_sd        =   1.9323550142874E+00
(PID.TID 0000.0001) %MON ad_dynstat_adtheta_del2      =   1.3146637136329E-02
(PID.TID 0000.0001) %MON ad_dynstat_adsalt_max        =   2.5009600996726E+02
(PID.TID 0000.0001) %MON ad_dynstat_adsalt_min        =  -2.5064963261412E+02
(PID.TID 0000.0001) %MON ad_dynstat_adsalt_mean       =  -3.6141461345148E-03
(PID.TID 0000.0001) %MON ad_dynstat_adsalt_sd         =   1.3529796436193E+00
(PID.TID 0000.0001) %MON ad_dynstat_adsalt_del2       =   4.1145204997403E-02
(PID.TID 0000.0001) %MON ad_forcing_adqnet_max        =   0.0000000000000E+00
(PID.TID 0000.0001) %MON ad_forcing_adqnet_min        =   0.0000000000000E+00
(PID.TID 0000.0001) %MON ad_forcing_adqnet_mean       =   0.0000000000000E+00
(PID.TID 0000.0001) %MON ad_forcing_adqnet_sd         =   0.0000000000000E+00
(PID.TID 0000.0001) %MON ad_forcing_adqnet_del2       =   0.0000000000000E+00
(PID.TID 0000.0001) %MON ad_forcing_adqsw_max         =   1.1524446276865E-03
(PID.TID 0000.0001) %MON ad_forcing_adqsw_min         =  -1.5604274982904E-03
(PID.TID 0000.0001) %MON ad_forcing_adqsw_mean        =   3.8082859655736E-05
(PID.TID 0000.0001) %MON ad_forcing_adqsw_sd          =   1.0281704001975E-04
(PID.TID 0000.0001) %MON ad_forcing_adqsw_del2        =   2.2190395794252E-06
(PID.TID 0000.0001) %MON ad_forcing_adempmr_max       =   0.0000000000000E+00
(PID.TID 0000.0001) %MON ad_forcing_adempmr_min       =   0.0000000000000E+00
(PID.TID 0000.0001) %MON ad_forcing_adempmr_mean      =   0.0000000000000E+00
(PID.TID 0000.0001) %MON ad_forcing_adempmr_sd        =   0.0000000000000E+00
(PID.TID 0000.0001) %MON ad_forcing_adempmr_del2      =   0.0000000000000E+00
(PID.TID 0000.0001) %MON ad_forcing_adfu_max          =   0.0000000000000E+00
(PID.TID 0000.0001) %MON ad_forcing_adfu_min          =   0.0000000000000E+00
(PID.TID 0000.0001) %MON ad_forcing_adfu_mean         =   0.0000000000000E+00
(PID.TID 0000.0001) %MON ad_forcing_adfu_sd           =   0.0000000000000E+00
(PID.TID 0000.0001) %MON ad_forcing_adfu_del2         =   0.0000000000000E+00
(PID.TID 0000.0001) %MON ad_forcing_adfv_max          =   0.0000000000000E+00
(PID.TID 0000.0001) %MON ad_forcing_adfv_min          =   0.0000000000000E+00
(PID.TID 0000.0001) %MON ad_forcing_adfv_mean         =   0.0000000000000E+00
(PID.TID 0000.0001) %MON ad_forcing_adfv_sd           =   0.0000000000000E+00
(PID.TID 0000.0001) %MON ad_forcing_adfv_del2         =   0.0000000000000E+00
(PID.TID 0000.0001) %MON ad_advcfl_aduvel_max         =   3.7997359334498E+01
(PID.TID 0000.0001) %MON ad_advcfl_advvel_max         =   2.3211512595642E+01
(PID.TID 0000.0001) %MON ad_advcfl_adwvel_max         =   1.0926278123559E+05
(PID.TID 0000.0001) %MON ad_advcfl_adW_hf_max         =   1.3111632211583E+05
(PID.TID 0000.0001) // =======================================================
(PID.TID 0000.0001) // End MONITOR dynamic field statistics
(PID.TID 0000.0001) // =======================================================
 cg2d: Sum(rhs),rhsMax =   9.75781955236954E-19  2.34026812056931E-03
 cg2d: Sum(rhs),rhsMax =  -9.63495949690696E-12  4.22405606524942E+00
 cg2d: Sum(rhs),rhsMax =  -9.63495949690696E-12  4.22405606524942E+00
(PID.TID 0000.0001) // =======================================================
(PID.TID 0000.0001) // Begin MONITOR dynamic field statistics
(PID.TID 0000.0001) // =======================================================
(PID.TID 0000.0001) %MON ad_time_tsnumber             =                 72017
(PID.TID 0000.0001) %MON ad_time_secondsf             =   6.2222688000000E+09
(PID.TID 0000.0001) %MON ad_dynstat_adeta_max         =   0.0000000000000E+00
(PID.TID 0000.0001) %MON ad_dynstat_adeta_min         =   0.0000000000000E+00
(PID.TID 0000.0001) %MON ad_dynstat_adeta_mean        =   0.0000000000000E+00
(PID.TID 0000.0001) %MON ad_dynstat_adeta_sd          =   0.0000000000000E+00
(PID.TID 0000.0001) %MON ad_dynstat_adeta_del2        =   0.0000000000000E+00
(PID.TID 0000.0001) %MON ad_dynstat_aduvel_max        =   7.1962185271120E+01
(PID.TID 0000.0001) %MON ad_dynstat_aduvel_min        =  -1.5143072617231E+02
(PID.TID 0000.0001) %MON ad_dynstat_aduvel_mean       =   1.5498436890927E-01
(PID.TID 0000.0001) %MON ad_dynstat_aduvel_sd         =   3.1942213275830E+00
(PID.TID 0000.0001) %MON ad_dynstat_aduvel_del2       =   3.2360230520787E-02
(PID.TID 0000.0001) %MON ad_dynstat_advvel_max        =   9.1941765025757E+01
(PID.TID 0000.0001) %MON ad_dynstat_advvel_min        =  -5.1141103558004E+01
(PID.TID 0000.0001) %MON ad_dynstat_advvel_mean       =   2.9962937958916E-02
(PID.TID 0000.0001) %MON ad_dynstat_advvel_sd         =   3.0826449478376E+00
(PID.TID 0000.0001) %MON ad_dynstat_advvel_del2       =   2.6967568995025E-02
(PID.TID 0000.0001) %MON ad_dynstat_adwvel_max        =   1.0523840409447E+02
(PID.TID 0000.0001) %MON ad_dynstat_adwvel_min        =  -6.1999718771557E+01
(PID.TID 0000.0001) %MON ad_dynstat_adwvel_mean       =  -2.5588204170725E-03
(PID.TID 0000.0001) %MON ad_dynstat_adwvel_sd         =   1.1500984693481E+00
(PID.TID 0000.0001) %MON ad_dynstat_adwvel_del2       =   1.5379700883177E-02
(PID.TID 0000.0001) %MON ad_dynstat_adtheta_max       =   5.8597459091180E+01
(PID.TID 0000.0001) %MON ad_dynstat_adtheta_min       =  -8.0845007313244E+01
(PID.TID 0000.0001) %MON ad_dynstat_adtheta_mean      =   6.1309976336721E-01
(PID.TID 0000.0001) %MON ad_dynstat_adtheta_sd        =   1.9337089909611E+00
(PID.TID 0000.0001) %MON ad_dynstat_adtheta_del2      =   1.3857653723521E-02
(PID.TID 0000.0001) %MON ad_dynstat_adsalt_max        =   2.5927730506333E+02
(PID.TID 0000.0001) %MON ad_dynstat_adsalt_min        =  -2.6076830203615E+02
(PID.TID 0000.0001) %MON ad_dynstat_adsalt_mean       =  -7.6215186996247E-03
(PID.TID 0000.0001) %MON ad_dynstat_adsalt_sd         =   1.5877541412511E+00
(PID.TID 0000.0001) %MON ad_dynstat_adsalt_del2       =   4.6875090148020E-02
(PID.TID 0000.0001) %MON ad_forcing_adqnet_max        =   0.0000000000000E+00
(PID.TID 0000.0001) %MON ad_forcing_adqnet_min        =   0.0000000000000E+00
(PID.TID 0000.0001) %MON ad_forcing_adqnet_mean       =   0.0000000000000E+00
(PID.TID 0000.0001) %MON ad_forcing_adqnet_sd         =   0.0000000000000E+00
(PID.TID 0000.0001) %MON ad_forcing_adqnet_del2       =   0.0000000000000E+00
(PID.TID 0000.0001) %MON ad_forcing_adqsw_max         =   2.5106811640875E-03
(PID.TID 0000.0001) %MON ad_forcing_adqsw_min         =  -2.3255935573304E-03
(PID.TID 0000.0001) %MON ad_forcing_adqsw_mean        =   5.7459830244261E-05
(PID.TID 0000.0001) %MON ad_forcing_adqsw_sd          =   1.5829005759577E-04
(PID.TID 0000.0001) %MON ad_forcing_adqsw_del2        =   4.0300816172007E-06
(PID.TID 0000.0001) %MON ad_forcing_adempmr_max       =   0.0000000000000E+00
(PID.TID 0000.0001) %MON ad_forcing_adempmr_min       =   0.0000000000000E+00
(PID.TID 0000.0001) %MON ad_forcing_adempmr_mean      =   0.0000000000000E+00
(PID.TID 0000.0001) %MON ad_forcing_adempmr_sd        =   0.0000000000000E+00
(PID.TID 0000.0001) %MON ad_forcing_adempmr_del2      =   0.0000000000000E+00
(PID.TID 0000.0001) %MON ad_forcing_adfu_max          =   0.0000000000000E+00
(PID.TID 0000.0001) %MON ad_forcing_adfu_min          =   0.0000000000000E+00
(PID.TID 0000.0001) %MON ad_forcing_adfu_mean         =   0.0000000000000E+00
(PID.TID 0000.0001) %MON ad_forcing_adfu_sd           =   0.0000000000000E+00
(PID.TID 0000.0001) %MON ad_forcing_adfu_del2         =   0.0000000000000E+00
(PID.TID 0000.0001) %MON ad_forcing_adfv_max          =   0.0000000000000E+00
(PID.TID 0000.0001) %MON ad_forcing_adfv_min          =   0.0000000000000E+00
(PID.TID 0000.0001) %MON ad_forcing_adfv_mean         =   0.0000000000000E+00
(PID.TID 0000.0001) %MON ad_forcing_adfv_sd           =   0.0000000000000E+00
(PID.TID 0000.0001) %MON ad_forcing_adfv_del2         =   0.0000000000000E+00
(PID.TID 0000.0001) %MON ad_advcfl_aduvel_max         =   5.5970095045111E+01
(PID.TID 0000.0001) %MON ad_advcfl_advvel_max         =   3.2962297387631E+01
(PID.TID 0000.0001) %MON ad_advcfl_adwvel_max         =   1.5154330189603E+05
(PID.TID 0000.0001) %MON ad_advcfl_adW_hf_max         =   1.8185332760402E+05
(PID.TID 0000.0001) // =======================================================
(PID.TID 0000.0001) // End MONITOR dynamic field statistics
(PID.TID 0000.0001) // =======================================================
 cg2d: Sum(rhs),rhsMax =  -1.62630325872826E-18  2.74375275125286E-03
 EXTERNAL_FIELDS_LOAD, it=     72015 : Reading new data, i0,i1=    1    2 (prev=   12    2 )
 cg2d: Sum(rhs),rhsMax =  -9.37916411203332E-12  4.22552624914725E+00
 EXTERNAL_FIELDS_LOAD, it=     72015 : Reading new data, i0,i1=    1    2 (prev=   12    2 )
 cg2d: Sum(rhs),rhsMax =  -9.37916411203332E-12  4.22552624914725E+00
(PID.TID 0000.0001) // =======================================================
(PID.TID 0000.0001) // Begin MONITOR dynamic field statistics
(PID.TID 0000.0001) // =======================================================
(PID.TID 0000.0001) %MON ad_time_tsnumber             =                 72016
(PID.TID 0000.0001) %MON ad_time_secondsf             =   6.2221824000000E+09
(PID.TID 0000.0001) %MON ad_dynstat_adeta_max         =   0.0000000000000E+00
(PID.TID 0000.0001) %MON ad_dynstat_adeta_min         =   0.0000000000000E+00
(PID.TID 0000.0001) %MON ad_dynstat_adeta_mean        =   0.0000000000000E+00
(PID.TID 0000.0001) %MON ad_dynstat_adeta_sd          =   0.0000000000000E+00
(PID.TID 0000.0001) %MON ad_dynstat_adeta_del2        =   0.0000000000000E+00
(PID.TID 0000.0001) %MON ad_dynstat_aduvel_max        =   1.3680380850899E+02
(PID.TID 0000.0001) %MON ad_dynstat_aduvel_min        =  -1.9766219111187E+02
(PID.TID 0000.0001) %MON ad_dynstat_aduvel_mean       =   1.8947728386937E-01
(PID.TID 0000.0001) %MON ad_dynstat_aduvel_sd         =   4.1749514311079E+00
(PID.TID 0000.0001) %MON ad_dynstat_aduvel_del2       =   4.2370134251786E-02
(PID.TID 0000.0001) %MON ad_dynstat_advvel_max        =   1.2399796789158E+02
(PID.TID 0000.0001) %MON ad_dynstat_advvel_min        =  -7.5308475760039E+01
(PID.TID 0000.0001) %MON ad_dynstat_advvel_mean       =   9.0163433507125E-02
(PID.TID 0000.0001) %MON ad_dynstat_advvel_sd         =   4.0303116543266E+00
(PID.TID 0000.0001) %MON ad_dynstat_advvel_del2       =   3.5379888395656E-02
(PID.TID 0000.0001) %MON ad_dynstat_adwvel_max        =   1.3324722345228E+02
(PID.TID 0000.0001) %MON ad_dynstat_adwvel_min        =  -7.8638199605868E+01
(PID.TID 0000.0001) %MON ad_dynstat_adwvel_mean       =  -3.4276431740675E-03
(PID.TID 0000.0001) %MON ad_dynstat_adwvel_sd         =   1.4608163159022E+00
(PID.TID 0000.0001) %MON ad_dynstat_adwvel_del2       =   1.9448807192838E-02
(PID.TID 0000.0001) %MON ad_dynstat_adtheta_max       =   6.1163353706241E+01
(PID.TID 0000.0001) %MON ad_dynstat_adtheta_min       =  -8.5361457904037E+01
(PID.TID 0000.0001) %MON ad_dynstat_adtheta_mean      =   6.1376437963785E-01
(PID.TID 0000.0001) %MON ad_dynstat_adtheta_sd        =   1.9349219008235E+00
(PID.TID 0000.0001) %MON ad_dynstat_adtheta_del2      =   1.4450176862013E-02
(PID.TID 0000.0001) %MON ad_dynstat_adsalt_max        =   2.7201662590485E+02
(PID.TID 0000.0001) %MON ad_dynstat_adsalt_min        =  -2.7447011090891E+02
(PID.TID 0000.0001) %MON ad_dynstat_adsalt_mean       =  -1.2749632641895E-02
(PID.TID 0000.0001) %MON ad_dynstat_adsalt_sd         =   1.7938993643003E+00
(PID.TID 0000.0001) %MON ad_dynstat_adsalt_del2       =   5.1662420789287E-02
(PID.TID 0000.0001) %MON ad_forcing_adqnet_max        =   0.0000000000000E+00
(PID.TID 0000.0001) %MON ad_forcing_adqnet_min        =   0.0000000000000E+00
(PID.TID 0000.0001) %MON ad_forcing_adqnet_mean       =   0.0000000000000E+00
(PID.TID 0000.0001) %MON ad_forcing_adqnet_sd         =   0.0000000000000E+00
(PID.TID 0000.0001) %MON ad_forcing_adqnet_del2       =   0.0000000000000E+00
(PID.TID 0000.0001) %MON ad_forcing_adqsw_max         =   3.8846194098795E-03
(PID.TID 0000.0001) %MON ad_forcing_adqsw_min         =  -2.9202603725730E-03
(PID.TID 0000.0001) %MON ad_forcing_adqsw_mean        =   7.6936860462486E-05
(PID.TID 0000.0001) %MON ad_forcing_adqsw_sd          =   2.1479700252041E-04
(PID.TID 0000.0001) %MON ad_forcing_adqsw_del2        =   6.0153130148309E-06
(PID.TID 0000.0001) %MON ad_forcing_adempmr_max       =   0.0000000000000E+00
(PID.TID 0000.0001) %MON ad_forcing_adempmr_min       =   0.0000000000000E+00
(PID.TID 0000.0001) %MON ad_forcing_adempmr_mean      =   0.0000000000000E+00
(PID.TID 0000.0001) %MON ad_forcing_adempmr_sd        =   0.0000000000000E+00
(PID.TID 0000.0001) %MON ad_forcing_adempmr_del2      =   0.0000000000000E+00
(PID.TID 0000.0001) %MON ad_forcing_adfu_max          =   0.0000000000000E+00
(PID.TID 0000.0001) %MON ad_forcing_adfu_min          =   0.0000000000000E+00
(PID.TID 0000.0001) %MON ad_forcing_adfu_mean         =   0.0000000000000E+00
(PID.TID 0000.0001) %MON ad_forcing_adfu_sd           =   0.0000000000000E+00
(PID.TID 0000.0001) %MON ad_forcing_adfu_del2         =   0.0000000000000E+00
(PID.TID 0000.0001) %MON ad_forcing_adfv_max          =   0.0000000000000E+00
(PID.TID 0000.0001) %MON ad_forcing_adfv_min          =   0.0000000000000E+00
(PID.TID 0000.0001) %MON ad_forcing_adfv_mean         =   0.0000000000000E+00
(PID.TID 0000.0001) %MON ad_forcing_adfv_sd           =   0.0000000000000E+00
(PID.TID 0000.0001) %MON ad_forcing_adfv_del2         =   0.0000000000000E+00
(PID.TID 0000.0001) %MON ad_advcfl_aduvel_max         =   7.3057640962297E+01
(PID.TID 0000.0001) %MON ad_advcfl_advvel_max         =   4.1299218385440E+01
(PID.TID 0000.0001) %MON ad_advcfl_adwvel_max         =   1.9187600177128E+05
(PID.TID 0000.0001) %MON ad_advcfl_adW_hf_max         =   2.3025293142819E+05
(PID.TID 0000.0001) // =======================================================
(PID.TID 0000.0001) // End MONITOR dynamic field statistics
(PID.TID 0000.0001) // =======================================================
 cg2d: Sum(rhs),rhsMax =   2.38524477946811E-18  2.65238062683735E-03
 cg2d: Sum(rhs),rhsMax =  -9.57811607804615E-12  4.22703969239150E+00
 cg2d: Sum(rhs),rhsMax =  -9.57811607804615E-12  4.22703969239150E+00
(PID.TID 0000.0001) // =======================================================
(PID.TID 0000.0001) // Begin MONITOR dynamic field statistics
(PID.TID 0000.0001) // =======================================================
(PID.TID 0000.0001) %MON ad_time_tsnumber             =                 72015
(PID.TID 0000.0001) %MON ad_time_secondsf             =   6.2220960000000E+09
(PID.TID 0000.0001) %MON ad_dynstat_adeta_max         =   0.0000000000000E+00
(PID.TID 0000.0001) %MON ad_dynstat_adeta_min         =   0.0000000000000E+00
(PID.TID 0000.0001) %MON ad_dynstat_adeta_mean        =   0.0000000000000E+00
(PID.TID 0000.0001) %MON ad_dynstat_adeta_sd          =   0.0000000000000E+00
(PID.TID 0000.0001) %MON ad_dynstat_adeta_del2        =   0.0000000000000E+00
(PID.TID 0000.0001) %MON ad_dynstat_aduvel_max        =   2.2809271706730E+02
(PID.TID 0000.0001) %MON ad_dynstat_aduvel_min        =  -2.4102982893237E+02
(PID.TID 0000.0001) %MON ad_dynstat_aduvel_mean       =   2.0694912868550E-01
(PID.TID 0000.0001) %MON ad_dynstat_aduvel_sd         =   5.1035140685002E+00
(PID.TID 0000.0001) %MON ad_dynstat_aduvel_del2       =   5.2223533386788E-02
(PID.TID 0000.0001) %MON ad_dynstat_advvel_max        =   1.7608835465691E+02
(PID.TID 0000.0001) %MON ad_dynstat_advvel_min        =  -1.1346758855340E+02
(PID.TID 0000.0001) %MON ad_dynstat_advvel_mean       =   1.6114699488054E-01
(PID.TID 0000.0001) %MON ad_dynstat_advvel_sd         =   4.9331395074961E+00
(PID.TID 0000.0001) %MON ad_dynstat_advvel_del2       =   4.3614374684849E-02
(PID.TID 0000.0001) %MON ad_dynstat_adwvel_max        =   1.5982615031768E+02
(PID.TID 0000.0001) %MON ad_dynstat_adwvel_min        =  -9.4655443446410E+01
(PID.TID 0000.0001) %MON ad_dynstat_adwvel_mean       =  -4.3936607701181E-03
(PID.TID 0000.0001) %MON ad_dynstat_adwvel_sd         =   1.7584423804922E+00
(PID.TID 0000.0001) %MON ad_dynstat_adwvel_del2       =   2.3327643909369E-02
(PID.TID 0000.0001) %MON ad_dynstat_adtheta_max       =   6.3477897292769E+01
(PID.TID 0000.0001) %MON ad_dynstat_adtheta_min       =  -8.7267010409758E+01
(PID.TID 0000.0001) %MON ad_dynstat_adtheta_mean      =   6.1460086337984E-01
(PID.TID 0000.0001) %MON ad_dynstat_adtheta_sd        =   1.9366003541827E+00
(PID.TID 0000.0001) %MON ad_dynstat_adtheta_del2      =   1.4882238767293E-02
(PID.TID 0000.0001) %MON ad_dynstat_adsalt_max        =   3.2207939323957E+02
(PID.TID 0000.0001) %MON ad_dynstat_adsalt_min        =  -3.1868572210597E+02
(PID.TID 0000.0001) %MON ad_dynstat_adsalt_mean       =  -1.8728257005724E-02
(PID.TID 0000.0001) %MON ad_dynstat_adsalt_sd         =   2.0187327125202E+00
(PID.TID 0000.0001) %MON ad_dynstat_adsalt_del2       =   5.5737940570736E-02
(PID.TID 0000.0001) %MON ad_forcing_adqnet_max        =   0.0000000000000E+00
(PID.TID 0000.0001) %MON ad_forcing_adqnet_min        =   0.0000000000000E+00
(PID.TID 0000.0001) %MON ad_forcing_adqnet_mean       =   0.0000000000000E+00
(PID.TID 0000.0001) %MON ad_forcing_adqnet_sd         =   0.0000000000000E+00
(PID.TID 0000.0001) %MON ad_forcing_adqnet_del2       =   0.0000000000000E+00
(PID.TID 0000.0001) %MON ad_forcing_adqsw_max         =   5.2289698730541E-03
(PID.TID 0000.0001) %MON ad_forcing_adqsw_min         =  -3.4536715460576E-03
(PID.TID 0000.0001) %MON ad_forcing_adqsw_mean        =   9.6373053631460E-05
(PID.TID 0000.0001) %MON ad_forcing_adqsw_sd          =   2.7200317500677E-04
(PID.TID 0000.0001) %MON ad_forcing_adqsw_del2        =   8.1103396734712E-06
(PID.TID 0000.0001) %MON ad_forcing_adempmr_max       =   0.0000000000000E+00
(PID.TID 0000.0001) %MON ad_forcing_adempmr_min       =   0.0000000000000E+00
(PID.TID 0000.0001) %MON ad_forcing_adempmr_mean      =   0.0000000000000E+00
(PID.TID 0000.0001) %MON ad_forcing_adempmr_sd        =   0.0000000000000E+00
(PID.TID 0000.0001) %MON ad_forcing_adempmr_del2      =   0.0000000000000E+00
(PID.TID 0000.0001) %MON ad_forcing_adfu_max          =   0.0000000000000E+00
(PID.TID 0000.0001) %MON ad_forcing_adfu_min          =   0.0000000000000E+00
(PID.TID 0000.0001) %MON ad_forcing_adfu_mean         =   0.0000000000000E+00
(PID.TID 0000.0001) %MON ad_forcing_adfu_sd           =   0.0000000000000E+00
(PID.TID 0000.0001) %MON ad_forcing_adfu_del2         =   0.0000000000000E+00
(PID.TID 0000.0001) %MON ad_forcing_adfv_max          =   0.0000000000000E+00
(PID.TID 0000.0001) %MON ad_forcing_adfv_min          =   0.0000000000000E+00
(PID.TID 0000.0001) %MON ad_forcing_adfv_mean         =   0.0000000000000E+00
(PID.TID 0000.0001) %MON ad_forcing_adfv_sd           =   0.0000000000000E+00
(PID.TID 0000.0001) %MON ad_forcing_adfv_del2         =   0.0000000000000E+00
(PID.TID 0000.0001) %MON ad_advcfl_aduvel_max         =   9.7981352581551E+01
(PID.TID 0000.0001) %MON ad_advcfl_advvel_max         =   5.6383420685040E+01
(PID.TID 0000.0001) %MON ad_advcfl_adwvel_max         =   2.3014965645745E+05
(PID.TID 0000.0001) %MON ad_advcfl_adW_hf_max         =   2.7618166435490E+05
(PID.TID 0000.0001) // =======================================================
(PID.TID 0000.0001) // End MONITOR dynamic field statistics
(PID.TID 0000.0001) // =======================================================
 cg2d: Sum(rhs),rhsMax =   4.11996825544492E-18  2.23910680911517E-03
 cg2d: Sum(rhs),rhsMax =  -9.35074240260292E-12  4.22875492838227E+00
 cg2d: Sum(rhs),rhsMax =  -9.35074240260292E-12  4.22875492838227E+00
(PID.TID 0000.0001) // =======================================================
(PID.TID 0000.0001) // Begin MONITOR dynamic field statistics
(PID.TID 0000.0001) // =======================================================
(PID.TID 0000.0001) %MON ad_time_tsnumber             =                 72014
(PID.TID 0000.0001) %MON ad_time_secondsf             =   6.2220096000000E+09
(PID.TID 0000.0001) %MON ad_dynstat_adeta_max         =   0.0000000000000E+00
(PID.TID 0000.0001) %MON ad_dynstat_adeta_min         =   0.0000000000000E+00
(PID.TID 0000.0001) %MON ad_dynstat_adeta_mean        =   0.0000000000000E+00
(PID.TID 0000.0001) %MON ad_dynstat_adeta_sd          =   0.0000000000000E+00
(PID.TID 0000.0001) %MON ad_dynstat_adeta_del2        =   0.0000000000000E+00
(PID.TID 0000.0001) %MON ad_dynstat_aduvel_max        =   3.3866123207196E+02
(PID.TID 0000.0001) %MON ad_dynstat_aduvel_min        =  -2.8118992368063E+02
(PID.TID 0000.0001) %MON ad_dynstat_aduvel_mean       =   2.1583897610326E-01
(PID.TID 0000.0001) %MON ad_dynstat_aduvel_sd         =   5.9780740846383E+00
(PID.TID 0000.0001) %MON ad_dynstat_aduvel_del2       =   6.2191408181282E-02
(PID.TID 0000.0001) %MON ad_dynstat_advvel_max        =   2.3053636291930E+02
(PID.TID 0000.0001) %MON ad_dynstat_advvel_min        =  -1.6976871396507E+02
(PID.TID 0000.0001) %MON ad_dynstat_advvel_mean       =   2.3536643274854E-01
(PID.TID 0000.0001) %MON ad_dynstat_advvel_sd         =   5.7895753050462E+00
(PID.TID 0000.0001) %MON ad_dynstat_advvel_del2       =   5.1879964423342E-02
(PID.TID 0000.0001) %MON ad_dynstat_adwvel_max        =   1.8480542398391E+02
(PID.TID 0000.0001) %MON ad_dynstat_adwvel_min        =  -1.0997833547654E+02
(PID.TID 0000.0001) %MON ad_dynstat_adwvel_mean       =  -5.3621434665020E-03
(PID.TID 0000.0001) %MON ad_dynstat_adwvel_sd         =   2.0438494805163E+00
(PID.TID 0000.0001) %MON ad_dynstat_adwvel_del2       =   2.7005109802180E-02
(PID.TID 0000.0001) %MON ad_dynstat_adtheta_max       =   6.8919733717709E+01
(PID.TID 0000.0001) %MON ad_dynstat_adtheta_min       =  -8.8091872124105E+01
(PID.TID 0000.0001) %MON ad_dynstat_adtheta_mean      =   6.1554468035796E-01
(PID.TID 0000.0001) %MON ad_dynstat_adtheta_sd        =   1.9390951982864E+00
(PID.TID 0000.0001) %MON ad_dynstat_adtheta_del2      =   1.5122833141801E-02
(PID.TID 0000.0001) %MON ad_dynstat_adsalt_max        =   3.7288951399772E+02
(PID.TID 0000.0001) %MON ad_dynstat_adsalt_min        =  -3.7205333527537E+02
(PID.TID 0000.0001) %MON ad_dynstat_adsalt_mean       =  -2.5277968304119E-02
(PID.TID 0000.0001) %MON ad_dynstat_adsalt_sd         =   2.2557318334491E+00
(PID.TID 0000.0001) %MON ad_dynstat_adsalt_del2       =   5.8573019300753E-02
(PID.TID 0000.0001) %MON ad_forcing_adqnet_max        =   0.0000000000000E+00
(PID.TID 0000.0001) %MON ad_forcing_adqnet_min        =   0.0000000000000E+00
(PID.TID 0000.0001) %MON ad_forcing_adqnet_mean       =   0.0000000000000E+00
(PID.TID 0000.0001) %MON ad_forcing_adqnet_sd         =   0.0000000000000E+00
(PID.TID 0000.0001) %MON ad_forcing_adqnet_del2       =   0.0000000000000E+00
(PID.TID 0000.0001) %MON ad_forcing_adqsw_max         =   6.5420244029252E-03
(PID.TID 0000.0001) %MON ad_forcing_adqsw_min         =  -3.9522893535973E-03
(PID.TID 0000.0001) %MON ad_forcing_adqsw_mean        =   1.1570418887267E-04
(PID.TID 0000.0001) %MON ad_forcing_adqsw_sd          =   3.2960476819633E-04
(PID.TID 0000.0001) %MON ad_forcing_adqsw_del2        =   1.0274184070943E-05
(PID.TID 0000.0001) %MON ad_forcing_adempmr_max       =   0.0000000000000E+00
(PID.TID 0000.0001) %MON ad_forcing_adempmr_min       =   0.0000000000000E+00
(PID.TID 0000.0001) %MON ad_forcing_adempmr_mean      =   0.0000000000000E+00
(PID.TID 0000.0001) %MON ad_forcing_adempmr_sd        =   0.0000000000000E+00
(PID.TID 0000.0001) %MON ad_forcing_adempmr_del2      =   0.0000000000000E+00
(PID.TID 0000.0001) %MON ad_forcing_adfu_max          =   0.0000000000000E+00
(PID.TID 0000.0001) %MON ad_forcing_adfu_min          =   0.0000000000000E+00
(PID.TID 0000.0001) %MON ad_forcing_adfu_mean         =   0.0000000000000E+00
(PID.TID 0000.0001) %MON ad_forcing_adfu_sd           =   0.0000000000000E+00
(PID.TID 0000.0001) %MON ad_forcing_adfu_del2         =   0.0000000000000E+00
(PID.TID 0000.0001) %MON ad_forcing_adfv_max          =   0.0000000000000E+00
(PID.TID 0000.0001) %MON ad_forcing_adfv_min          =   0.0000000000000E+00
(PID.TID 0000.0001) %MON ad_forcing_adfv_mean         =   0.0000000000000E+00
(PID.TID 0000.0001) %MON ad_forcing_adfv_sd           =   0.0000000000000E+00
(PID.TID 0000.0001) %MON ad_forcing_adfv_del2         =   0.0000000000000E+00
(PID.TID 0000.0001) %MON ad_advcfl_aduvel_max         =   1.4547805827380E+02
(PID.TID 0000.0001) %MON ad_advcfl_advvel_max         =   7.3999790679367E+01
(PID.TID 0000.0001) %MON ad_advcfl_adwvel_max         =   2.6611981053683E+05
(PID.TID 0000.0001) %MON ad_advcfl_adW_hf_max         =   3.1934617832147E+05
(PID.TID 0000.0001) // =======================================================
(PID.TID 0000.0001) // End MONITOR dynamic field statistics
(PID.TID 0000.0001) // =======================================================
 cg2d: Sum(rhs),rhsMax =   7.04731412115578E-19  1.93948271669962E-03
 cg2d: Sum(rhs),rhsMax =  -9.83391146291979E-12  4.23071303839920E+00
 cg2d: Sum(rhs),rhsMax =  -9.83391146291979E-12  4.23071303839920E+00
(PID.TID 0000.0001) // =======================================================
(PID.TID 0000.0001) // Begin MONITOR dynamic field statistics
(PID.TID 0000.0001) // =======================================================
(PID.TID 0000.0001) %MON ad_time_tsnumber             =                 72013
(PID.TID 0000.0001) %MON ad_time_secondsf             =   6.2219232000000E+09
(PID.TID 0000.0001) %MON ad_dynstat_adeta_max         =   0.0000000000000E+00
(PID.TID 0000.0001) %MON ad_dynstat_adeta_min         =   0.0000000000000E+00
(PID.TID 0000.0001) %MON ad_dynstat_adeta_mean        =   0.0000000000000E+00
(PID.TID 0000.0001) %MON ad_dynstat_adeta_sd          =   0.0000000000000E+00
(PID.TID 0000.0001) %MON ad_dynstat_adeta_del2        =   0.0000000000000E+00
(PID.TID 0000.0001) %MON ad_dynstat_aduvel_max        =   4.5859568140685E+02
(PID.TID 0000.0001) %MON ad_dynstat_aduvel_min        =  -3.1696374140739E+02
(PID.TID 0000.0001) %MON ad_dynstat_aduvel_mean       =   2.2630517766145E-01
(PID.TID 0000.0001) %MON ad_dynstat_aduvel_sd         =   6.7940519257026E+00
(PID.TID 0000.0001) %MON ad_dynstat_aduvel_del2       =   7.1727032641038E-02
(PID.TID 0000.0001) %MON ad_dynstat_advvel_max        =   2.8563629009193E+02
(PID.TID 0000.0001) %MON ad_dynstat_advvel_min        =  -2.2720165300283E+02
(PID.TID 0000.0001) %MON ad_dynstat_advvel_mean       =   3.0873803913120E-01
(PID.TID 0000.0001) %MON ad_dynstat_advvel_sd         =   6.5958687485098E+00
(PID.TID 0000.0001) %MON ad_dynstat_advvel_del2       =   5.9734991665970E-02
(PID.TID 0000.0001) %MON ad_dynstat_adwvel_max        =   2.0806731044018E+02
(PID.TID 0000.0001) %MON ad_dynstat_adwvel_min        =  -1.2453518702438E+02
(PID.TID 0000.0001) %MON ad_dynstat_adwvel_mean       =  -6.3415524357772E-03
(PID.TID 0000.0001) %MON ad_dynstat_adwvel_sd         =   2.3150824419611E+00
(PID.TID 0000.0001) %MON ad_dynstat_adwvel_del2       =   3.0415900602162E-02
(PID.TID 0000.0001) %MON ad_dynstat_adtheta_max       =   6.9269846226860E+01
(PID.TID 0000.0001) %MON ad_dynstat_adtheta_min       =  -8.8450090067936E+01
(PID.TID 0000.0001) %MON ad_dynstat_adtheta_mean      =   6.1656400421512E-01
(PID.TID 0000.0001) %MON ad_dynstat_adtheta_sd        =   1.9428340726930E+00
(PID.TID 0000.0001) %MON ad_dynstat_adtheta_del2      =   1.5156853092306E-02
(PID.TID 0000.0001) %MON ad_dynstat_adsalt_max        =   3.9030332596845E+02
(PID.TID 0000.0001) %MON ad_dynstat_adsalt_min        =  -3.9310546173864E+02
(PID.TID 0000.0001) %MON ad_dynstat_adsalt_mean       =  -3.2222001139823E-02
(PID.TID 0000.0001) %MON ad_dynstat_adsalt_sd         =   2.5045459850794E+00
(PID.TID 0000.0001) %MON ad_dynstat_adsalt_del2       =   5.9984123490900E-02
(PID.TID 0000.0001) %MON ad_forcing_adqnet_max        =   0.0000000000000E+00
(PID.TID 0000.0001) %MON ad_forcing_adqnet_min        =   0.0000000000000E+00
(PID.TID 0000.0001) %MON ad_forcing_adqnet_mean       =   0.0000000000000E+00
(PID.TID 0000.0001) %MON ad_forcing_adqnet_sd         =   0.0000000000000E+00
(PID.TID 0000.0001) %MON ad_forcing_adqnet_del2       =   0.0000000000000E+00
(PID.TID 0000.0001) %MON ad_forcing_adqsw_max         =   7.8272510036223E-03
(PID.TID 0000.0001) %MON ad_forcing_adqsw_min         =  -4.4287340133899E-03
(PID.TID 0000.0001) %MON ad_forcing_adqsw_mean        =   1.3491420859143E-04
(PID.TID 0000.0001) %MON ad_forcing_adqsw_sd          =   3.8732420000458E-04
(PID.TID 0000.0001) %MON ad_forcing_adqsw_del2        =   1.2477830243401E-05
(PID.TID 0000.0001) %MON ad_forcing_adempmr_max       =   0.0000000000000E+00
(PID.TID 0000.0001) %MON ad_forcing_adempmr_min       =   0.0000000000000E+00
(PID.TID 0000.0001) %MON ad_forcing_adempmr_mean      =   0.0000000000000E+00
(PID.TID 0000.0001) %MON ad_forcing_adempmr_sd        =   0.0000000000000E+00
(PID.TID 0000.0001) %MON ad_forcing_adempmr_del2      =   0.0000000000000E+00
(PID.TID 0000.0001) %MON ad_forcing_adfu_max          =   0.0000000000000E+00
(PID.TID 0000.0001) %MON ad_forcing_adfu_min          =   0.0000000000000E+00
(PID.TID 0000.0001) %MON ad_forcing_adfu_mean         =   0.0000000000000E+00
(PID.TID 0000.0001) %MON ad_forcing_adfu_sd           =   0.0000000000000E+00
(PID.TID 0000.0001) %MON ad_forcing_adfu_del2         =   0.0000000000000E+00
(PID.TID 0000.0001) %MON ad_forcing_adfv_max          =   0.0000000000000E+00
(PID.TID 0000.0001) %MON ad_forcing_adfv_min          =   0.0000000000000E+00
(PID.TID 0000.0001) %MON ad_forcing_adfv_mean         =   0.0000000000000E+00
(PID.TID 0000.0001) %MON ad_forcing_adfv_sd           =   0.0000000000000E+00
(PID.TID 0000.0001) %MON ad_forcing_adfv_del2         =   0.0000000000000E+00
(PID.TID 0000.0001) %MON ad_advcfl_aduvel_max         =   1.9699807047782E+02
(PID.TID 0000.0001) %MON ad_advcfl_advvel_max         =   9.9033999678383E+01
(PID.TID 0000.0001) %MON ad_advcfl_adwvel_max         =   2.9961692703385E+05
(PID.TID 0000.0001) %MON ad_advcfl_adW_hf_max         =   3.5954302812990E+05
(PID.TID 0000.0001) // =======================================================
(PID.TID 0000.0001) // End MONITOR dynamic field statistics
(PID.TID 0000.0001) // =======================================================
 cg2d: Sum(rhs),rhsMax =  -1.02999206386123E-18  2.47439618215884E-03
 cg2d: Sum(rhs),rhsMax =  -9.72022462519817E-12  4.23294943101930E+00
 cg2d: Sum(rhs),rhsMax =  -9.72022462519817E-12  4.23294943101930E+00
(PID.TID 0000.0001) // =======================================================
(PID.TID 0000.0001) // Begin MONITOR dynamic field statistics
(PID.TID 0000.0001) // =======================================================
(PID.TID 0000.0001) %MON ad_time_tsnumber             =                 72012
(PID.TID 0000.0001) %MON ad_time_secondsf             =   6.2218368000000E+09
(PID.TID 0000.0001) %MON ad_dynstat_adeta_max         =   0.0000000000000E+00
(PID.TID 0000.0001) %MON ad_dynstat_adeta_min         =   0.0000000000000E+00
(PID.TID 0000.0001) %MON ad_dynstat_adeta_mean        =   0.0000000000000E+00
(PID.TID 0000.0001) %MON ad_dynstat_adeta_sd          =   0.0000000000000E+00
(PID.TID 0000.0001) %MON ad_dynstat_adeta_del2        =   0.0000000000000E+00
(PID.TID 0000.0001) %MON ad_dynstat_aduvel_max        =   5.7782164184747E+02
(PID.TID 0000.0001) %MON ad_dynstat_aduvel_min        =  -3.5479750792636E+02
(PID.TID 0000.0001) %MON ad_dynstat_aduvel_mean       =   2.4273229604494E-01
(PID.TID 0000.0001) %MON ad_dynstat_aduvel_sd         =   7.5504247085388E+00
(PID.TID 0000.0001) %MON ad_dynstat_aduvel_del2       =   8.1053589823553E-02
(PID.TID 0000.0001) %MON ad_dynstat_advvel_max        =   3.2060324421629E+02
(PID.TID 0000.0001) %MON ad_dynstat_advvel_min        =  -2.7921406060907E+02
(PID.TID 0000.0001) %MON ad_dynstat_advvel_mean       =   3.8031170930352E-01
(PID.TID 0000.0001) %MON ad_dynstat_advvel_sd         =   7.3490213437181E+00
(PID.TID 0000.0001) %MON ad_dynstat_advvel_del2       =   6.7155324442172E-02
(PID.TID 0000.0001) %MON ad_dynstat_adwvel_max        =   2.2952392363640E+02
(PID.TID 0000.0001) %MON ad_dynstat_adwvel_min        =  -1.3826042327563E+02
(PID.TID 0000.0001) %MON ad_dynstat_adwvel_mean       =  -7.2877022832856E-03
(PID.TID 0000.0001) %MON ad_dynstat_adwvel_sd         =   2.5712483641871E+00
(PID.TID 0000.0001) %MON ad_dynstat_adwvel_del2       =   3.3622961939422E-02
(PID.TID 0000.0001) %MON ad_dynstat_adtheta_max       =   6.7463141121220E+01
(PID.TID 0000.0001) %MON ad_dynstat_adtheta_min       =  -8.7963826454533E+01
(PID.TID 0000.0001) %MON ad_dynstat_adtheta_mean      =   6.1762175808037E-01
(PID.TID 0000.0001) %MON ad_dynstat_adtheta_sd        =   1.9482257346921E+00
(PID.TID 0000.0001) %MON ad_dynstat_adtheta_del2      =   1.5011047199694E-02
(PID.TID 0000.0001) %MON ad_dynstat_adsalt_max        =   3.7860579390444E+02
(PID.TID 0000.0001) %MON ad_dynstat_adsalt_min        =  -3.8579961910120E+02
(PID.TID 0000.0001) %MON ad_dynstat_adsalt_mean       =  -3.9423332121752E-02
(PID.TID 0000.0001) %MON ad_dynstat_adsalt_sd         =   2.7684179146315E+00
(PID.TID 0000.0001) %MON ad_dynstat_adsalt_del2       =   6.0193563700123E-02
(PID.TID 0000.0001) %MON ad_forcing_adqnet_max        =   0.0000000000000E+00
(PID.TID 0000.0001) %MON ad_forcing_adqnet_min        =   0.0000000000000E+00
(PID.TID 0000.0001) %MON ad_forcing_adqnet_mean       =   0.0000000000000E+00
(PID.TID 0000.0001) %MON ad_forcing_adqnet_sd         =   0.0000000000000E+00
(PID.TID 0000.0001) %MON ad_forcing_adqnet_del2       =   0.0000000000000E+00
(PID.TID 0000.0001) %MON ad_forcing_adqsw_max         =   9.3362073538123E-03
(PID.TID 0000.0001) %MON ad_forcing_adqsw_min         =  -5.0174477983165E-03
(PID.TID 0000.0001) %MON ad_forcing_adqsw_mean        =   1.5398469050626E-04
(PID.TID 0000.0001) %MON ad_forcing_adqsw_sd          =   4.4484879624393E-04
(PID.TID 0000.0001) %MON ad_forcing_adqsw_del2        =   1.4691631981732E-05
(PID.TID 0000.0001) %MON ad_forcing_adempmr_max       =   0.0000000000000E+00
(PID.TID 0000.0001) %MON ad_forcing_adempmr_min       =   0.0000000000000E+00
(PID.TID 0000.0001) %MON ad_forcing_adempmr_mean      =   0.0000000000000E+00
(PID.TID 0000.0001) %MON ad_forcing_adempmr_sd        =   0.0000000000000E+00
(PID.TID 0000.0001) %MON ad_forcing_adempmr_del2      =   0.0000000000000E+00
(PID.TID 0000.0001) %MON ad_forcing_adfu_max          =   0.0000000000000E+00
(PID.TID 0000.0001) %MON ad_forcing_adfu_min          =   0.0000000000000E+00
(PID.TID 0000.0001) %MON ad_forcing_adfu_mean         =   0.0000000000000E+00
(PID.TID 0000.0001) %MON ad_forcing_adfu_sd           =   0.0000000000000E+00
(PID.TID 0000.0001) %MON ad_forcing_adfu_del2         =   0.0000000000000E+00
(PID.TID 0000.0001) %MON ad_forcing_adfv_max          =   0.0000000000000E+00
(PID.TID 0000.0001) %MON ad_forcing_adfv_min          =   0.0000000000000E+00
(PID.TID 0000.0001) %MON ad_forcing_adfv_mean         =   0.0000000000000E+00
(PID.TID 0000.0001) %MON ad_forcing_adfv_sd           =   0.0000000000000E+00
(PID.TID 0000.0001) %MON ad_forcing_adfv_del2         =   0.0000000000000E+00
(PID.TID 0000.0001) %MON ad_advcfl_aduvel_max         =   2.4821373846147E+02
(PID.TID 0000.0001) %MON ad_advcfl_advvel_max         =   1.2170547539200E+02
(PID.TID 0000.0001) %MON ad_advcfl_adwvel_max         =   3.3051445003641E+05
(PID.TID 0000.0001) %MON ad_advcfl_adW_hf_max         =   3.9662034650069E+05
(PID.TID 0000.0001) // =======================================================
(PID.TID 0000.0001) // End MONITOR dynamic field statistics
(PID.TID 0000.0001) // =======================================================
 cg2d: Sum(rhs),rhsMax =   2.71050543121376E-19  2.91985790198745E-03
 cg2d: Sum(rhs),rhsMax =  -9.63495949690696E-12  4.23549215406899E+00
 cg2d: Sum(rhs),rhsMax =  -9.63495949690696E-12  4.23549215406899E+00
(PID.TID 0000.0001) // =======================================================
(PID.TID 0000.0001) // Begin MONITOR dynamic field statistics
(PID.TID 0000.0001) // =======================================================
(PID.TID 0000.0001) %MON ad_time_tsnumber             =                 72011
(PID.TID 0000.0001) %MON ad_time_secondsf             =   6.2217504000000E+09
(PID.TID 0000.0001) %MON ad_dynstat_adeta_max         =   0.0000000000000E+00
(PID.TID 0000.0001) %MON ad_dynstat_adeta_min         =   0.0000000000000E+00
(PID.TID 0000.0001) %MON ad_dynstat_adeta_mean        =   0.0000000000000E+00
(PID.TID 0000.0001) %MON ad_dynstat_adeta_sd          =   0.0000000000000E+00
(PID.TID 0000.0001) %MON ad_dynstat_adeta_del2        =   0.0000000000000E+00
(PID.TID 0000.0001) %MON ad_dynstat_aduvel_max        =   7.0563147767198E+02
(PID.TID 0000.0001) %MON ad_dynstat_aduvel_min        =  -4.3270637103294E+02
(PID.TID 0000.0001) %MON ad_dynstat_aduvel_mean       =   2.6573765610523E-01
(PID.TID 0000.0001) %MON ad_dynstat_aduvel_sd         =   8.2528862079191E+00
(PID.TID 0000.0001) %MON ad_dynstat_aduvel_del2       =   9.0551822009446E-02
(PID.TID 0000.0001) %MON ad_dynstat_advvel_max        =   3.5513816687430E+02
(PID.TID 0000.0001) %MON ad_dynstat_advvel_min        =  -3.3812417690748E+02
(PID.TID 0000.0001) %MON ad_dynstat_advvel_mean       =   4.5160319639613E-01
(PID.TID 0000.0001) %MON ad_dynstat_advvel_sd         =   8.0563636573374E+00
(PID.TID 0000.0001) %MON ad_dynstat_advvel_del2       =   7.5178327361827E-02
(PID.TID 0000.0001) %MON ad_dynstat_adwvel_max        =   2.4909304796817E+02
(PID.TID 0000.0001) %MON ad_dynstat_adwvel_min        =  -1.5108298169863E+02
(PID.TID 0000.0001) %MON ad_dynstat_adwvel_mean       =  -8.1864610672523E-03
(PID.TID 0000.0001) %MON ad_dynstat_adwvel_sd         =   2.8136842761024E+00
(PID.TID 0000.0001) %MON ad_dynstat_adwvel_del2       =   3.6621822884515E-02
(PID.TID 0000.0001) %MON ad_dynstat_adtheta_max       =   6.3000437348086E+01
(PID.TID 0000.0001) %MON ad_dynstat_adtheta_min       =  -8.7063740546286E+01
(PID.TID 0000.0001) %MON ad_dynstat_adtheta_mean      =   6.1871003653598E-01
(PID.TID 0000.0001) %MON ad_dynstat_adtheta_sd        =   1.9559463553012E+00
(PID.TID 0000.0001) %MON ad_dynstat_adtheta_del2      =   1.4762822548203E-02
(PID.TID 0000.0001) %MON ad_dynstat_adsalt_max        =   3.4604547098208E+02
(PID.TID 0000.0001) %MON ad_dynstat_adsalt_min        =  -3.5829311559964E+02
(PID.TID 0000.0001) %MON ad_dynstat_adsalt_mean       =  -4.6764055665661E-02
(PID.TID 0000.0001) %MON ad_dynstat_adsalt_sd         =   3.0535537377028E+00
(PID.TID 0000.0001) %MON ad_dynstat_adsalt_del2       =   5.9730686552911E-02
(PID.TID 0000.0001) %MON ad_forcing_adqnet_max        =   0.0000000000000E+00
(PID.TID 0000.0001) %MON ad_forcing_adqnet_min        =   0.0000000000000E+00
(PID.TID 0000.0001) %MON ad_forcing_adqnet_mean       =   0.0000000000000E+00
(PID.TID 0000.0001) %MON ad_forcing_adqnet_sd         =   0.0000000000000E+00
(PID.TID 0000.0001) %MON ad_forcing_adqnet_del2       =   0.0000000000000E+00
(PID.TID 0000.0001) %MON ad_forcing_adqsw_max         =   1.0863359104589E-02
(PID.TID 0000.0001) %MON ad_forcing_adqsw_min         =  -6.0657202391336E-03
(PID.TID 0000.0001) %MON ad_forcing_adqsw_mean        =   1.7292048162403E-04
(PID.TID 0000.0001) %MON ad_forcing_adqsw_sd          =   5.0184328621354E-04
(PID.TID 0000.0001) %MON ad_forcing_adqsw_del2        =   1.6884714667684E-05
(PID.TID 0000.0001) %MON ad_forcing_adempmr_max       =   0.0000000000000E+00
(PID.TID 0000.0001) %MON ad_forcing_adempmr_min       =   0.0000000000000E+00
(PID.TID 0000.0001) %MON ad_forcing_adempmr_mean      =   0.0000000000000E+00
(PID.TID 0000.0001) %MON ad_forcing_adempmr_sd        =   0.0000000000000E+00
(PID.TID 0000.0001) %MON ad_forcing_adempmr_del2      =   0.0000000000000E+00
(PID.TID 0000.0001) %MON ad_forcing_adfu_max          =   0.0000000000000E+00
(PID.TID 0000.0001) %MON ad_forcing_adfu_min          =   0.0000000000000E+00
(PID.TID 0000.0001) %MON ad_forcing_adfu_mean         =   0.0000000000000E+00
(PID.TID 0000.0001) %MON ad_forcing_adfu_sd           =   0.0000000000000E+00
(PID.TID 0000.0001) %MON ad_forcing_adfu_del2         =   0.0000000000000E+00
(PID.TID 0000.0001) %MON ad_forcing_adfv_max          =   0.0000000000000E+00
(PID.TID 0000.0001) %MON ad_forcing_adfv_min          =   0.0000000000000E+00
(PID.TID 0000.0001) %MON ad_forcing_adfv_mean         =   0.0000000000000E+00
(PID.TID 0000.0001) %MON ad_forcing_adfv_sd           =   0.0000000000000E+00
(PID.TID 0000.0001) %MON ad_forcing_adfv_del2         =   0.0000000000000E+00
(PID.TID 0000.0001) %MON ad_advcfl_aduvel_max         =   3.0311676538984E+02
(PID.TID 0000.0001) %MON ad_advcfl_advvel_max         =   1.4738356514814E+02
(PID.TID 0000.0001) %MON ad_advcfl_adwvel_max         =   3.5869398907417E+05
(PID.TID 0000.0001) %MON ad_advcfl_adW_hf_max         =   4.3043606503824E+05
(PID.TID 0000.0001) // =======================================================
(PID.TID 0000.0001) // End MONITOR dynamic field statistics
(PID.TID 0000.0001) // =======================================================
 cg2d: Sum(rhs),rhsMax =  -4.06575814682064E-19  3.58395469654076E-03
 cg2d: Sum(rhs),rhsMax =  -9.69180291576777E-12  4.23836038178081E+00
 cg2d: Sum(rhs),rhsMax =  -9.69180291576777E-12  4.23836038178081E+00
(PID.TID 0000.0001) // =======================================================
(PID.TID 0000.0001) // Begin MONITOR dynamic field statistics
(PID.TID 0000.0001) // =======================================================
(PID.TID 0000.0001) %MON ad_time_tsnumber             =                 72010
(PID.TID 0000.0001) %MON ad_time_secondsf             =   6.2216640000000E+09
(PID.TID 0000.0001) %MON ad_dynstat_adeta_max         =   0.0000000000000E+00
(PID.TID 0000.0001) %MON ad_dynstat_adeta_min         =   0.0000000000000E+00
(PID.TID 0000.0001) %MON ad_dynstat_adeta_mean        =   0.0000000000000E+00
(PID.TID 0000.0001) %MON ad_dynstat_adeta_sd          =   0.0000000000000E+00
(PID.TID 0000.0001) %MON ad_dynstat_adeta_del2        =   0.0000000000000E+00
(PID.TID 0000.0001) %MON ad_dynstat_aduvel_max        =   8.1594227566322E+02
(PID.TID 0000.0001) %MON ad_dynstat_aduvel_min        =  -4.9438714213940E+02
(PID.TID 0000.0001) %MON ad_dynstat_aduvel_mean       =   2.9346738335784E-01
(PID.TID 0000.0001) %MON ad_dynstat_aduvel_sd         =   8.8904836546875E+00
(PID.TID 0000.0001) %MON ad_dynstat_aduvel_del2       =   9.8833475158341E-02
(PID.TID 0000.0001) %MON ad_dynstat_advvel_max        =   3.8805573559249E+02
(PID.TID 0000.0001) %MON ad_dynstat_advvel_min        =  -3.8096210779206E+02
(PID.TID 0000.0001) %MON ad_dynstat_advvel_mean       =   5.2350551620476E-01
(PID.TID 0000.0001) %MON ad_dynstat_advvel_sd         =   8.7054707755859E+00
(PID.TID 0000.0001) %MON ad_dynstat_advvel_del2       =   8.2012131884355E-02
(PID.TID 0000.0001) %MON ad_dynstat_adwvel_max        =   2.6671816937030E+02
(PID.TID 0000.0001) %MON ad_dynstat_adwvel_min        =  -1.6296419155025E+02
(PID.TID 0000.0001) %MON ad_dynstat_adwvel_mean       =  -9.0464772183535E-03
(PID.TID 0000.0001) %MON ad_dynstat_adwvel_sd         =   3.0368259827516E+00
(PID.TID 0000.0001) %MON ad_dynstat_adwvel_del2       =   3.9282760522056E-02
(PID.TID 0000.0001) %MON ad_dynstat_adtheta_max       =   5.6623892173305E+01
(PID.TID 0000.0001) %MON ad_dynstat_adtheta_min       =  -8.5840709685194E+01
(PID.TID 0000.0001) %MON ad_dynstat_adtheta_mean      =   6.1979017237054E-01
(PID.TID 0000.0001) %MON ad_dynstat_adtheta_sd        =   1.9662999701981E+00
(PID.TID 0000.0001) %MON ad_dynstat_adtheta_del2      =   1.4475897120806E-02
(PID.TID 0000.0001) %MON ad_dynstat_adsalt_max        =   3.0190885010722E+02
(PID.TID 0000.0001) %MON ad_dynstat_adsalt_min        =  -3.1958936474590E+02
(PID.TID 0000.0001) %MON ad_dynstat_adsalt_mean       =  -5.4122394802672E-02
(PID.TID 0000.0001) %MON ad_dynstat_adsalt_sd         =   3.3588173788593E+00
(PID.TID 0000.0001) %MON ad_dynstat_adsalt_del2       =   5.9055869909216E-02
(PID.TID 0000.0001) %MON ad_forcing_adqnet_max        =   0.0000000000000E+00
(PID.TID 0000.0001) %MON ad_forcing_adqnet_min        =   0.0000000000000E+00
(PID.TID 0000.0001) %MON ad_forcing_adqnet_mean       =   0.0000000000000E+00
(PID.TID 0000.0001) %MON ad_forcing_adqnet_sd         =   0.0000000000000E+00
(PID.TID 0000.0001) %MON ad_forcing_adqnet_del2       =   0.0000000000000E+00
(PID.TID 0000.0001) %MON ad_forcing_adqsw_max         =   1.2368527718102E-02
(PID.TID 0000.0001) %MON ad_forcing_adqsw_min         =  -7.0355311906850E-03
(PID.TID 0000.0001) %MON ad_forcing_adqsw_mean        =   1.9170986043532E-04
(PID.TID 0000.0001) %MON ad_forcing_adqsw_sd          =   5.5804490192412E-04
(PID.TID 0000.0001) %MON ad_forcing_adqsw_del2        =   1.9034887524650E-05
(PID.TID 0000.0001) %MON ad_forcing_adempmr_max       =   0.0000000000000E+00
(PID.TID 0000.0001) %MON ad_forcing_adempmr_min       =   0.0000000000000E+00
(PID.TID 0000.0001) %MON ad_forcing_adempmr_mean      =   0.0000000000000E+00
(PID.TID 0000.0001) %MON ad_forcing_adempmr_sd        =   0.0000000000000E+00
(PID.TID 0000.0001) %MON ad_forcing_adempmr_del2      =   0.0000000000000E+00
(PID.TID 0000.0001) %MON ad_forcing_adfu_max          =   0.0000000000000E+00
(PID.TID 0000.0001) %MON ad_forcing_adfu_min          =   0.0000000000000E+00
(PID.TID 0000.0001) %MON ad_forcing_adfu_mean         =   0.0000000000000E+00
(PID.TID 0000.0001) %MON ad_forcing_adfu_sd           =   0.0000000000000E+00
(PID.TID 0000.0001) %MON ad_forcing_adfu_del2         =   0.0000000000000E+00
(PID.TID 0000.0001) %MON ad_forcing_adfv_max          =   0.0000000000000E+00
(PID.TID 0000.0001) %MON ad_forcing_adfv_min          =   0.0000000000000E+00
(PID.TID 0000.0001) %MON ad_forcing_adfv_mean         =   0.0000000000000E+00
(PID.TID 0000.0001) %MON ad_forcing_adfv_sd           =   0.0000000000000E+00
(PID.TID 0000.0001) %MON ad_forcing_adfv_del2         =   0.0000000000000E+00
(PID.TID 0000.0001) %MON ad_advcfl_aduvel_max         =   3.5050276407713E+02
(PID.TID 0000.0001) %MON ad_advcfl_advvel_max         =   1.6605601571078E+02
(PID.TID 0000.0001) %MON ad_advcfl_adwvel_max         =   3.8407416389323E+05
(PID.TID 0000.0001) %MON ad_advcfl_adW_hf_max         =   4.6089252828017E+05
(PID.TID 0000.0001) // =======================================================
(PID.TID 0000.0001) // End MONITOR dynamic field statistics
(PID.TID 0000.0001) // =======================================================
 cg2d: Sum(rhs),rhsMax =   3.30681662608079E-18  3.98956844436690E-03
 cg2d: Sum(rhs),rhsMax =  -9.74864633462857E-12  4.24156387050421E+00
 cg2d: Sum(rhs),rhsMax =  -9.74864633462857E-12  4.24156387050421E+00
(PID.TID 0000.0001) // =======================================================
(PID.TID 0000.0001) // Begin MONITOR dynamic field statistics
(PID.TID 0000.0001) // =======================================================
(PID.TID 0000.0001) %MON ad_time_tsnumber             =                 72009
(PID.TID 0000.0001) %MON ad_time_secondsf             =   6.2215776000000E+09
(PID.TID 0000.0001) %MON ad_dynstat_adeta_max         =   0.0000000000000E+00
(PID.TID 0000.0001) %MON ad_dynstat_adeta_min         =   0.0000000000000E+00
(PID.TID 0000.0001) %MON ad_dynstat_adeta_mean        =   0.0000000000000E+00
(PID.TID 0000.0001) %MON ad_dynstat_adeta_sd          =   0.0000000000000E+00
(PID.TID 0000.0001) %MON ad_dynstat_adeta_del2        =   0.0000000000000E+00
(PID.TID 0000.0001) %MON ad_dynstat_aduvel_max        =   9.0412382762156E+02
(PID.TID 0000.0001) %MON ad_dynstat_aduvel_min        =  -5.3624155320864E+02
(PID.TID 0000.0001) %MON ad_dynstat_aduvel_mean       =   3.2296623024555E-01
(PID.TID 0000.0001) %MON ad_dynstat_aduvel_sd         =   9.4683246989491E+00
(PID.TID 0000.0001) %MON ad_dynstat_aduvel_del2       =   1.0584646083665E-01
(PID.TID 0000.0001) %MON ad_dynstat_advvel_max        =   4.1892479898457E+02
(PID.TID 0000.0001) %MON ad_dynstat_advvel_min        =  -4.0503476487306E+02
(PID.TID 0000.0001) %MON ad_dynstat_advvel_mean       =   5.9656280182981E-01
(PID.TID 0000.0001) %MON ad_dynstat_advvel_sd         =   9.3000066217969E+00
(PID.TID 0000.0001) %MON ad_dynstat_advvel_del2       =   8.7614146545365E-02
(PID.TID 0000.0001) %MON ad_dynstat_adwvel_max        =   2.8237781672008E+02
(PID.TID 0000.0001) %MON ad_dynstat_adwvel_min        =  -1.7386236620703E+02
(PID.TID 0000.0001) %MON ad_dynstat_adwvel_mean       =  -9.8062897719601E-03
(PID.TID 0000.0001) %MON ad_dynstat_adwvel_sd         =   3.2465308978031E+00
(PID.TID 0000.0001) %MON ad_dynstat_adwvel_del2       =   4.1740427869770E-02
(PID.TID 0000.0001) %MON ad_dynstat_adtheta_max       =   5.4709518478581E+01
(PID.TID 0000.0001) %MON ad_dynstat_adtheta_min       =  -8.4590803729974E+01
(PID.TID 0000.0001) %MON ad_dynstat_adtheta_mean      =   6.2084387595369E-01
(PID.TID 0000.0001) %MON ad_dynstat_adtheta_sd        =   1.9789611927577E+00
(PID.TID 0000.0001) %MON ad_dynstat_adtheta_del2      =   1.4187510983502E-02
(PID.TID 0000.0001) %MON ad_dynstat_adsalt_max        =   2.6046577412721E+02
(PID.TID 0000.0001) %MON ad_dynstat_adsalt_min        =  -2.7694906783517E+02
(PID.TID 0000.0001) %MON ad_dynstat_adsalt_mean       =  -6.1316452529583E-02
(PID.TID 0000.0001) %MON ad_dynstat_adsalt_sd         =   3.6718793875293E+00
(PID.TID 0000.0001) %MON ad_dynstat_adsalt_del2       =   5.8260346986584E-02
(PID.TID 0000.0001) %MON ad_forcing_adqnet_max        =   0.0000000000000E+00
(PID.TID 0000.0001) %MON ad_forcing_adqnet_min        =   0.0000000000000E+00
(PID.TID 0000.0001) %MON ad_forcing_adqnet_mean       =   0.0000000000000E+00
(PID.TID 0000.0001) %MON ad_forcing_adqnet_sd         =   0.0000000000000E+00
(PID.TID 0000.0001) %MON ad_forcing_adqnet_del2       =   0.0000000000000E+00
(PID.TID 0000.0001) %MON ad_forcing_adqsw_max         =   1.3844898097118E-02
(PID.TID 0000.0001) %MON ad_forcing_adqsw_min         =  -7.9019343901830E-03
(PID.TID 0000.0001) %MON ad_forcing_adqsw_mean        =   2.1034362320282E-04
(PID.TID 0000.0001) %MON ad_forcing_adqsw_sd          =   6.1328031538639E-04
(PID.TID 0000.0001) %MON ad_forcing_adqsw_del2        =   2.1125367968678E-05
(PID.TID 0000.0001) %MON ad_forcing_adempmr_max       =   0.0000000000000E+00
(PID.TID 0000.0001) %MON ad_forcing_adempmr_min       =   0.0000000000000E+00
(PID.TID 0000.0001) %MON ad_forcing_adempmr_mean      =   0.0000000000000E+00
(PID.TID 0000.0001) %MON ad_forcing_adempmr_sd        =   0.0000000000000E+00
(PID.TID 0000.0001) %MON ad_forcing_adempmr_del2      =   0.0000000000000E+00
(PID.TID 0000.0001) %MON ad_forcing_adfu_max          =   0.0000000000000E+00
(PID.TID 0000.0001) %MON ad_forcing_adfu_min          =   0.0000000000000E+00
(PID.TID 0000.0001) %MON ad_forcing_adfu_mean         =   0.0000000000000E+00
(PID.TID 0000.0001) %MON ad_forcing_adfu_sd           =   0.0000000000000E+00
(PID.TID 0000.0001) %MON ad_forcing_adfu_del2         =   0.0000000000000E+00
(PID.TID 0000.0001) %MON ad_forcing_adfv_max          =   0.0000000000000E+00
(PID.TID 0000.0001) %MON ad_forcing_adfv_min          =   0.0000000000000E+00
(PID.TID 0000.0001) %MON ad_forcing_adfv_mean         =   0.0000000000000E+00
(PID.TID 0000.0001) %MON ad_forcing_adfv_sd           =   0.0000000000000E+00
(PID.TID 0000.0001) %MON ad_forcing_adfv_del2         =   0.0000000000000E+00
(PID.TID 0000.0001) %MON ad_advcfl_aduvel_max         =   3.8838274483543E+02
(PID.TID 0000.0001) %MON ad_advcfl_advvel_max         =   1.7654894779164E+02
(PID.TID 0000.0001) %MON ad_advcfl_adwvel_max         =   4.0662405607691E+05
(PID.TID 0000.0001) %MON ad_advcfl_adW_hf_max         =   4.8795263557893E+05
(PID.TID 0000.0001) // =======================================================
(PID.TID 0000.0001) // End MONITOR dynamic field statistics
(PID.TID 0000.0001) // =======================================================
 cg2d: Sum(rhs),rhsMax =  -1.11130722679764E-18  4.13897893901744E-03
 cg2d: Sum(rhs),rhsMax =  -9.37916411203332E-12  4.24510427778353E+00
 cg2d: Sum(rhs),rhsMax =  -9.37916411203332E-12  4.24510427778353E+00
(PID.TID 0000.0001) // =======================================================
(PID.TID 0000.0001) // Begin MONITOR dynamic field statistics
(PID.TID 0000.0001) // =======================================================
(PID.TID 0000.0001) %MON ad_time_tsnumber             =                 72008
(PID.TID 0000.0001) %MON ad_time_secondsf             =   6.2214912000000E+09
(PID.TID 0000.0001) %MON ad_dynstat_adeta_max         =   0.0000000000000E+00
(PID.TID 0000.0001) %MON ad_dynstat_adeta_min         =   0.0000000000000E+00
(PID.TID 0000.0001) %MON ad_dynstat_adeta_mean        =   0.0000000000000E+00
(PID.TID 0000.0001) %MON ad_dynstat_adeta_sd          =   0.0000000000000E+00
(PID.TID 0000.0001) %MON ad_dynstat_adeta_del2        =   0.0000000000000E+00
(PID.TID 0000.0001) %MON ad_dynstat_aduvel_max        =   9.6845077252956E+02
(PID.TID 0000.0001) %MON ad_dynstat_aduvel_min        =  -5.5741278823825E+02
(PID.TID 0000.0001) %MON ad_dynstat_aduvel_mean       =   3.5259020718870E-01
(PID.TID 0000.0001) %MON ad_dynstat_aduvel_sd         =   9.9913070344465E+00
(PID.TID 0000.0001) %MON ad_dynstat_aduvel_del2       =   1.1151815497635E-01
(PID.TID 0000.0001) %MON ad_dynstat_advvel_max        =   4.4755134551075E+02
(PID.TID 0000.0001) %MON ad_dynstat_advvel_min        =  -4.1000198651790E+02
(PID.TID 0000.0001) %MON ad_dynstat_advvel_mean       =   6.7062579272171E-01
(PID.TID 0000.0001) %MON ad_dynstat_advvel_sd         =   9.8428866192046E+00
(PID.TID 0000.0001) %MON ad_dynstat_advvel_del2       =   9.1944184807959E-02
(PID.TID 0000.0001) %MON ad_dynstat_adwvel_max        =   2.9603956206397E+02
(PID.TID 0000.0001) %MON ad_dynstat_adwvel_min        =  -1.8375228046687E+02
(PID.TID 0000.0001) %MON ad_dynstat_adwvel_mean       =  -1.0515159704657E-02
(PID.TID 0000.0001) %MON ad_dynstat_adwvel_sd         =   3.4403919628115E+00
(PID.TID 0000.0001) %MON ad_dynstat_adwvel_del2       =   4.3942056499158E-02
(PID.TID 0000.0001) %MON ad_dynstat_adtheta_max       =   5.2932810364715E+01
(PID.TID 0000.0001) %MON ad_dynstat_adtheta_min       =  -8.3183763936312E+01
(PID.TID 0000.0001) %MON ad_dynstat_adtheta_mean      =   6.2189410521648E-01
(PID.TID 0000.0001) %MON ad_dynstat_adtheta_sd        =   1.9941389281693E+00
(PID.TID 0000.0001) %MON ad_dynstat_adtheta_del2      =   1.3946845721449E-02
(PID.TID 0000.0001) %MON ad_dynstat_adsalt_max        =   2.5502197725721E+02
(PID.TID 0000.0001) %MON ad_dynstat_adsalt_min        =  -2.6506155545360E+02
(PID.TID 0000.0001) %MON ad_dynstat_adsalt_mean       =  -6.8506415233400E-02
(PID.TID 0000.0001) %MON ad_dynstat_adsalt_sd         =   3.9958246249521E+00
(PID.TID 0000.0001) %MON ad_dynstat_adsalt_del2       =   5.7925177262182E-02
(PID.TID 0000.0001) %MON ad_forcing_adqnet_max        =   0.0000000000000E+00
(PID.TID 0000.0001) %MON ad_forcing_adqnet_min        =   0.0000000000000E+00
(PID.TID 0000.0001) %MON ad_forcing_adqnet_mean       =   0.0000000000000E+00
(PID.TID 0000.0001) %MON ad_forcing_adqnet_sd         =   0.0000000000000E+00
(PID.TID 0000.0001) %MON ad_forcing_adqnet_del2       =   0.0000000000000E+00
(PID.TID 0000.0001) %MON ad_forcing_adqsw_max         =   1.5291748274666E-02
(PID.TID 0000.0001) %MON ad_forcing_adqsw_min         =  -8.6548298292364E-03
(PID.TID 0000.0001) %MON ad_forcing_adqsw_mean        =   2.2882874606320E-04
(PID.TID 0000.0001) %MON ad_forcing_adqsw_sd          =   6.6744895611745E-04
(PID.TID 0000.0001) %MON ad_forcing_adqsw_del2        =   2.3151173846364E-05
(PID.TID 0000.0001) %MON ad_forcing_adempmr_max       =   0.0000000000000E+00
(PID.TID 0000.0001) %MON ad_forcing_adempmr_min       =   0.0000000000000E+00
(PID.TID 0000.0001) %MON ad_forcing_adempmr_mean      =   0.0000000000000E+00
(PID.TID 0000.0001) %MON ad_forcing_adempmr_sd        =   0.0000000000000E+00
(PID.TID 0000.0001) %MON ad_forcing_adempmr_del2      =   0.0000000000000E+00
(PID.TID 0000.0001) %MON ad_forcing_adfu_max          =   0.0000000000000E+00
(PID.TID 0000.0001) %MON ad_forcing_adfu_min          =   0.0000000000000E+00
(PID.TID 0000.0001) %MON ad_forcing_adfu_mean         =   0.0000000000000E+00
(PID.TID 0000.0001) %MON ad_forcing_adfu_sd           =   0.0000000000000E+00
(PID.TID 0000.0001) %MON ad_forcing_adfu_del2         =   0.0000000000000E+00
(PID.TID 0000.0001) %MON ad_forcing_adfv_max          =   0.0000000000000E+00
(PID.TID 0000.0001) %MON ad_forcing_adfv_min          =   0.0000000000000E+00
(PID.TID 0000.0001) %MON ad_forcing_adfv_mean         =   0.0000000000000E+00
(PID.TID 0000.0001) %MON ad_forcing_adfv_sd           =   0.0000000000000E+00
(PID.TID 0000.0001) %MON ad_forcing_adfv_del2         =   0.0000000000000E+00
(PID.TID 0000.0001) %MON ad_advcfl_aduvel_max         =   4.1601554762968E+02
(PID.TID 0000.0001) %MON ad_advcfl_advvel_max         =   1.7871408972735E+02
(PID.TID 0000.0001) %MON ad_advcfl_adwvel_max         =   4.2629696937212E+05
(PID.TID 0000.0001) %MON ad_advcfl_adW_hf_max         =   5.1156035209425E+05
(PID.TID 0000.0001) // =======================================================
(PID.TID 0000.0001) // End MONITOR dynamic field statistics
(PID.TID 0000.0001) // =======================================================
 cg2d: Sum(rhs),rhsMax =  -2.71050543121376E-19  4.01473319064860E-03
 cg2d: Sum(rhs),rhsMax =  -9.74864633462857E-12  4.24897733577763E+00
 cg2d: Sum(rhs),rhsMax =  -9.74864633462857E-12  4.24897733577763E+00
(PID.TID 0000.0001) // =======================================================
(PID.TID 0000.0001) // Begin MONITOR dynamic field statistics
(PID.TID 0000.0001) // =======================================================
(PID.TID 0000.0001) %MON ad_time_tsnumber             =                 72007
(PID.TID 0000.0001) %MON ad_time_secondsf             =   6.2214048000000E+09
(PID.TID 0000.0001) %MON ad_dynstat_adeta_max         =   0.0000000000000E+00
(PID.TID 0000.0001) %MON ad_dynstat_adeta_min         =   0.0000000000000E+00
(PID.TID 0000.0001) %MON ad_dynstat_adeta_mean        =   0.0000000000000E+00
(PID.TID 0000.0001) %MON ad_dynstat_adeta_sd          =   0.0000000000000E+00
(PID.TID 0000.0001) %MON ad_dynstat_adeta_del2        =   0.0000000000000E+00
(PID.TID 0000.0001) %MON ad_dynstat_aduvel_max        =   1.0091564823391E+03
(PID.TID 0000.0001) %MON ad_dynstat_aduvel_min        =  -5.5850582438109E+02
(PID.TID 0000.0001) %MON ad_dynstat_aduvel_mean       =   3.8237970072315E-01
(PID.TID 0000.0001) %MON ad_dynstat_aduvel_sd         =   1.0470193619211E+01
(PID.TID 0000.0001) %MON ad_dynstat_aduvel_del2       =   1.1615265994259E-01
(PID.TID 0000.0001) %MON ad_dynstat_advvel_max        =   4.7417210889356E+02
(PID.TID 0000.0001) %MON ad_dynstat_advvel_min        =  -3.9687175732468E+02
(PID.TID 0000.0001) %MON ad_dynstat_advvel_mean       =   7.4495340415734E-01
(PID.TID 0000.0001) %MON ad_dynstat_advvel_sd         =   1.0341850674175E+01
(PID.TID 0000.0001) %MON ad_dynstat_advvel_del2       =   9.5438051870453E-02
(PID.TID 0000.0001) %MON ad_dynstat_adwvel_max        =   3.0772116891203E+02
(PID.TID 0000.0001) %MON ad_dynstat_adwvel_min        =  -1.9261384473594E+02
(PID.TID 0000.0001) %MON ad_dynstat_adwvel_mean       =  -1.1104360536317E-02
(PID.TID 0000.0001) %MON ad_dynstat_adwvel_sd         =   3.6196362230118E+00
(PID.TID 0000.0001) %MON ad_dynstat_adwvel_del2       =   4.5957766603302E-02
(PID.TID 0000.0001) %MON ad_dynstat_adtheta_max       =   5.1133700551704E+01
(PID.TID 0000.0001) %MON ad_dynstat_adtheta_min       =  -8.1753314571528E+01
(PID.TID 0000.0001) %MON ad_dynstat_adtheta_mean      =   6.2290256202357E-01
(PID.TID 0000.0001) %MON ad_dynstat_adtheta_sd        =   2.0110029288918E+00
(PID.TID 0000.0001) %MON ad_dynstat_adtheta_del2      =   1.3778394274294E-02
(PID.TID 0000.0001) %MON ad_dynstat_adsalt_max        =   2.4957565163682E+02
(PID.TID 0000.0001) %MON ad_dynstat_adsalt_min        =  -2.5975743281085E+02
(PID.TID 0000.0001) %MON ad_dynstat_adsalt_mean       =  -7.5535612556193E-02
(PID.TID 0000.0001) %MON ad_dynstat_adsalt_sd         =   4.3154411887171E+00
(PID.TID 0000.0001) %MON ad_dynstat_adsalt_del2       =   5.7869628829702E-02
(PID.TID 0000.0001) %MON ad_forcing_adqnet_max        =   0.0000000000000E+00
(PID.TID 0000.0001) %MON ad_forcing_adqnet_min        =   0.0000000000000E+00
(PID.TID 0000.0001) %MON ad_forcing_adqnet_mean       =   0.0000000000000E+00
(PID.TID 0000.0001) %MON ad_forcing_adqnet_sd         =   0.0000000000000E+00
(PID.TID 0000.0001) %MON ad_forcing_adqnet_del2       =   0.0000000000000E+00
(PID.TID 0000.0001) %MON ad_forcing_adqsw_max         =   1.6705776389407E-02
(PID.TID 0000.0001) %MON ad_forcing_adqsw_min         =  -9.2949833670982E-03
(PID.TID 0000.0001) %MON ad_forcing_adqsw_mean        =   2.4716720475473E-04
(PID.TID 0000.0001) %MON ad_forcing_adqsw_sd          =   7.2050558565185E-04
(PID.TID 0000.0001) %MON ad_forcing_adqsw_del2        =   2.5109269152315E-05
(PID.TID 0000.0001) %MON ad_forcing_adempmr_max       =   0.0000000000000E+00
(PID.TID 0000.0001) %MON ad_forcing_adempmr_min       =   0.0000000000000E+00
(PID.TID 0000.0001) %MON ad_forcing_adempmr_mean      =   0.0000000000000E+00
(PID.TID 0000.0001) %MON ad_forcing_adempmr_sd        =   0.0000000000000E+00
(PID.TID 0000.0001) %MON ad_forcing_adempmr_del2      =   0.0000000000000E+00
(PID.TID 0000.0001) %MON ad_forcing_adfu_max          =   0.0000000000000E+00
(PID.TID 0000.0001) %MON ad_forcing_adfu_min          =   0.0000000000000E+00
(PID.TID 0000.0001) %MON ad_forcing_adfu_mean         =   0.0000000000000E+00
(PID.TID 0000.0001) %MON ad_forcing_adfu_sd           =   0.0000000000000E+00
(PID.TID 0000.0001) %MON ad_forcing_adfu_del2         =   0.0000000000000E+00
(PID.TID 0000.0001) %MON ad_forcing_adfv_max          =   0.0000000000000E+00
(PID.TID 0000.0001) %MON ad_forcing_adfv_min          =   0.0000000000000E+00
(PID.TID 0000.0001) %MON ad_forcing_adfv_mean         =   0.0000000000000E+00
(PID.TID 0000.0001) %MON ad_forcing_adfv_sd           =   0.0000000000000E+00
(PID.TID 0000.0001) %MON ad_forcing_adfv_del2         =   0.0000000000000E+00
(PID.TID 0000.0001) %MON ad_advcfl_aduvel_max         =   4.3350142160324E+02
(PID.TID 0000.0001) %MON ad_advcfl_advvel_max         =   1.7299080780350E+02
(PID.TID 0000.0001) %MON ad_advcfl_adwvel_max         =   4.4311848323333E+05
(PID.TID 0000.0001) %MON ad_advcfl_adW_hf_max         =   5.3174637272867E+05
(PID.TID 0000.0001) // =======================================================
(PID.TID 0000.0001) // End MONITOR dynamic field statistics
(PID.TID 0000.0001) // =======================================================
 cg2d: Sum(rhs),rhsMax =  -6.50521303491303E-19  3.63797725722568E-03
 cg2d: Sum(rhs),rhsMax =  -9.66338120633736E-12  4.25317697567183E+00
 cg2d: Sum(rhs),rhsMax =  -9.66338120633736E-12  4.25317697567183E+00
(PID.TID 0000.0001) // =======================================================
(PID.TID 0000.0001) // Begin MONITOR dynamic field statistics
(PID.TID 0000.0001) // =======================================================
(PID.TID 0000.0001) %MON ad_time_tsnumber             =                 72006
(PID.TID 0000.0001) %MON ad_time_secondsf             =   6.2213184000000E+09
(PID.TID 0000.0001) %MON ad_dynstat_adeta_max         =   0.0000000000000E+00
(PID.TID 0000.0001) %MON ad_dynstat_adeta_min         =   0.0000000000000E+00
(PID.TID 0000.0001) %MON ad_dynstat_adeta_mean        =   0.0000000000000E+00
(PID.TID 0000.0001) %MON ad_dynstat_adeta_sd          =   0.0000000000000E+00
(PID.TID 0000.0001) %MON ad_dynstat_adeta_del2        =   0.0000000000000E+00
(PID.TID 0000.0001) %MON ad_dynstat_aduvel_max        =   1.0278118862758E+03
(PID.TID 0000.0001) %MON ad_dynstat_aduvel_min        =  -5.4142916639930E+02
(PID.TID 0000.0001) %MON ad_dynstat_aduvel_mean       =   4.1277672567717E-01
(PID.TID 0000.0001) %MON ad_dynstat_aduvel_sd         =   1.0913852180345E+01
(PID.TID 0000.0001) %MON ad_dynstat_aduvel_del2       =   1.1982699851573E-01
(PID.TID 0000.0001) %MON ad_dynstat_advvel_max        =   4.9846268606720E+02
(PID.TID 0000.0001) %MON ad_dynstat_advvel_min        =  -3.6762725374557E+02
(PID.TID 0000.0001) %MON ad_dynstat_advvel_mean       =   8.1852385165767E-01
(PID.TID 0000.0001) %MON ad_dynstat_advvel_sd         =   1.0802440139773E+01
(PID.TID 0000.0001) %MON ad_dynstat_advvel_del2       =   9.8224691793382E-02
(PID.TID 0000.0001) %MON ad_dynstat_adwvel_max        =   3.1746176664244E+02
(PID.TID 0000.0001) %MON ad_dynstat_adwvel_min        =  -2.0043847382199E+02
(PID.TID 0000.0001) %MON ad_dynstat_adwvel_mean       =  -1.1594700558787E-02
(PID.TID 0000.0001) %MON ad_dynstat_adwvel_sd         =   3.7842656390956E+00
(PID.TID 0000.0001) %MON ad_dynstat_adwvel_del2       =   4.7725299311360E-02
(PID.TID 0000.0001) %MON ad_dynstat_adtheta_max       =   4.9331956097776E+01
(PID.TID 0000.0001) %MON ad_dynstat_adtheta_min       =  -8.0321401279846E+01
(PID.TID 0000.0001) %MON ad_dynstat_adtheta_mean      =   6.2386969447574E-01
(PID.TID 0000.0001) %MON ad_dynstat_adtheta_sd        =   2.0289607783685E+00
(PID.TID 0000.0001) %MON ad_dynstat_adtheta_del2      =   1.3624006091545E-02
(PID.TID 0000.0001) %MON ad_dynstat_adsalt_max        =   2.4419824425562E+02
(PID.TID 0000.0001) %MON ad_dynstat_adsalt_min        =  -2.5421136777933E+02
(PID.TID 0000.0001) %MON ad_dynstat_adsalt_mean       =  -8.2338663407675E-02
(PID.TID 0000.0001) %MON ad_dynstat_adsalt_sd         =   4.6234974466610E+00
(PID.TID 0000.0001) %MON ad_dynstat_adsalt_del2       =   5.7858142191327E-02
(PID.TID 0000.0001) %MON ad_forcing_adqnet_max        =   0.0000000000000E+00
(PID.TID 0000.0001) %MON ad_forcing_adqnet_min        =   0.0000000000000E+00
(PID.TID 0000.0001) %MON ad_forcing_adqnet_mean       =   0.0000000000000E+00
(PID.TID 0000.0001) %MON ad_forcing_adqnet_sd         =   0.0000000000000E+00
(PID.TID 0000.0001) %MON ad_forcing_adqnet_del2       =   0.0000000000000E+00
(PID.TID 0000.0001) %MON ad_forcing_adqsw_max         =   1.8086007138672E-02
(PID.TID 0000.0001) %MON ad_forcing_adqsw_min         =  -9.8301909798419E-03
(PID.TID 0000.0001) %MON ad_forcing_adqsw_mean        =   2.6534324237414E-04
(PID.TID 0000.0001) %MON ad_forcing_adqsw_sd          =   7.7246369322431E-04
(PID.TID 0000.0001) %MON ad_forcing_adqsw_del2        =   2.7000916535393E-05
(PID.TID 0000.0001) %MON ad_forcing_adempmr_max       =   0.0000000000000E+00
(PID.TID 0000.0001) %MON ad_forcing_adempmr_min       =   0.0000000000000E+00
(PID.TID 0000.0001) %MON ad_forcing_adempmr_mean      =   0.0000000000000E+00
(PID.TID 0000.0001) %MON ad_forcing_adempmr_sd        =   0.0000000000000E+00
(PID.TID 0000.0001) %MON ad_forcing_adempmr_del2      =   0.0000000000000E+00
(PID.TID 0000.0001) %MON ad_forcing_adfu_max          =   0.0000000000000E+00
(PID.TID 0000.0001) %MON ad_forcing_adfu_min          =   0.0000000000000E+00
(PID.TID 0000.0001) %MON ad_forcing_adfu_mean         =   0.0000000000000E+00
(PID.TID 0000.0001) %MON ad_forcing_adfu_sd           =   0.0000000000000E+00
(PID.TID 0000.0001) %MON ad_forcing_adfu_del2         =   0.0000000000000E+00
(PID.TID 0000.0001) %MON ad_forcing_adfv_max          =   0.0000000000000E+00
(PID.TID 0000.0001) %MON ad_forcing_adfv_min          =   0.0000000000000E+00
(PID.TID 0000.0001) %MON ad_forcing_adfv_mean         =   0.0000000000000E+00
(PID.TID 0000.0001) %MON ad_forcing_adfv_sd           =   0.0000000000000E+00
(PID.TID 0000.0001) %MON ad_forcing_adfv_del2         =   0.0000000000000E+00
(PID.TID 0000.0001) %MON ad_advcfl_aduvel_max         =   4.4151518782157E+02
(PID.TID 0000.0001) %MON ad_advcfl_advvel_max         =   1.6024354069620E+02
(PID.TID 0000.0001) %MON ad_advcfl_adwvel_max         =   4.5714494396512E+05
(PID.TID 0000.0001) %MON ad_advcfl_adW_hf_max         =   5.4857831009700E+05
(PID.TID 0000.0001) // =======================================================
(PID.TID 0000.0001) // End MONITOR dynamic field statistics
(PID.TID 0000.0001) // =======================================================
 cg2d: Sum(rhs),rhsMax =  -2.05998412772246E-18  3.04294287021282E-03
 cg2d: Sum(rhs),rhsMax =  -9.89075488178059E-12  4.25768834061612E+00
 cg2d: Sum(rhs),rhsMax =  -9.89075488178059E-12  4.25768834061612E+00
(PID.TID 0000.0001) // =======================================================
(PID.TID 0000.0001) // Begin MONITOR dynamic field statistics
(PID.TID 0000.0001) // =======================================================
(PID.TID 0000.0001) %MON ad_time_tsnumber             =                 72005
(PID.TID 0000.0001) %MON ad_time_secondsf             =   6.2212320000000E+09
(PID.TID 0000.0001) %MON ad_dynstat_adeta_max         =   0.0000000000000E+00
(PID.TID 0000.0001) %MON ad_dynstat_adeta_min         =   0.0000000000000E+00
(PID.TID 0000.0001) %MON ad_dynstat_adeta_mean        =   0.0000000000000E+00
(PID.TID 0000.0001) %MON ad_dynstat_adeta_sd          =   0.0000000000000E+00
(PID.TID 0000.0001) %MON ad_dynstat_adeta_del2        =   0.0000000000000E+00
(PID.TID 0000.0001) %MON ad_dynstat_aduvel_max        =   1.0268514079465E+03
(PID.TID 0000.0001) %MON ad_dynstat_aduvel_min        =  -5.6656045379946E+02
(PID.TID 0000.0001) %MON ad_dynstat_aduvel_mean       =   4.4478516190129E-01
(PID.TID 0000.0001) %MON ad_dynstat_aduvel_sd         =   1.1331377583155E+01
(PID.TID 0000.0001) %MON ad_dynstat_aduvel_del2       =   1.2281434224215E-01
(PID.TID 0000.0001) %MON ad_dynstat_advvel_max        =   5.2028209311979E+02
(PID.TID 0000.0001) %MON ad_dynstat_advvel_min        =  -3.2481855849173E+02
(PID.TID 0000.0001) %MON ad_dynstat_advvel_mean       =   8.8956857011604E-01
(PID.TID 0000.0001) %MON ad_dynstat_advvel_sd         =   1.1229524420691E+01
(PID.TID 0000.0001) %MON ad_dynstat_advvel_del2       =   1.0062612762367E-01
(PID.TID 0000.0001) %MON ad_dynstat_adwvel_max        =   3.2532753009978E+02
(PID.TID 0000.0001) %MON ad_dynstat_adwvel_min        =  -2.0722551751927E+02
(PID.TID 0000.0001) %MON ad_dynstat_adwvel_mean       =  -1.1978845514295E-02
(PID.TID 0000.0001) %MON ad_dynstat_adwvel_sd         =   3.9344554867120E+00
(PID.TID 0000.0001) %MON ad_dynstat_adwvel_del2       =   4.9321349448663E-02
(PID.TID 0000.0001) %MON ad_dynstat_adtheta_max       =   4.7541080153049E+01
(PID.TID 0000.0001) %MON ad_dynstat_adtheta_min       =  -7.8901786099969E+01
(PID.TID 0000.0001) %MON ad_dynstat_adtheta_mean      =   6.2478672597865E-01
(PID.TID 0000.0001) %MON ad_dynstat_adtheta_sd        =   2.0473347983900E+00
(PID.TID 0000.0001) %MON ad_dynstat_adtheta_del2      =   1.3497606661431E-02
(PID.TID 0000.0001) %MON ad_dynstat_adsalt_max        =   2.3893263186161E+02
(PID.TID 0000.0001) %MON ad_dynstat_adsalt_min        =  -2.4848406289662E+02
(PID.TID 0000.0001) %MON ad_dynstat_adsalt_mean       =  -8.8894449215008E-02
(PID.TID 0000.0001) %MON ad_dynstat_adsalt_sd         =   4.9140662982188E+00
(PID.TID 0000.0001) %MON ad_dynstat_adsalt_del2       =   5.7861203410562E-02
(PID.TID 0000.0001) %MON ad_forcing_adqnet_max        =   0.0000000000000E+00
(PID.TID 0000.0001) %MON ad_forcing_adqnet_min        =   0.0000000000000E+00
(PID.TID 0000.0001) %MON ad_forcing_adqnet_mean       =   0.0000000000000E+00
(PID.TID 0000.0001) %MON ad_forcing_adqnet_sd         =   0.0000000000000E+00
(PID.TID 0000.0001) %MON ad_forcing_adqnet_del2       =   0.0000000000000E+00
(PID.TID 0000.0001) %MON ad_forcing_adqsw_max         =   1.9432024684765E-02
(PID.TID 0000.0001) %MON ad_forcing_adqsw_min         =  -1.0272130970535E-02
(PID.TID 0000.0001) %MON ad_forcing_adqsw_mean        =   2.8334860197776E-04
(PID.TID 0000.0001) %MON ad_forcing_adqsw_sd          =   8.2336014175374E-04
(PID.TID 0000.0001) %MON ad_forcing_adqsw_del2        =   2.8829505990161E-05
(PID.TID 0000.0001) %MON ad_forcing_adempmr_max       =   0.0000000000000E+00
(PID.TID 0000.0001) %MON ad_forcing_adempmr_min       =   0.0000000000000E+00
(PID.TID 0000.0001) %MON ad_forcing_adempmr_mean      =   0.0000000000000E+00
(PID.TID 0000.0001) %MON ad_forcing_adempmr_sd        =   0.0000000000000E+00
(PID.TID 0000.0001) %MON ad_forcing_adempmr_del2      =   0.0000000000000E+00
(PID.TID 0000.0001) %MON ad_forcing_adfu_max          =   0.0000000000000E+00
(PID.TID 0000.0001) %MON ad_forcing_adfu_min          =   0.0000000000000E+00
(PID.TID 0000.0001) %MON ad_forcing_adfu_mean         =   0.0000000000000E+00
(PID.TID 0000.0001) %MON ad_forcing_adfu_sd           =   0.0000000000000E+00
(PID.TID 0000.0001) %MON ad_forcing_adfu_del2         =   0.0000000000000E+00
(PID.TID 0000.0001) %MON ad_forcing_adfv_max          =   0.0000000000000E+00
(PID.TID 0000.0001) %MON ad_forcing_adfv_min          =   0.0000000000000E+00
(PID.TID 0000.0001) %MON ad_forcing_adfv_mean         =   0.0000000000000E+00
(PID.TID 0000.0001) %MON ad_forcing_adfv_sd           =   0.0000000000000E+00
(PID.TID 0000.0001) %MON ad_forcing_adfv_del2         =   0.0000000000000E+00
(PID.TID 0000.0001) %MON ad_advcfl_aduvel_max         =   4.4110259698111E+02
(PID.TID 0000.0001) %MON ad_advcfl_advvel_max         =   1.6659411798368E+02
(PID.TID 0000.0001) %MON ad_advcfl_adwvel_max         =   4.6847164334369E+05
(PID.TID 0000.0001) %MON ad_advcfl_adW_hf_max         =   5.6217050859544E+05
(PID.TID 0000.0001) // =======================================================
(PID.TID 0000.0001) // End MONITOR dynamic field statistics
(PID.TID 0000.0001) // =======================================================
 cg2d: Sum(rhs),rhsMax =  -3.79470760369927E-19  2.27802185032603E-03
 cg2d: Sum(rhs),rhsMax =  -9.83391146291979E-12  4.26249552210549E+00
 cg2d: Sum(rhs),rhsMax =  -9.83391146291979E-12  4.26249552210549E+00
(PID.TID 0000.0001) // =======================================================
(PID.TID 0000.0001) // Begin MONITOR dynamic field statistics
(PID.TID 0000.0001) // =======================================================
(PID.TID 0000.0001) %MON ad_time_tsnumber             =                 72004
(PID.TID 0000.0001) %MON ad_time_secondsf             =   6.2211456000000E+09
(PID.TID 0000.0001) %MON ad_dynstat_adeta_max         =   0.0000000000000E+00
(PID.TID 0000.0001) %MON ad_dynstat_adeta_min         =   0.0000000000000E+00
(PID.TID 0000.0001) %MON ad_dynstat_adeta_mean        =   0.0000000000000E+00
(PID.TID 0000.0001) %MON ad_dynstat_adeta_sd          =   0.0000000000000E+00
(PID.TID 0000.0001) %MON ad_dynstat_adeta_del2        =   0.0000000000000E+00
(PID.TID 0000.0001) %MON ad_dynstat_aduvel_max        =   1.0090175687914E+03
(PID.TID 0000.0001) %MON ad_dynstat_aduvel_min        =  -6.0037073147230E+02
(PID.TID 0000.0001) %MON ad_dynstat_aduvel_mean       =   4.7845829907739E-01
(PID.TID 0000.0001) %MON ad_dynstat_aduvel_sd         =   1.1731448858689E+01
(PID.TID 0000.0001) %MON ad_dynstat_aduvel_del2       =   1.2531604261484E-01
(PID.TID 0000.0001) %MON ad_dynstat_advvel_max        =   5.3956456112731E+02
(PID.TID 0000.0001) %MON ad_dynstat_advvel_min        =  -2.9187097303356E+02
(PID.TID 0000.0001) %MON ad_dynstat_advvel_mean       =   9.5707617305541E-01
(PID.TID 0000.0001) %MON ad_dynstat_advvel_sd         =   1.1630593679173E+01
(PID.TID 0000.0001) %MON ad_dynstat_advvel_del2       =   1.0296679130087E-01
(PID.TID 0000.0001) %MON ad_dynstat_adwvel_max        =   3.3140116236920E+02
(PID.TID 0000.0001) %MON ad_dynstat_adwvel_min        =  -2.1297921752586E+02
(PID.TID 0000.0001) %MON ad_dynstat_adwvel_mean       =  -1.2260588066171E-02
(PID.TID 0000.0001) %MON ad_dynstat_adwvel_sd         =   4.0713934813957E+00
(PID.TID 0000.0001) %MON ad_dynstat_adwvel_del2       =   5.0741864915752E-02
(PID.TID 0000.0001) %MON ad_dynstat_adtheta_max       =   4.5768447075679E+01
(PID.TID 0000.0001) %MON ad_dynstat_adtheta_min       =  -7.7519851751646E+01
(PID.TID 0000.0001) %MON ad_dynstat_adtheta_mean      =   6.2565135569151E-01
(PID.TID 0000.0001) %MON ad_dynstat_adtheta_sd        =   2.0656757744943E+00
(PID.TID 0000.0001) %MON ad_dynstat_adtheta_del2      =   1.3391241619234E-02
(PID.TID 0000.0001) %MON ad_dynstat_adsalt_max        =   2.3386013654410E+02
(PID.TID 0000.0001) %MON ad_dynstat_adsalt_min        =  -2.4261220556169E+02
(PID.TID 0000.0001) %MON ad_dynstat_adsalt_mean       =  -9.5150962492509E-02
(PID.TID 0000.0001) %MON ad_dynstat_adsalt_sd         =   5.1840451469877E+00
(PID.TID 0000.0001) %MON ad_dynstat_adsalt_del2       =   5.7806505551648E-02
(PID.TID 0000.0001) %MON ad_forcing_adqnet_max        =   0.0000000000000E+00
(PID.TID 0000.0001) %MON ad_forcing_adqnet_min        =   0.0000000000000E+00
(PID.TID 0000.0001) %MON ad_forcing_adqnet_mean       =   0.0000000000000E+00
(PID.TID 0000.0001) %MON ad_forcing_adqnet_sd         =   0.0000000000000E+00
(PID.TID 0000.0001) %MON ad_forcing_adqnet_del2       =   0.0000000000000E+00
(PID.TID 0000.0001) %MON ad_forcing_adqsw_max         =   2.0743796868745E-02
(PID.TID 0000.0001) %MON ad_forcing_adqsw_min         =  -1.0634052273484E-02
(PID.TID 0000.0001) %MON ad_forcing_adqsw_mean        =   3.0118672052427E-04
(PID.TID 0000.0001) %MON ad_forcing_adqsw_sd          =   8.7323604957248E-04
(PID.TID 0000.0001) %MON ad_forcing_adqsw_del2        =   3.0599105451701E-05
(PID.TID 0000.0001) %MON ad_forcing_adempmr_max       =   0.0000000000000E+00
(PID.TID 0000.0001) %MON ad_forcing_adempmr_min       =   0.0000000000000E+00
(PID.TID 0000.0001) %MON ad_forcing_adempmr_mean      =   0.0000000000000E+00
(PID.TID 0000.0001) %MON ad_forcing_adempmr_sd        =   0.0000000000000E+00
(PID.TID 0000.0001) %MON ad_forcing_adempmr_del2      =   0.0000000000000E+00
(PID.TID 0000.0001) %MON ad_forcing_adfu_max          =   0.0000000000000E+00
(PID.TID 0000.0001) %MON ad_forcing_adfu_min          =   0.0000000000000E+00
(PID.TID 0000.0001) %MON ad_forcing_adfu_mean         =   0.0000000000000E+00
(PID.TID 0000.0001) %MON ad_forcing_adfu_sd           =   0.0000000000000E+00
(PID.TID 0000.0001) %MON ad_forcing_adfu_del2         =   0.0000000000000E+00
(PID.TID 0000.0001) %MON ad_forcing_adfv_max          =   0.0000000000000E+00
(PID.TID 0000.0001) %MON ad_forcing_adfv_min          =   0.0000000000000E+00
(PID.TID 0000.0001) %MON ad_forcing_adfv_mean         =   0.0000000000000E+00
(PID.TID 0000.0001) %MON ad_forcing_adfv_sd           =   0.0000000000000E+00
(PID.TID 0000.0001) %MON ad_forcing_adfv_del2         =   0.0000000000000E+00
(PID.TID 0000.0001) %MON ad_advcfl_aduvel_max         =   4.3344174877605E+02
(PID.TID 0000.0001) %MON ad_advcfl_advvel_max         =   1.7276835652224E+02
(PID.TID 0000.0001) %MON ad_advcfl_adwvel_max         =   4.7721767381165E+05
(PID.TID 0000.0001) %MON ad_advcfl_adW_hf_max         =   5.7266587343050E+05
(PID.TID 0000.0001) // =======================================================
(PID.TID 0000.0001) // End MONITOR dynamic field statistics
(PID.TID 0000.0001) // =======================================================
 cg2d: Sum(rhs),rhsMax =  -3.38813178901720E-19  1.39108809827405E-03
 cg2d: Sum(rhs),rhsMax =  -9.74864633462857E-12  4.26761612032118E+00
 cg2d: Sum(rhs),rhsMax =  -9.74864633462857E-12  4.26761612032118E+00
(PID.TID 0000.0001) // =======================================================
(PID.TID 0000.0001) // Begin MONITOR dynamic field statistics
(PID.TID 0000.0001) // =======================================================
(PID.TID 0000.0001) %MON ad_time_tsnumber             =                 72003
(PID.TID 0000.0001) %MON ad_time_secondsf             =   6.2210592000000E+09
(PID.TID 0000.0001) %MON ad_dynstat_adeta_max         =   0.0000000000000E+00
(PID.TID 0000.0001) %MON ad_dynstat_adeta_min         =   0.0000000000000E+00
(PID.TID 0000.0001) %MON ad_dynstat_adeta_mean        =   0.0000000000000E+00
(PID.TID 0000.0001) %MON ad_dynstat_adeta_sd          =   0.0000000000000E+00
(PID.TID 0000.0001) %MON ad_dynstat_adeta_del2        =   0.0000000000000E+00
(PID.TID 0000.0001) %MON ad_dynstat_aduvel_max        =   9.7717594916710E+02
(PID.TID 0000.0001) %MON ad_dynstat_aduvel_min        =  -6.3282112282291E+02
(PID.TID 0000.0001) %MON ad_dynstat_aduvel_mean       =   5.1343558981824E-01
(PID.TID 0000.0001) %MON ad_dynstat_aduvel_sd         =   1.2121130170135E+01
(PID.TID 0000.0001) %MON ad_dynstat_aduvel_del2       =   1.2756977819191E-01
(PID.TID 0000.0001) %MON ad_dynstat_advvel_max        =   5.5655828532842E+02
(PID.TID 0000.0001) %MON ad_dynstat_advvel_min        =  -3.2484977136397E+02
(PID.TID 0000.0001) %MON ad_dynstat_advvel_mean       =   1.0200767883229E+00
(PID.TID 0000.0001) %MON ad_dynstat_advvel_sd         =   1.2010213958142E+01
(PID.TID 0000.0001) %MON ad_dynstat_advvel_del2       =   1.0542080468587E-01
(PID.TID 0000.0001) %MON ad_dynstat_adwvel_max        =   3.3577391094178E+02
(PID.TID 0000.0001) %MON ad_dynstat_adwvel_min        =  -2.2225782041955E+02
(PID.TID 0000.0001) %MON ad_dynstat_adwvel_mean       =  -1.2436852291886E-02
(PID.TID 0000.0001) %MON ad_dynstat_adwvel_sd         =   4.1971956744396E+00
(PID.TID 0000.0001) %MON ad_dynstat_adwvel_del2       =   5.2052779995715E-02
(PID.TID 0000.0001) %MON ad_dynstat_adtheta_max       =   4.4012602203061E+01
(PID.TID 0000.0001) %MON ad_dynstat_adtheta_min       =  -7.6174094372296E+01
(PID.TID 0000.0001) %MON ad_dynstat_adtheta_mean      =   6.2645376214418E-01
(PID.TID 0000.0001) %MON ad_dynstat_adtheta_sd        =   2.0840726052091E+00
(PID.TID 0000.0001) %MON ad_dynstat_adtheta_del2      =   1.3324618298850E-02
(PID.TID 0000.0001) %MON ad_dynstat_adsalt_max        =   2.2897545773655E+02
(PID.TID 0000.0001) %MON ad_dynstat_adsalt_min        =  -2.3659894132888E+02
(PID.TID 0000.0001) %MON ad_dynstat_adsalt_mean       =  -1.0105336508913E-01
(PID.TID 0000.0001) %MON ad_dynstat_adsalt_sd         =   5.4341735624077E+00
(PID.TID 0000.0001) %MON ad_dynstat_adsalt_del2       =   5.7734989926474E-02
(PID.TID 0000.0001) %MON ad_forcing_adqnet_max        =   0.0000000000000E+00
(PID.TID 0000.0001) %MON ad_forcing_adqnet_min        =   0.0000000000000E+00
(PID.TID 0000.0001) %MON ad_forcing_adqnet_mean       =   0.0000000000000E+00
(PID.TID 0000.0001) %MON ad_forcing_adqnet_sd         =   0.0000000000000E+00
(PID.TID 0000.0001) %MON ad_forcing_adqnet_del2       =   0.0000000000000E+00
(PID.TID 0000.0001) %MON ad_forcing_adqsw_max         =   2.2021683226723E-02
(PID.TID 0000.0001) %MON ad_forcing_adqsw_min         =  -1.0929013078622E-02
(PID.TID 0000.0001) %MON ad_forcing_adqsw_mean        =   3.1884909040724E-04
(PID.TID 0000.0001) %MON ad_forcing_adqsw_sd          =   9.2214421857107E-04
(PID.TID 0000.0001) %MON ad_forcing_adqsw_del2        =   3.2314067649015E-05
(PID.TID 0000.0001) %MON ad_forcing_adempmr_max       =   0.0000000000000E+00
(PID.TID 0000.0001) %MON ad_forcing_adempmr_min       =   0.0000000000000E+00
(PID.TID 0000.0001) %MON ad_forcing_adempmr_mean      =   0.0000000000000E+00
(PID.TID 0000.0001) %MON ad_forcing_adempmr_sd        =   0.0000000000000E+00
(PID.TID 0000.0001) %MON ad_forcing_adempmr_del2      =   0.0000000000000E+00
(PID.TID 0000.0001) %MON ad_forcing_adfu_max          =   0.0000000000000E+00
(PID.TID 0000.0001) %MON ad_forcing_adfu_min          =   0.0000000000000E+00
(PID.TID 0000.0001) %MON ad_forcing_adfu_mean         =   0.0000000000000E+00
(PID.TID 0000.0001) %MON ad_forcing_adfu_sd           =   0.0000000000000E+00
(PID.TID 0000.0001) %MON ad_forcing_adfu_del2         =   0.0000000000000E+00
(PID.TID 0000.0001) %MON ad_forcing_adfv_max          =   0.0000000000000E+00
(PID.TID 0000.0001) %MON ad_forcing_adfv_min          =   0.0000000000000E+00
(PID.TID 0000.0001) %MON ad_forcing_adfv_mean         =   0.0000000000000E+00
(PID.TID 0000.0001) %MON ad_forcing_adfv_sd           =   0.0000000000000E+00
(PID.TID 0000.0001) %MON ad_forcing_adfv_del2         =   0.0000000000000E+00
(PID.TID 0000.0001) %MON ad_advcfl_aduvel_max         =   4.1976360508391E+02
(PID.TID 0000.0001) %MON ad_advcfl_advvel_max         =   1.7820974021001E+02
(PID.TID 0000.0001) %MON ad_advcfl_adwvel_max         =   4.8351443175616E+05
(PID.TID 0000.0001) %MON ad_advcfl_adW_hf_max         =   5.8022208123123E+05
(PID.TID 0000.0001) // =======================================================
(PID.TID 0000.0001) // End MONITOR dynamic field statistics
(PID.TID 0000.0001) // =======================================================
 cg2d: Sum(rhs),rhsMax =  -8.13151629364128E-20  1.01041901640542E-03
 cg2d: Sum(rhs),rhsMax =  -9.74864633462857E-12  4.27315636347913E+00
 cg2d: Sum(rhs),rhsMax =  -9.74864633462857E-12  4.27315636347913E+00
(PID.TID 0000.0001) // =======================================================
(PID.TID 0000.0001) // Begin MONITOR dynamic field statistics
(PID.TID 0000.0001) // =======================================================
(PID.TID 0000.0001) %MON ad_time_tsnumber             =                 72002
(PID.TID 0000.0001) %MON ad_time_secondsf             =   6.2209728000000E+09
(PID.TID 0000.0001) %MON ad_dynstat_adeta_max         =   0.0000000000000E+00
(PID.TID 0000.0001) %MON ad_dynstat_adeta_min         =   0.0000000000000E+00
(PID.TID 0000.0001) %MON ad_dynstat_adeta_mean        =   0.0000000000000E+00
(PID.TID 0000.0001) %MON ad_dynstat_adeta_sd          =   0.0000000000000E+00
(PID.TID 0000.0001) %MON ad_dynstat_adeta_del2        =   0.0000000000000E+00
(PID.TID 0000.0001) %MON ad_dynstat_aduvel_max        =   9.3412562437721E+02
(PID.TID 0000.0001) %MON ad_dynstat_aduvel_min        =  -6.6193133484539E+02
(PID.TID 0000.0001) %MON ad_dynstat_aduvel_mean       =   5.4912264742442E-01
(PID.TID 0000.0001) %MON ad_dynstat_aduvel_sd         =   1.2506198358503E+01
(PID.TID 0000.0001) %MON ad_dynstat_aduvel_del2       =   1.2974619834887E-01
(PID.TID 0000.0001) %MON ad_dynstat_advvel_max        =   5.7130513891144E+02
(PID.TID 0000.0001) %MON ad_dynstat_advvel_min        =  -3.5793027430246E+02
(PID.TID 0000.0001) %MON ad_dynstat_advvel_mean       =   1.0779304991210E+00
(PID.TID 0000.0001) %MON ad_dynstat_advvel_sd         =   1.2370782908182E+01
(PID.TID 0000.0001) %MON ad_dynstat_advvel_del2       =   1.0808577731864E-01
(PID.TID 0000.0001) %MON ad_dynstat_adwvel_max        =   3.3855216137139E+02
(PID.TID 0000.0001) %MON ad_dynstat_adwvel_min        =  -2.3498515040355E+02
(PID.TID 0000.0001) %MON ad_dynstat_adwvel_mean       =  -1.2447542460268E-02
(PID.TID 0000.0001) %MON ad_dynstat_adwvel_sd         =   4.3117900813221E+00
(PID.TID 0000.0001) %MON ad_dynstat_adwvel_del2       =   5.3258342518612E-02
(PID.TID 0000.0001) %MON ad_dynstat_adtheta_max       =   4.2282703269934E+01
(PID.TID 0000.0001) %MON ad_dynstat_adtheta_min       =  -7.4881292607334E+01
(PID.TID 0000.0001) %MON ad_dynstat_adtheta_mean      =   6.2717404150051E-01
(PID.TID 0000.0001) %MON ad_dynstat_adtheta_sd        =   2.1011056195056E+00
(PID.TID 0000.0001) %MON ad_dynstat_adtheta_del2      =   1.3257618902599E-02
(PID.TID 0000.0001) %MON ad_dynstat_adsalt_max        =   2.2433318204938E+02
(PID.TID 0000.0001) %MON ad_dynstat_adsalt_min        =  -2.3048754638621E+02
(PID.TID 0000.0001) %MON ad_dynstat_adsalt_mean       =  -1.0648195917238E-01
(PID.TID 0000.0001) %MON ad_dynstat_adsalt_sd         =   5.6583437425126E+00
(PID.TID 0000.0001) %MON ad_dynstat_adsalt_del2       =   5.7541424983749E-02
(PID.TID 0000.0001) %MON ad_forcing_adqnet_max        =   0.0000000000000E+00
(PID.TID 0000.0001) %MON ad_forcing_adqnet_min        =   0.0000000000000E+00
(PID.TID 0000.0001) %MON ad_forcing_adqnet_mean       =   0.0000000000000E+00
(PID.TID 0000.0001) %MON ad_forcing_adqnet_sd         =   0.0000000000000E+00
(PID.TID 0000.0001) %MON ad_forcing_adqnet_del2       =   0.0000000000000E+00
(PID.TID 0000.0001) %MON ad_forcing_adqsw_max         =   2.3266060908855E-02
(PID.TID 0000.0001) %MON ad_forcing_adqsw_min         =  -1.1170159476686E-02
(PID.TID 0000.0001) %MON ad_forcing_adqsw_mean        =   3.3635729774210E-04
(PID.TID 0000.0001) %MON ad_forcing_adqsw_sd          =   9.7012428097219E-04
(PID.TID 0000.0001) %MON ad_forcing_adqsw_del2        =   3.3977911203784E-05
(PID.TID 0000.0001) %MON ad_forcing_adempmr_max       =   0.0000000000000E+00
(PID.TID 0000.0001) %MON ad_forcing_adempmr_min       =   0.0000000000000E+00
(PID.TID 0000.0001) %MON ad_forcing_adempmr_mean      =   0.0000000000000E+00
(PID.TID 0000.0001) %MON ad_forcing_adempmr_sd        =   0.0000000000000E+00
(PID.TID 0000.0001) %MON ad_forcing_adempmr_del2      =   0.0000000000000E+00
(PID.TID 0000.0001) %MON ad_forcing_adfu_max          =   0.0000000000000E+00
(PID.TID 0000.0001) %MON ad_forcing_adfu_min          =   0.0000000000000E+00
(PID.TID 0000.0001) %MON ad_forcing_adfu_mean         =   0.0000000000000E+00
(PID.TID 0000.0001) %MON ad_forcing_adfu_sd           =   0.0000000000000E+00
(PID.TID 0000.0001) %MON ad_forcing_adfu_del2         =   0.0000000000000E+00
(PID.TID 0000.0001) %MON ad_forcing_adfv_max          =   0.0000000000000E+00
(PID.TID 0000.0001) %MON ad_forcing_adfv_min          =   0.0000000000000E+00
(PID.TID 0000.0001) %MON ad_forcing_adfv_mean         =   0.0000000000000E+00
(PID.TID 0000.0001) %MON ad_forcing_adfv_sd           =   0.0000000000000E+00
(PID.TID 0000.0001) %MON ad_forcing_adfv_del2         =   0.0000000000000E+00
(PID.TID 0000.0001) %MON ad_advcfl_aduvel_max         =   4.0127055933382E+02
(PID.TID 0000.0001) %MON ad_advcfl_advvel_max         =   1.8293167682514E+02
(PID.TID 0000.0001) %MON ad_advcfl_adwvel_max         =   4.8751511237480E+05
(PID.TID 0000.0001) %MON ad_advcfl_adW_hf_max         =   5.8502297612338E+05
(PID.TID 0000.0001) // =======================================================
(PID.TID 0000.0001) // End MONITOR dynamic field statistics
(PID.TID 0000.0001) // =======================================================
 cg2d: Sum(rhs),rhsMax =  -4.33680868994202E-19  9.91950018708008E-04
 EXTERNAL_FIELDS_LOAD, it=     72000 : Reading new data, i0,i1=   12    1 (prev=   12    2 )
(PID.TID 0000.0001) SOLVE_FOR_PRESSURE: putPmEinXvector =    F
 cg2d: Sum(rhs),rhsMax =  -9.66338120633736E-12  4.27829651258201E+00
 EXTERNAL_FIELDS_LOAD, it=     72000 : Reading new data, i0,i1=   12    1 (prev=   12    1 )
(PID.TID 0000.0001) SOLVE_FOR_PRESSURE: putPmEinXvector =    F
 cg2d: Sum(rhs),rhsMax =  -9.66338120633736E-12  4.27829651258201E+00
(PID.TID 0000.0001) // =======================================================
(PID.TID 0000.0001) // Begin MONITOR dynamic field statistics
(PID.TID 0000.0001) // =======================================================
(PID.TID 0000.0001) %MON ad_time_tsnumber             =                 72001
(PID.TID 0000.0001) %MON ad_time_secondsf             =   6.2208864000000E+09
(PID.TID 0000.0001) %MON ad_dynstat_adeta_max         =   0.0000000000000E+00
(PID.TID 0000.0001) %MON ad_dynstat_adeta_min         =   0.0000000000000E+00
(PID.TID 0000.0001) %MON ad_dynstat_adeta_mean        =   0.0000000000000E+00
(PID.TID 0000.0001) %MON ad_dynstat_adeta_sd          =   0.0000000000000E+00
(PID.TID 0000.0001) %MON ad_dynstat_adeta_del2        =   0.0000000000000E+00
(PID.TID 0000.0001) %MON ad_dynstat_aduvel_max        =   8.8237972070789E+02
(PID.TID 0000.0001) %MON ad_dynstat_aduvel_min        =  -6.8711349736208E+02
(PID.TID 0000.0001) %MON ad_dynstat_aduvel_mean       =   5.8442028180522E-01
(PID.TID 0000.0001) %MON ad_dynstat_aduvel_sd         =   1.2888015190377E+01
(PID.TID 0000.0001) %MON ad_dynstat_aduvel_del2       =   1.3188907846412E-01
(PID.TID 0000.0001) %MON ad_dynstat_advvel_max        =   5.8395359732519E+02
(PID.TID 0000.0001) %MON ad_dynstat_advvel_min        =  -3.9079215661676E+02
(PID.TID 0000.0001) %MON ad_dynstat_advvel_mean       =   1.1301051078965E+00
(PID.TID 0000.0001) %MON ad_dynstat_advvel_sd         =   1.2715076255820E+01
(PID.TID 0000.0001) %MON ad_dynstat_advvel_del2       =   1.1097070268200E-01
(PID.TID 0000.0001) %MON ad_dynstat_adwvel_max        =   3.3990666569355E+02
(PID.TID 0000.0001) %MON ad_dynstat_adwvel_min        =  -2.4620419297462E+02
(PID.TID 0000.0001) %MON ad_dynstat_adwvel_mean       =  -1.2354171061522E-02
(PID.TID 0000.0001) %MON ad_dynstat_adwvel_sd         =   4.4164997743134E+00
(PID.TID 0000.0001) %MON ad_dynstat_adwvel_del2       =   5.4391036999550E-02
(PID.TID 0000.0001) %MON ad_dynstat_adtheta_max       =   4.0576231399848E+01
(PID.TID 0000.0001) %MON ad_dynstat_adtheta_min       =  -7.3635281542680E+01
(PID.TID 0000.0001) %MON ad_dynstat_adtheta_mean      =   6.2781794782740E-01
(PID.TID 0000.0001) %MON ad_dynstat_adtheta_sd        =   2.1172565879593E+00
(PID.TID 0000.0001) %MON ad_dynstat_adtheta_del2      =   1.3221174325336E-02
(PID.TID 0000.0001) %MON ad_dynstat_adsalt_max        =   2.1991367675936E+02
(PID.TID 0000.0001) %MON ad_dynstat_adsalt_min        =  -2.5186700881853E+02
(PID.TID 0000.0001) %MON ad_dynstat_adsalt_mean       =  -1.1143971865378E-01
(PID.TID 0000.0001) %MON ad_dynstat_adsalt_sd         =   5.8608253855286E+00
(PID.TID 0000.0001) %MON ad_dynstat_adsalt_del2       =   5.7371761287232E-02
(PID.TID 0000.0001) %MON ad_forcing_adqnet_max        =   0.0000000000000E+00
(PID.TID 0000.0001) %MON ad_forcing_adqnet_min        =   0.0000000000000E+00
(PID.TID 0000.0001) %MON ad_forcing_adqnet_mean       =   0.0000000000000E+00
(PID.TID 0000.0001) %MON ad_forcing_adqnet_sd         =   0.0000000000000E+00
(PID.TID 0000.0001) %MON ad_forcing_adqnet_del2       =   0.0000000000000E+00
(PID.TID 0000.0001) %MON ad_forcing_adqsw_max         =   2.4477615369736E-02
(PID.TID 0000.0001) %MON ad_forcing_adqsw_min         =  -1.1368480848855E-02
(PID.TID 0000.0001) %MON ad_forcing_adqsw_mean        =   3.5368839971674E-04
(PID.TID 0000.0001) %MON ad_forcing_adqsw_sd          =   1.0172232514704E-03
(PID.TID 0000.0001) %MON ad_forcing_adqsw_del2        =   3.5593695023902E-05
(PID.TID 0000.0001) %MON ad_forcing_adempmr_max       =   0.0000000000000E+00
(PID.TID 0000.0001) %MON ad_forcing_adempmr_min       =   0.0000000000000E+00
(PID.TID 0000.0001) %MON ad_forcing_adempmr_mean      =   0.0000000000000E+00
(PID.TID 0000.0001) %MON ad_forcing_adempmr_sd        =   0.0000000000000E+00
(PID.TID 0000.0001) %MON ad_forcing_adempmr_del2      =   0.0000000000000E+00
(PID.TID 0000.0001) %MON ad_forcing_adfu_max          =   0.0000000000000E+00
(PID.TID 0000.0001) %MON ad_forcing_adfu_min          =   0.0000000000000E+00
(PID.TID 0000.0001) %MON ad_forcing_adfu_mean         =   0.0000000000000E+00
(PID.TID 0000.0001) %MON ad_forcing_adfu_sd           =   0.0000000000000E+00
(PID.TID 0000.0001) %MON ad_forcing_adfu_del2         =   0.0000000000000E+00
(PID.TID 0000.0001) %MON ad_forcing_adfv_max          =   0.0000000000000E+00
(PID.TID 0000.0001) %MON ad_forcing_adfv_min          =   0.0000000000000E+00
(PID.TID 0000.0001) %MON ad_forcing_adfv_mean         =   0.0000000000000E+00
(PID.TID 0000.0001) %MON ad_forcing_adfv_sd           =   0.0000000000000E+00
(PID.TID 0000.0001) %MON ad_forcing_adfv_del2         =   0.0000000000000E+00
(PID.TID 0000.0001) %MON ad_advcfl_aduvel_max         =   3.7904217038189E+02
(PID.TID 0000.0001) %MON ad_advcfl_advvel_max         =   1.8698170814691E+02
(PID.TID 0000.0001) %MON ad_advcfl_adwvel_max         =   4.8946559859871E+05
(PID.TID 0000.0001) %MON ad_advcfl_adW_hf_max         =   5.8736354594824E+05
(PID.TID 0000.0001) // =======================================================
(PID.TID 0000.0001) // End MONITOR dynamic field statistics
(PID.TID 0000.0001) // =======================================================
 cg2d: Sum(rhs),rhsMax =  -1.02999206386123E-18  1.47812893028812E-03
(PID.TID 0000.0001)  nRecords = 123 ; filePrec =  64 ; fileIter =     72000
(PID.TID 0000.0001)     nDims =   2 , dims:
(PID.TID 0000.0001)    1: 192   1 192
(PID.TID 0000.0001)    2:  32   1  32
(PID.TID 0000.0001)     nFlds =  11 , nFl3D =   8 , fields:
(PID.TID 0000.0001)  >Uvel    < >GuNm1   < >Vvel    < >GvNm1   < >Theta   < >GtNm1   < >Salt    < >GsNm1   < >EtaN    < >dEtaHdt < >EtaH    <
(PID.TID 0000.0001)   nTimRec =   0 , timeList:
(PID.TID 0000.0001) READ_MFLDS_3D_RL: read field: "Uvel    ", #   1 in fldList, rec=   1
(PID.TID 0000.0001) READ_MFLDS_3D_RL: read field: "Vvel    ", #   3 in fldList, rec=   3
(PID.TID 0000.0001) READ_MFLDS_3D_RL: read field: "Theta   ", #   5 in fldList, rec=   5
(PID.TID 0000.0001) READ_MFLDS_3D_RL: read field: "Salt    ", #   7 in fldList, rec=   7
(PID.TID 0000.0001) READ_MFLDS_3D_RL: read field: "GuNm1   ", #   2 in fldList, rec=   2
(PID.TID 0000.0001) READ_MFLDS_3D_RL: field: "GuNm2   " missing in file: pickup.0000072000
(PID.TID 0000.0001) READ_MFLDS_3D_RL: read field: "GvNm1   ", #   4 in fldList, rec=   4
(PID.TID 0000.0001) READ_MFLDS_3D_RL: field: "GvNm2   " missing in file: pickup.0000072000
(PID.TID 0000.0001) READ_MFLDS_3D_RL: read field: "EtaN    ", #   9 in fldList, rec= 121
(PID.TID 0000.0001) READ_MFLDS_3D_RL: read field: "dEtaHdt ", #  10 in fldList, rec= 122
(PID.TID 0000.0001) READ_MFLDS_3D_RL: read field: "EtaH    ", #  11 in fldList, rec= 123
(PID.TID 0000.0001) // =======================================================
(PID.TID 0000.0001) // Begin MONITOR dynamic field statistics
(PID.TID 0000.0001) // =======================================================
(PID.TID 0000.0001) %MON ad_time_tsnumber             =                 72000
(PID.TID 0000.0001) %MON ad_time_secondsf             =   6.2208000000000E+09
(PID.TID 0000.0001) %MON ad_dynstat_adeta_max         =   0.0000000000000E+00
(PID.TID 0000.0001) %MON ad_dynstat_adeta_min         =   0.0000000000000E+00
(PID.TID 0000.0001) %MON ad_dynstat_adeta_mean        =   0.0000000000000E+00
(PID.TID 0000.0001) %MON ad_dynstat_adeta_sd          =   0.0000000000000E+00
(PID.TID 0000.0001) %MON ad_dynstat_adeta_del2        =   0.0000000000000E+00
(PID.TID 0000.0001) %MON ad_dynstat_aduvel_max        =   8.4145245710926E+02
(PID.TID 0000.0001) %MON ad_dynstat_aduvel_min        =  -7.2192530221695E+02
(PID.TID 0000.0001) %MON ad_dynstat_aduvel_mean       =   6.2381898009394E-01
(PID.TID 0000.0001) %MON ad_dynstat_aduvel_sd         =   1.3284642683566E+01
(PID.TID 0000.0001) %MON ad_dynstat_aduvel_del2       =   1.3518453066466E-01
(PID.TID 0000.0001) %MON ad_dynstat_advvel_max        =   6.1239332351945E+02
(PID.TID 0000.0001) %MON ad_dynstat_advvel_min        =  -4.1271500769364E+02
(PID.TID 0000.0001) %MON ad_dynstat_advvel_mean       =   1.1538299698078E+00
(PID.TID 0000.0001) %MON ad_dynstat_advvel_sd         =   1.3062920030067E+01
(PID.TID 0000.0001) %MON ad_dynstat_advvel_del2       =   1.1493190641685E-01
(PID.TID 0000.0001) %MON ad_dynstat_adwvel_max        =   1.9818109742397E+02
(PID.TID 0000.0001) %MON ad_dynstat_adwvel_min        =  -1.4954711694232E+02
(PID.TID 0000.0001) %MON ad_dynstat_adwvel_mean       =  -7.0687239401944E-03
(PID.TID 0000.0001) %MON ad_dynstat_adwvel_sd         =   2.6546761127478E+00
(PID.TID 0000.0001) %MON ad_dynstat_adwvel_del2       =   3.2653471223502E-02
(PID.TID 0000.0001) %MON ad_dynstat_adtheta_max       =   3.8891695980919E+01
(PID.TID 0000.0001) %MON ad_dynstat_adtheta_min       =  -7.2432388317635E+01
(PID.TID 0000.0001) %MON ad_dynstat_adtheta_mean      =   6.2833563841166E-01
(PID.TID 0000.0001) %MON ad_dynstat_adtheta_sd        =   2.1312905312430E+00
(PID.TID 0000.0001) %MON ad_dynstat_adtheta_del2      =   1.3200135226358E-02
(PID.TID 0000.0001) %MON ad_dynstat_adsalt_max        =   2.1570566044917E+02
(PID.TID 0000.0001) %MON ad_dynstat_adsalt_min        =  -2.7540059612800E+02
(PID.TID 0000.0001) %MON ad_dynstat_adsalt_mean       =  -1.1567249325925E-01
(PID.TID 0000.0001) %MON ad_dynstat_adsalt_sd         =   6.0364548204065E+00
(PID.TID 0000.0001) %MON ad_dynstat_adsalt_del2       =   5.7142943902513E-02
(PID.TID 0000.0001) %MON ad_forcing_adqnet_max        =   0.0000000000000E+00
(PID.TID 0000.0001) %MON ad_forcing_adqnet_min        =   0.0000000000000E+00
(PID.TID 0000.0001) %MON ad_forcing_adqnet_mean       =   0.0000000000000E+00
(PID.TID 0000.0001) %MON ad_forcing_adqnet_sd         =   0.0000000000000E+00
(PID.TID 0000.0001) %MON ad_forcing_adqnet_del2       =   0.0000000000000E+00
(PID.TID 0000.0001) %MON ad_forcing_adqsw_max         =   2.5656977519928E-02
(PID.TID 0000.0001) %MON ad_forcing_adqsw_min         =  -1.1532193351067E-02
(PID.TID 0000.0001) %MON ad_forcing_adqsw_mean        =   3.7078535493845E-04
(PID.TID 0000.0001) %MON ad_forcing_adqsw_sd          =   1.0634699790032E-03
(PID.TID 0000.0001) %MON ad_forcing_adqsw_del2        =   3.7162450533962E-05
(PID.TID 0000.0001) %MON ad_forcing_adempmr_max       =   0.0000000000000E+00
(PID.TID 0000.0001) %MON ad_forcing_adempmr_min       =   0.0000000000000E+00
(PID.TID 0000.0001) %MON ad_forcing_adempmr_mean      =   0.0000000000000E+00
(PID.TID 0000.0001) %MON ad_forcing_adempmr_sd        =   0.0000000000000E+00
(PID.TID 0000.0001) %MON ad_forcing_adempmr_del2      =   0.0000000000000E+00
(PID.TID 0000.0001) %MON ad_forcing_adfu_max          =   0.0000000000000E+00
(PID.TID 0000.0001) %MON ad_forcing_adfu_min          =   0.0000000000000E+00
(PID.TID 0000.0001) %MON ad_forcing_adfu_mean         =   0.0000000000000E+00
(PID.TID 0000.0001) %MON ad_forcing_adfu_sd           =   0.0000000000000E+00
(PID.TID 0000.0001) %MON ad_forcing_adfu_del2         =   0.0000000000000E+00
(PID.TID 0000.0001) %MON ad_forcing_adfv_max          =   0.0000000000000E+00
(PID.TID 0000.0001) %MON ad_forcing_adfv_min          =   0.0000000000000E+00
(PID.TID 0000.0001) %MON ad_forcing_adfv_mean         =   0.0000000000000E+00
(PID.TID 0000.0001) %MON ad_forcing_adfv_sd           =   0.0000000000000E+00
(PID.TID 0000.0001) %MON ad_forcing_adfv_del2         =   0.0000000000000E+00
(PID.TID 0000.0001) %MON ad_advcfl_aduvel_max         =   3.6146112397052E+02
(PID.TID 0000.0001) %MON ad_advcfl_advvel_max         =   1.9608809709184E+02
(PID.TID 0000.0001) %MON ad_advcfl_adwvel_max         =   2.8538078029052E+05
(PID.TID 0000.0001) %MON ad_advcfl_adW_hf_max         =   3.4245973930819E+05
(PID.TID 0000.0001) // =======================================================
(PID.TID 0000.0001) // End MONITOR dynamic field statistics
(PID.TID 0000.0001) // =======================================================
 ph-check entering grdchk_main 
 ph-check fcref =    101190.63206636210     
grad-res -------------------------------
 grad-res  proc    #    i    j    k   bi   bj iobc               fc ref           fc + eps           fc - eps
 grad-res  proc    #    i    j    k   bi   bj iobc             adj grad            fd grad         1 - fd/adj
 ph-test icomp, ncvarcomp, ichknum            1       55522           1
 ph-grd _loc: bi, bj, icomptest, ichknum            1           1           0           1
 ph-grd -->hit<--            1           1           1           1
(PID.TID 0000.0001) INI_CG2D: CG2D normalisation factor =  1.9156564154949553E-04
(PID.TID 0000.0001) INI_CG2D: cg2dTolerance = 5.809016360175296E-07 (Area=3.6388673751E+14)
(PID.TID 0000.0001) 
(PID.TID 0000.0001)  nRecords = 123 ; filePrec =  64 ; fileIter =     72000
(PID.TID 0000.0001)     nDims =   2 , dims:
(PID.TID 0000.0001)    1: 192   1 192
(PID.TID 0000.0001)    2:  32   1  32
(PID.TID 0000.0001)     nFlds =  11 , nFl3D =   8 , fields:
(PID.TID 0000.0001)  >Uvel    < >GuNm1   < >Vvel    < >GvNm1   < >Theta   < >GtNm1   < >Salt    < >GsNm1   < >EtaN    < >dEtaHdt < >EtaH    <
(PID.TID 0000.0001)   nTimRec =   0 , timeList:
(PID.TID 0000.0001) READ_MFLDS_3D_RL: read field: "Uvel    ", #   1 in fldList, rec=   1
(PID.TID 0000.0001) READ_MFLDS_3D_RL: read field: "Vvel    ", #   3 in fldList, rec=   3
(PID.TID 0000.0001) READ_MFLDS_3D_RL: read field: "Theta   ", #   5 in fldList, rec=   5
(PID.TID 0000.0001) READ_MFLDS_3D_RL: read field: "Salt    ", #   7 in fldList, rec=   7
(PID.TID 0000.0001) READ_MFLDS_3D_RL: read field: "GuNm1   ", #   2 in fldList, rec=   2
(PID.TID 0000.0001) READ_MFLDS_3D_RL: field: "GuNm2   " missing in file: pickup.0000072000
(PID.TID 0000.0001) READ_MFLDS_3D_RL: read field: "GvNm1   ", #   4 in fldList, rec=   4
(PID.TID 0000.0001) READ_MFLDS_3D_RL: field: "GvNm2   " missing in file: pickup.0000072000
(PID.TID 0000.0001) READ_MFLDS_3D_RL: read field: "EtaN    ", #   9 in fldList, rec= 121
(PID.TID 0000.0001) READ_MFLDS_3D_RL: read field: "dEtaHdt ", #  10 in fldList, rec= 122
(PID.TID 0000.0001) READ_MFLDS_3D_RL: read field: "EtaH    ", #  11 in fldList, rec= 123
(PID.TID 0000.0001) // =======================================================
(PID.TID 0000.0001) // Model current state
(PID.TID 0000.0001) // =======================================================
(PID.TID 0000.0001) 
 EXTERNAL_FIELDS_LOAD, it=     72000 : Reading new data, i0,i1=   12    1 (prev=   12    0 )
(PID.TID 0000.0001) SOLVE_FOR_PRESSURE: putPmEinXvector =    F
 cg2d: Sum(rhs),rhsMax =  -9.66338120633736E-12  4.27829651258201E+00
 cg2d: Sum(rhs),rhsMax =  -9.77706804405898E-12  4.27315636347635E+00
 cg2d: Sum(rhs),rhsMax =  -9.60653778747655E-12  4.26761612010334E+00
 cg2d: Sum(rhs),rhsMax =  -9.69180291576777E-12  4.26249552161737E+00
 cg2d: Sum(rhs),rhsMax =  -9.32232069317251E-12  4.25768833975386E+00
 cg2d: Sum(rhs),rhsMax =  -9.91917659121100E-12  4.25317697440616E+00
 cg2d: Sum(rhs),rhsMax =  -9.74864633462857E-12  4.24897733412035E+00
 cg2d: Sum(rhs),rhsMax =  -9.40758582146373E-12  4.24510427578751E+00
 cg2d: Sum(rhs),rhsMax =  -9.60653778747655E-12  4.24156386824293E+00
 cg2d: Sum(rhs),rhsMax =  -9.57811607804615E-12  4.23836037934535E+00
 cg2d: Sum(rhs),rhsMax =  -9.69180291576777E-12  4.23549215152947E+00
 cg2d: Sum(rhs),rhsMax =  -9.63495949690696E-12  4.23294942842025E+00
 cg2d: Sum(rhs),rhsMax =  -9.77706804405898E-12  4.23071303575745E+00
 cg2d: Sum(rhs),rhsMax =  -9.74864633462857E-12  4.22875492574495E+00
 cg2d: Sum(rhs),rhsMax =  -9.66338120633736E-12  4.22703968981573E+00
 EXTERNAL_FIELDS_LOAD, it=     72015 : Reading new data, i0,i1=    1    2 (prev=   12    1 )
 cg2d: Sum(rhs),rhsMax =  -9.60653778747655E-12  4.22552624672974E+00
 cg2d: Sum(rhs),rhsMax =  -9.60653778747655E-12  4.22405606307556E+00
 cg2d: Sum(rhs),rhsMax =  -9.46442924032453E-12  4.22287761868558E+00
 cg2d: Sum(rhs),rhsMax =  -9.40758582146373E-12  4.22169095025226E+00
 cg2d: Sum(rhs),rhsMax =  -9.54969436861575E-12  4.22054741575323E+00
(PID.TID 0000.0001) Did not write pickup because writePickupAtEnd = FALSE
 --> f_ice     = 0.000000000000000D+00
 --> f_smrarea = 0.000000000000000D+00
 --> f_smrarea = 0.000000000000000D+00
 --> f_smrarea = 0.000000000000000D+00
 --> objf_test(bi,bj)   =  0.118448072035466D+05
 --> objf_tracer(bi,bj) =  0.000000000000000D+00
 --> objf_atl(bi,bj)    =  0.000000000000000D+00
 --> objf_test(bi,bj)   =  0.952598910066598D+04
 --> objf_tracer(bi,bj) =  0.000000000000000D+00
 --> objf_atl(bi,bj)    =  0.000000000000000D+00
 --> objf_test(bi,bj)   =  0.694420076060434D+04
 --> objf_tracer(bi,bj) =  0.000000000000000D+00
 --> objf_atl(bi,bj)    =  0.000000000000000D+00
 --> objf_test(bi,bj)   =  0.454148485149799D+04
 --> objf_tracer(bi,bj) =  0.000000000000000D+00
 --> objf_atl(bi,bj)    =  0.000000000000000D+00
 --> objf_test(bi,bj)   =  0.460074422636177D+04
 --> objf_tracer(bi,bj) =  0.000000000000000D+00
 --> objf_atl(bi,bj)    =  0.000000000000000D+00
 --> objf_test(bi,bj)   =  0.135691406205436D+05
 --> objf_tracer(bi,bj) =  0.000000000000000D+00
 --> objf_atl(bi,bj)    =  0.000000000000000D+00
 --> objf_test(bi,bj)   =  0.116257622980869D+05
 --> objf_tracer(bi,bj) =  0.000000000000000D+00
 --> objf_atl(bi,bj)    =  0.000000000000000D+00
 --> objf_test(bi,bj)   =  0.115333327822103D+05
 --> objf_tracer(bi,bj) =  0.000000000000000D+00
 --> objf_atl(bi,bj)    =  0.000000000000000D+00
 --> objf_test(bi,bj)   =  0.727515225463396D+04
 --> objf_tracer(bi,bj) =  0.000000000000000D+00
 --> objf_atl(bi,bj)    =  0.000000000000000D+00
 --> objf_test(bi,bj)   =  0.725947929108449D+04
 --> objf_tracer(bi,bj) =  0.000000000000000D+00
 --> objf_atl(bi,bj)    =  0.000000000000000D+00
 --> objf_test(bi,bj)   =  0.580653449009261D+04
 --> objf_tracer(bi,bj) =  0.000000000000000D+00
 --> objf_atl(bi,bj)    =  0.000000000000000D+00
 --> objf_test(bi,bj)   =  0.666403719408512D+04
 --> objf_tracer(bi,bj) =  0.000000000000000D+00
 --> objf_atl(bi,bj)    =  0.000000000000000D+00
  local fc =  0.101190665073414D+06
 global fc =  0.101190665073414D+06
 ph-check fcpertplus =    101190.66507341362     
 ph-check fcpertminus =    101190.63206636210     
(PID.TID 0000.0001) INI_CG2D: CG2D normalisation factor =  1.9156564154949553E-04
(PID.TID 0000.0001) INI_CG2D: cg2dTolerance = 5.809016360175296E-07 (Area=3.6388673751E+14)
(PID.TID 0000.0001) 
(PID.TID 0000.0001)  nRecords = 123 ; filePrec =  64 ; fileIter =     72000
(PID.TID 0000.0001)     nDims =   2 , dims:
(PID.TID 0000.0001)    1: 192   1 192
(PID.TID 0000.0001)    2:  32   1  32
(PID.TID 0000.0001)     nFlds =  11 , nFl3D =   8 , fields:
(PID.TID 0000.0001)  >Uvel    < >GuNm1   < >Vvel    < >GvNm1   < >Theta   < >GtNm1   < >Salt    < >GsNm1   < >EtaN    < >dEtaHdt < >EtaH    <
(PID.TID 0000.0001)   nTimRec =   0 , timeList:
(PID.TID 0000.0001) READ_MFLDS_3D_RL: read field: "Uvel    ", #   1 in fldList, rec=   1
(PID.TID 0000.0001) READ_MFLDS_3D_RL: read field: "Vvel    ", #   3 in fldList, rec=   3
(PID.TID 0000.0001) READ_MFLDS_3D_RL: read field: "Theta   ", #   5 in fldList, rec=   5
(PID.TID 0000.0001) READ_MFLDS_3D_RL: read field: "Salt    ", #   7 in fldList, rec=   7
(PID.TID 0000.0001) READ_MFLDS_3D_RL: read field: "GuNm1   ", #   2 in fldList, rec=   2
(PID.TID 0000.0001) READ_MFLDS_3D_RL: field: "GuNm2   " missing in file: pickup.0000072000
(PID.TID 0000.0001) READ_MFLDS_3D_RL: read field: "GvNm1   ", #   4 in fldList, rec=   4
(PID.TID 0000.0001) READ_MFLDS_3D_RL: field: "GvNm2   " missing in file: pickup.0000072000
(PID.TID 0000.0001) READ_MFLDS_3D_RL: read field: "EtaN    ", #   9 in fldList, rec= 121
(PID.TID 0000.0001) READ_MFLDS_3D_RL: read field: "dEtaHdt ", #  10 in fldList, rec= 122
(PID.TID 0000.0001) READ_MFLDS_3D_RL: read field: "EtaH    ", #  11 in fldList, rec= 123
(PID.TID 0000.0001) // =======================================================
(PID.TID 0000.0001) // Model current state
(PID.TID 0000.0001) // =======================================================
(PID.TID 0000.0001) 
 EXTERNAL_FIELDS_LOAD, it=     72000 : Reading new data, i0,i1=   12    1 (prev=   12    0 )
(PID.TID 0000.0001) SOLVE_FOR_PRESSURE: putPmEinXvector =    F
 cg2d: Sum(rhs),rhsMax =  -9.69180291576777E-12  4.27829651258201E+00
 cg2d: Sum(rhs),rhsMax =  -9.60653778747655E-12  4.27315636376685E+00
 cg2d: Sum(rhs),rhsMax =  -9.46442924032453E-12  4.26761612046727E+00
 cg2d: Sum(rhs),rhsMax =  -9.69180291576777E-12  4.26249552253438E+00
 cg2d: Sum(rhs),rhsMax =  -9.69180291576777E-12  4.25768834148206E+00
 cg2d: Sum(rhs),rhsMax =  -9.83391146291979E-12  4.25317697691897E+00
 cg2d: Sum(rhs),rhsMax =  -9.66338120633736E-12  4.24897733740355E+00
 cg2d: Sum(rhs),rhsMax =  -9.49285094975494E-12  4.24510427975784E+00
 cg2d: Sum(rhs),rhsMax =  -9.60653778747655E-12  4.24156387273672E+00
 cg2d: Sum(rhs),rhsMax =  -9.43600753089413E-12  4.23836038418553E+00
 cg2d: Sum(rhs),rhsMax =  -9.63495949690696E-12  4.23549215657542E+00
 cg2d: Sum(rhs),rhsMax =  -9.66338120633736E-12  4.23294943359324E+00
 cg2d: Sum(rhs),rhsMax =  -9.54969436861575E-12  4.23071304101116E+00
 cg2d: Sum(rhs),rhsMax =  -9.74864633462857E-12  4.22875493099744E+00
 cg2d: Sum(rhs),rhsMax =  -9.54969436861575E-12  4.22703969494816E+00
 EXTERNAL_FIELDS_LOAD, it=     72015 : Reading new data, i0,i1=    1    2 (prev=   12    1 )
 cg2d: Sum(rhs),rhsMax =  -9.49285094975494E-12  4.22552625155216E+00
 cg2d: Sum(rhs),rhsMax =  -9.49285094975494E-12  4.22405606740640E+00
 cg2d: Sum(rhs),rhsMax =  -9.54969436861575E-12  4.22287762237041E+00
 cg2d: Sum(rhs),rhsMax =  -9.69180291576777E-12  4.22169095315108E+00
 cg2d: Sum(rhs),rhsMax =  -9.63495949690696E-12  4.22054741783193E+00
(PID.TID 0000.0001) Did not write pickup because writePickupAtEnd = FALSE
 --> f_ice     = 0.000000000000000D+00
 --> f_smrarea = 0.000000000000000D+00
 --> f_smrarea = 0.000000000000000D+00
 --> f_smrarea = 0.000000000000000D+00
 --> objf_test(bi,bj)   =  0.118447627575380D+05
 --> objf_tracer(bi,bj) =  0.000000000000000D+00
 --> objf_atl(bi,bj)    =  0.000000000000000D+00
 --> objf_test(bi,bj)   =  0.952598910069887D+04
 --> objf_tracer(bi,bj) =  0.000000000000000D+00
 --> objf_atl(bi,bj)    =  0.000000000000000D+00
 --> objf_test(bi,bj)   =  0.694420076048013D+04
 --> objf_tracer(bi,bj) =  0.000000000000000D+00
 --> objf_atl(bi,bj)    =  0.000000000000000D+00
 --> objf_test(bi,bj)   =  0.454148485110837D+04
 --> objf_tracer(bi,bj) =  0.000000000000000D+00
 --> objf_atl(bi,bj)    =  0.000000000000000D+00
 --> objf_test(bi,bj)   =  0.460074422674568D+04
 --> objf_tracer(bi,bj) =  0.000000000000000D+00
 --> objf_atl(bi,bj)    =  0.000000000000000D+00
 --> objf_test(bi,bj)   =  0.135691406203339D+05
 --> objf_tracer(bi,bj) =  0.000000000000000D+00
 --> objf_atl(bi,bj)    =  0.000000000000000D+00
 --> objf_test(bi,bj)   =  0.116257622981599D+05
 --> objf_tracer(bi,bj) =  0.000000000000000D+00
 --> objf_atl(bi,bj)    =  0.000000000000000D+00
 --> objf_test(bi,bj)   =  0.115333327820750D+05
 --> objf_tracer(bi,bj) =  0.000000000000000D+00
 --> objf_atl(bi,bj)    =  0.000000000000000D+00
 --> objf_test(bi,bj)   =  0.727515225453493D+04
 --> objf_tracer(bi,bj) =  0.000000000000000D+00
 --> objf_atl(bi,bj)    =  0.000000000000000D+00
 --> objf_test(bi,bj)   =  0.725947146285715D+04
 --> objf_tracer(bi,bj) =  0.000000000000000D+00
 --> objf_atl(bi,bj)    =  0.000000000000000D+00
 --> objf_test(bi,bj)   =  0.580653449000821D+04
 --> objf_tracer(bi,bj) =  0.000000000000000D+00
 --> objf_atl(bi,bj)    =  0.000000000000000D+00
 --> objf_test(bi,bj)   =  0.666402348143667D+04
 --> objf_tracer(bi,bj) =  0.000000000000000D+00
 --> objf_atl(bi,bj)    =  0.000000000000000D+00
  local fc =  0.101190599085977D+06
 global fc =  0.101190599085977D+06
grad-res -------------------------------
 grad-res     0    1    1    1    1    1    1    1   1.01190632066E+05  1.01190665073E+05  1.01190599086E+05
 grad-res     0    1    1    1    0    1    1    1   3.29917891929E+00  3.29937184288E+00 -5.84762427738E-05
(PID.TID 0000.0001)  ADM  ref_cost_function      =  1.01190632066362E+05
(PID.TID 0000.0001)  ADM  adjoint_gradient       =  3.29917891928957E+00
(PID.TID 0000.0001)  ADM  finite-diff_grad       =  3.29937184287701E+00
 ph-grd  ierr ---------------------------
 ph-grd  ierr =            0 , icomp =            1 , ichknum =            1
 ph-test icomp, ncvarcomp, ichknum            2       55522           2
 ph-grd _loc: bi, bj, icomptest, ichknum            1           1           1           2
 ph-grd -->hit<--            2           1           1           1
(PID.TID 0000.0001) INI_CG2D: CG2D normalisation factor =  1.9156564154949553E-04
(PID.TID 0000.0001) INI_CG2D: cg2dTolerance = 5.809016360175296E-07 (Area=3.6388673751E+14)
(PID.TID 0000.0001) 
(PID.TID 0000.0001)  nRecords = 123 ; filePrec =  64 ; fileIter =     72000
(PID.TID 0000.0001)     nDims =   2 , dims:
(PID.TID 0000.0001)    1: 192   1 192
(PID.TID 0000.0001)    2:  32   1  32
(PID.TID 0000.0001)     nFlds =  11 , nFl3D =   8 , fields:
(PID.TID 0000.0001)  >Uvel    < >GuNm1   < >Vvel    < >GvNm1   < >Theta   < >GtNm1   < >Salt    < >GsNm1   < >EtaN    < >dEtaHdt < >EtaH    <
(PID.TID 0000.0001)   nTimRec =   0 , timeList:
(PID.TID 0000.0001) READ_MFLDS_3D_RL: read field: "Uvel    ", #   1 in fldList, rec=   1
(PID.TID 0000.0001) READ_MFLDS_3D_RL: read field: "Vvel    ", #   3 in fldList, rec=   3
(PID.TID 0000.0001) READ_MFLDS_3D_RL: read field: "Theta   ", #   5 in fldList, rec=   5
(PID.TID 0000.0001) READ_MFLDS_3D_RL: read field: "Salt    ", #   7 in fldList, rec=   7
(PID.TID 0000.0001) READ_MFLDS_3D_RL: read field: "GuNm1   ", #   2 in fldList, rec=   2
(PID.TID 0000.0001) READ_MFLDS_3D_RL: field: "GuNm2   " missing in file: pickup.0000072000
(PID.TID 0000.0001) READ_MFLDS_3D_RL: read field: "GvNm1   ", #   4 in fldList, rec=   4
(PID.TID 0000.0001) READ_MFLDS_3D_RL: field: "GvNm2   " missing in file: pickup.0000072000
(PID.TID 0000.0001) READ_MFLDS_3D_RL: read field: "EtaN    ", #   9 in fldList, rec= 121
(PID.TID 0000.0001) READ_MFLDS_3D_RL: read field: "dEtaHdt ", #  10 in fldList, rec= 122
(PID.TID 0000.0001) READ_MFLDS_3D_RL: read field: "EtaH    ", #  11 in fldList, rec= 123
(PID.TID 0000.0001) // =======================================================
(PID.TID 0000.0001) // Model current state
(PID.TID 0000.0001) // =======================================================
(PID.TID 0000.0001) 
 EXTERNAL_FIELDS_LOAD, it=     72000 : Reading new data, i0,i1=   12    1 (prev=   12    0 )
(PID.TID 0000.0001) SOLVE_FOR_PRESSURE: putPmEinXvector =    F
 cg2d: Sum(rhs),rhsMax =  -9.69180291576777E-12  4.27829651258201E+00
 cg2d: Sum(rhs),rhsMax =  -9.57811607804615E-12  4.27315636328609E+00
 cg2d: Sum(rhs),rhsMax =  -9.46442924032453E-12  4.26761612002851E+00
 cg2d: Sum(rhs),rhsMax =  -9.69180291576777E-12  4.26249552125490E+00
 cg2d: Sum(rhs),rhsMax =  -9.54969436861575E-12  4.25768833910926E+00
 cg2d: Sum(rhs),rhsMax =  -9.72022462519817E-12  4.25317697346156E+00
 cg2d: Sum(rhs),rhsMax =  -9.35074240260292E-12  4.24897733288886E+00
 cg2d: Sum(rhs),rhsMax =  -9.46442924032453E-12  4.24510427431197E+00
 cg2d: Sum(rhs),rhsMax =  -1.00044417195022E-11  4.24156386658679E+00
 cg2d: Sum(rhs),rhsMax =  -9.77706804405898E-12  4.23836037757493E+00
 cg2d: Sum(rhs),rhsMax =  -9.52127265918534E-12  4.23549214968398E+00
 cg2d: Sum(rhs),rhsMax =  -9.66338120633736E-12  4.23294942653230E+00
 cg2d: Sum(rhs),rhsMax =  -9.80548975348938E-12  4.23071303385734E+00
 cg2d: Sum(rhs),rhsMax =  -9.54969436861575E-12  4.22875492385450E+00
 cg2d: Sum(rhs),rhsMax =  -9.57811607804615E-12  4.22703968798212E+00
 EXTERNAL_FIELDS_LOAD, it=     72015 : Reading new data, i0,i1=    1    2 (prev=   12    1 )
 cg2d: Sum(rhs),rhsMax =  -9.77706804405898E-12  4.22552624501616E+00
 cg2d: Sum(rhs),rhsMax =  -9.63495949690696E-12  4.22405606155696E+00
 cg2d: Sum(rhs),rhsMax =  -9.72022462519817E-12  4.22287761741541E+00
 cg2d: Sum(rhs),rhsMax =  -9.60653778747655E-12  4.22169094926887E+00
 cg2d: Sum(rhs),rhsMax =  -9.52127265918534E-12  4.22054741507174E+00
(PID.TID 0000.0001) Did not write pickup because writePickupAtEnd = FALSE
 --> f_ice     = 0.000000000000000D+00
 --> f_smrarea = 0.000000000000000D+00
 --> f_smrarea = 0.000000000000000D+00
 --> f_smrarea = 0.000000000000000D+00
 --> objf_test(bi,bj)   =  0.118448156230913D+05
 --> objf_tracer(bi,bj) =  0.000000000000000D+00
 --> objf_atl(bi,bj)    =  0.000000000000000D+00
 --> objf_test(bi,bj)   =  0.952598910064386D+04
 --> objf_tracer(bi,bj) =  0.000000000000000D+00
 --> objf_atl(bi,bj)    =  0.000000000000000D+00
 --> objf_test(bi,bj)   =  0.694420076065561D+04
 --> objf_tracer(bi,bj) =  0.000000000000000D+00
 --> objf_atl(bi,bj)    =  0.000000000000000D+00
 --> objf_test(bi,bj)   =  0.454148485163759D+04
 --> objf_tracer(bi,bj) =  0.000000000000000D+00
 --> objf_atl(bi,bj)    =  0.000000000000000D+00
 --> objf_test(bi,bj)   =  0.460074422623589D+04
 --> objf_tracer(bi,bj) =  0.000000000000000D+00
 --> objf_atl(bi,bj)    =  0.000000000000000D+00
 --> objf_test(bi,bj)   =  0.135691406206271D+05
 --> objf_tracer(bi,bj) =  0.000000000000000D+00
 --> objf_atl(bi,bj)    =  0.000000000000000D+00
 --> objf_test(bi,bj)   =  0.116257622980439D+05
 --> objf_tracer(bi,bj) =  0.000000000000000D+00
 --> objf_atl(bi,bj)    =  0.000000000000000D+00
 --> objf_test(bi,bj)   =  0.115333327822634D+05
 --> objf_tracer(bi,bj) =  0.000000000000000D+00
 --> objf_atl(bi,bj)    =  0.000000000000000D+00
 --> objf_test(bi,bj)   =  0.727515225466629D+04
 --> objf_tracer(bi,bj) =  0.000000000000000D+00
 --> objf_atl(bi,bj)    =  0.000000000000000D+00
 --> objf_test(bi,bj)   =  0.725947628476060D+04
 --> objf_tracer(bi,bj) =  0.000000000000000D+00
 --> objf_atl(bi,bj)    =  0.000000000000000D+00
 --> objf_test(bi,bj)   =  0.580653449012278D+04
 --> objf_tracer(bi,bj) =  0.000000000000000D+00
 --> objf_atl(bi,bj)    =  0.000000000000000D+00
 --> objf_test(bi,bj)   =  0.666403613615254D+04
 --> objf_tracer(bi,bj) =  0.000000000000000D+00
 --> objf_atl(bi,bj)    =  0.000000000000000D+00
  local fc =  0.101190669428901D+06
 global fc =  0.101190669428901D+06
 ph-check fcpertplus =    101190.66942890079     
 ph-check fcpertminus =    101190.63206636210     
(PID.TID 0000.0001) INI_CG2D: CG2D normalisation factor =  1.9156564154949553E-04
(PID.TID 0000.0001) INI_CG2D: cg2dTolerance = 5.809016360175296E-07 (Area=3.6388673751E+14)
(PID.TID 0000.0001) 
(PID.TID 0000.0001)  nRecords = 123 ; filePrec =  64 ; fileIter =     72000
(PID.TID 0000.0001)     nDims =   2 , dims:
(PID.TID 0000.0001)    1: 192   1 192
(PID.TID 0000.0001)    2:  32   1  32
(PID.TID 0000.0001)     nFlds =  11 , nFl3D =   8 , fields:
(PID.TID 0000.0001)  >Uvel    < >GuNm1   < >Vvel    < >GvNm1   < >Theta   < >GtNm1   < >Salt    < >GsNm1   < >EtaN    < >dEtaHdt < >EtaH    <
(PID.TID 0000.0001)   nTimRec =   0 , timeList:
(PID.TID 0000.0001) READ_MFLDS_3D_RL: read field: "Uvel    ", #   1 in fldList, rec=   1
(PID.TID 0000.0001) READ_MFLDS_3D_RL: read field: "Vvel    ", #   3 in fldList, rec=   3
(PID.TID 0000.0001) READ_MFLDS_3D_RL: read field: "Theta   ", #   5 in fldList, rec=   5
(PID.TID 0000.0001) READ_MFLDS_3D_RL: read field: "Salt    ", #   7 in fldList, rec=   7
(PID.TID 0000.0001) READ_MFLDS_3D_RL: read field: "GuNm1   ", #   2 in fldList, rec=   2
(PID.TID 0000.0001) READ_MFLDS_3D_RL: field: "GuNm2   " missing in file: pickup.0000072000
(PID.TID 0000.0001) READ_MFLDS_3D_RL: read field: "GvNm1   ", #   4 in fldList, rec=   4
(PID.TID 0000.0001) READ_MFLDS_3D_RL: field: "GvNm2   " missing in file: pickup.0000072000
(PID.TID 0000.0001) READ_MFLDS_3D_RL: read field: "EtaN    ", #   9 in fldList, rec= 121
(PID.TID 0000.0001) READ_MFLDS_3D_RL: read field: "dEtaHdt ", #  10 in fldList, rec= 122
(PID.TID 0000.0001) READ_MFLDS_3D_RL: read field: "EtaH    ", #  11 in fldList, rec= 123
(PID.TID 0000.0001) // =======================================================
(PID.TID 0000.0001) // Model current state
(PID.TID 0000.0001) // =======================================================
(PID.TID 0000.0001) 
 EXTERNAL_FIELDS_LOAD, it=     72000 : Reading new data, i0,i1=   12    1 (prev=   12    0 )
(PID.TID 0000.0001) SOLVE_FOR_PRESSURE: putPmEinXvector =    F
 cg2d: Sum(rhs),rhsMax =  -9.69180291576777E-12  4.27829651258201E+00
 cg2d: Sum(rhs),rhsMax =  -9.52127265918534E-12  4.27315636368468E+00
 cg2d: Sum(rhs),rhsMax =  -9.77706804405898E-12  4.26761612061189E+00
 cg2d: Sum(rhs),rhsMax =  -9.43600753089413E-12  4.26249552293800E+00
 cg2d: Sum(rhs),rhsMax =  -9.69180291576777E-12  4.25768834212769E+00
 cg2d: Sum(rhs),rhsMax =  -9.66338120633736E-12  4.25317697788034E+00
 cg2d: Sum(rhs),rhsMax =  -9.66338120633736E-12  4.24897733865784E+00
 cg2d: Sum(rhs),rhsMax =  -9.57811607804615E-12  4.24510428125309E+00
 cg2d: Sum(rhs),rhsMax =  -9.63495949690696E-12  4.24156387442376E+00
 cg2d: Sum(rhs),rhsMax =  -9.60653778747655E-12  4.23836038599290E+00
 cg2d: Sum(rhs),rhsMax =  -9.66338120633736E-12  4.23549215845397E+00
 cg2d: Sum(rhs),rhsMax =  -9.63495949690696E-12  4.23294943550513E+00
 cg2d: Sum(rhs),rhsMax =  -9.69180291576777E-12  4.23071304293822E+00
 cg2d: Sum(rhs),rhsMax =  -9.49285094975494E-12  4.22875493291363E+00
 cg2d: Sum(rhs),rhsMax =  -9.57811607804615E-12  4.22703969680102E+00
 EXTERNAL_FIELDS_LOAD, it=     72015 : Reading new data, i0,i1=    1    2 (prev=   12    1 )
 cg2d: Sum(rhs),rhsMax =  -9.46442924032453E-12  4.22552625328194E+00
 cg2d: Sum(rhs),rhsMax =  -9.37916411203332E-12  4.22405606894260E+00
 cg2d: Sum(rhs),rhsMax =  -9.63495949690696E-12  4.22287762364477E+00
 cg2d: Sum(rhs),rhsMax =  -9.77706804405898E-12  4.22169095413911E+00
 cg2d: Sum(rhs),rhsMax =  -9.49285094975494E-12  4.22054741851885E+00
(PID.TID 0000.0001) Did not write pickup because writePickupAtEnd = FALSE
 --> f_ice     = 0.000000000000000D+00
 --> f_smrarea = 0.000000000000000D+00
 --> f_smrarea = 0.000000000000000D+00
 --> f_smrarea = 0.000000000000000D+00
 --> objf_test(bi,bj)   =  0.118447543578564D+05
 --> objf_tracer(bi,bj) =  0.000000000000000D+00
 --> objf_atl(bi,bj)    =  0.000000000000000D+00
 --> objf_test(bi,bj)   =  0.952598910072681D+04
 --> objf_tracer(bi,bj) =  0.000000000000000D+00
 --> objf_atl(bi,bj)    =  0.000000000000000D+00
 --> objf_test(bi,bj)   =  0.694420076042604D+04
 --> objf_tracer(bi,bj) =  0.000000000000000D+00
 --> objf_atl(bi,bj)    =  0.000000000000000D+00
 --> objf_test(bi,bj)   =  0.454148485096859D+04
 --> objf_tracer(bi,bj) =  0.000000000000000D+00
 --> objf_atl(bi,bj)    =  0.000000000000000D+00
 --> objf_test(bi,bj)   =  0.460074422686123D+04
 --> objf_tracer(bi,bj) =  0.000000000000000D+00
 --> objf_atl(bi,bj)    =  0.000000000000000D+00
 --> objf_test(bi,bj)   =  0.135691406202486D+05
 --> objf_tracer(bi,bj) =  0.000000000000000D+00
 --> objf_atl(bi,bj)    =  0.000000000000000D+00
 --> objf_test(bi,bj)   =  0.116257622982224D+05
 --> objf_tracer(bi,bj) =  0.000000000000000D+00
 --> objf_atl(bi,bj)    =  0.000000000000000D+00
 --> objf_test(bi,bj)   =  0.115333327820170D+05
 --> objf_tracer(bi,bj) =  0.000000000000000D+00
 --> objf_atl(bi,bj)    =  0.000000000000000D+00
 --> objf_test(bi,bj)   =  0.727515225450659D+04
 --> objf_tracer(bi,bj) =  0.000000000000000D+00
 --> objf_atl(bi,bj)    =  0.000000000000000D+00
 --> objf_test(bi,bj)   =  0.725947446312631D+04
 --> objf_tracer(bi,bj) =  0.000000000000000D+00
 --> objf_atl(bi,bj)    =  0.000000000000000D+00
 --> objf_test(bi,bj)   =  0.580653448998033D+04
 --> objf_tracer(bi,bj) =  0.000000000000000D+00
 --> objf_atl(bi,bj)    =  0.000000000000000D+00
 --> objf_test(bi,bj)   =  0.666402453305193D+04
 --> objf_tracer(bi,bj) =  0.000000000000000D+00
 --> objf_atl(bi,bj)    =  0.000000000000000D+00
  local fc =  0.101190594737992D+06
 global fc =  0.101190594737992D+06
grad-res -------------------------------
 grad-res     0    2    2    1    1    1    1    1   1.01190632066E+05  1.01190669429E+05  1.01190594738E+05
 grad-res     0    2    2    2    0    1    1    1   3.73446281693E+00  3.73454542423E+00 -2.21202625923E-05
(PID.TID 0000.0001)  ADM  ref_cost_function      =  1.01190632066362E+05
(PID.TID 0000.0001)  ADM  adjoint_gradient       =  3.73446281693318E+00
(PID.TID 0000.0001)  ADM  finite-diff_grad       =  3.73454542423133E+00
 ph-grd  ierr ---------------------------
 ph-grd  ierr =            0 , icomp =            2 , ichknum =            2
 ph-test icomp, ncvarcomp, ichknum            3       55522           3
 ph-grd _loc: bi, bj, icomptest, ichknum            1           1           2           3
 ph-grd -->hit<--            3           1           1           1
(PID.TID 0000.0001) INI_CG2D: CG2D normalisation factor =  1.9156564154949553E-04
(PID.TID 0000.0001) INI_CG2D: cg2dTolerance = 5.809016360175296E-07 (Area=3.6388673751E+14)
(PID.TID 0000.0001) 
(PID.TID 0000.0001)  nRecords = 123 ; filePrec =  64 ; fileIter =     72000
(PID.TID 0000.0001)     nDims =   2 , dims:
(PID.TID 0000.0001)    1: 192   1 192
(PID.TID 0000.0001)    2:  32   1  32
(PID.TID 0000.0001)     nFlds =  11 , nFl3D =   8 , fields:
(PID.TID 0000.0001)  >Uvel    < >GuNm1   < >Vvel    < >GvNm1   < >Theta   < >GtNm1   < >Salt    < >GsNm1   < >EtaN    < >dEtaHdt < >EtaH    <
(PID.TID 0000.0001)   nTimRec =   0 , timeList:
(PID.TID 0000.0001) READ_MFLDS_3D_RL: read field: "Uvel    ", #   1 in fldList, rec=   1
(PID.TID 0000.0001) READ_MFLDS_3D_RL: read field: "Vvel    ", #   3 in fldList, rec=   3
(PID.TID 0000.0001) READ_MFLDS_3D_RL: read field: "Theta   ", #   5 in fldList, rec=   5
(PID.TID 0000.0001) READ_MFLDS_3D_RL: read field: "Salt    ", #   7 in fldList, rec=   7
(PID.TID 0000.0001) READ_MFLDS_3D_RL: read field: "GuNm1   ", #   2 in fldList, rec=   2
(PID.TID 0000.0001) READ_MFLDS_3D_RL: field: "GuNm2   " missing in file: pickup.0000072000
(PID.TID 0000.0001) READ_MFLDS_3D_RL: read field: "GvNm1   ", #   4 in fldList, rec=   4
(PID.TID 0000.0001) READ_MFLDS_3D_RL: field: "GvNm2   " missing in file: pickup.0000072000
(PID.TID 0000.0001) READ_MFLDS_3D_RL: read field: "EtaN    ", #   9 in fldList, rec= 121
(PID.TID 0000.0001) READ_MFLDS_3D_RL: read field: "dEtaHdt ", #  10 in fldList, rec= 122
(PID.TID 0000.0001) READ_MFLDS_3D_RL: read field: "EtaH    ", #  11 in fldList, rec= 123
(PID.TID 0000.0001) // =======================================================
(PID.TID 0000.0001) // Model current state
(PID.TID 0000.0001) // =======================================================
(PID.TID 0000.0001) 
 EXTERNAL_FIELDS_LOAD, it=     72000 : Reading new data, i0,i1=   12    1 (prev=   12    0 )
(PID.TID 0000.0001) SOLVE_FOR_PRESSURE: putPmEinXvector =    F
 cg2d: Sum(rhs),rhsMax =  -9.69180291576777E-12  4.27829651258201E+00
 cg2d: Sum(rhs),rhsMax =  -9.54969436861575E-12  4.27315636353171E+00
 cg2d: Sum(rhs),rhsMax =  -9.66338120633736E-12  4.26761611981560E+00
 cg2d: Sum(rhs),rhsMax =  -9.57811607804615E-12  4.26249552094046E+00
 cg2d: Sum(rhs),rhsMax =  -9.77706804405898E-12  4.25768833859101E+00
 cg2d: Sum(rhs),rhsMax =  -9.20863385545090E-12  4.25317697269968E+00
 cg2d: Sum(rhs),rhsMax =  -9.66338120633736E-12  4.24897733190589E+00
 cg2d: Sum(rhs),rhsMax =  -9.54969436861575E-12  4.24510427313935E+00
 cg2d: Sum(rhs),rhsMax =  -9.69180291576777E-12  4.24156386527469E+00
 cg2d: Sum(rhs),rhsMax =  -9.49285094975494E-12  4.23836037616111E+00
 cg2d: Sum(rhs),rhsMax =  -9.97602001007181E-12  4.23549214821238E+00
 cg2d: Sum(rhs),rhsMax =  -9.66338120633736E-12  4.23294942502136E+00
 cg2d: Sum(rhs),rhsMax =  -9.60653778747655E-12  4.23071303232172E+00
 cg2d: Sum(rhs),rhsMax =  -9.63495949690696E-12  4.22875492232605E+00
 cg2d: Sum(rhs),rhsMax =  -9.40758582146373E-12  4.22703968650830E+00
 EXTERNAL_FIELDS_LOAD, it=     72015 : Reading new data, i0,i1=    1    2 (prev=   12    1 )
 cg2d: Sum(rhs),rhsMax =  -9.52127265918534E-12  4.22552624364570E+00
 cg2d: Sum(rhs),rhsMax =  -9.91917659121100E-12  4.22405606034470E+00
 cg2d: Sum(rhs),rhsMax =  -9.74864633462857E-12  4.22287761642940E+00
 cg2d: Sum(rhs),rhsMax =  -9.46442924032453E-12  4.22169094852065E+00
 cg2d: Sum(rhs),rhsMax =  -9.72022462519817E-12  4.22054741458410E+00
(PID.TID 0000.0001) Did not write pickup because writePickupAtEnd = FALSE
 --> f_ice     = 0.000000000000000D+00
 --> f_smrarea = 0.000000000000000D+00
 --> f_smrarea = 0.000000000000000D+00
 --> f_smrarea = 0.000000000000000D+00
 --> objf_test(bi,bj)   =  0.118448157429919D+05
 --> objf_tracer(bi,bj) =  0.000000000000000D+00
 --> objf_atl(bi,bj)    =  0.000000000000000D+00
 --> objf_test(bi,bj)   =  0.952598910061774D+04
 --> objf_tracer(bi,bj) =  0.000000000000000D+00
 --> objf_atl(bi,bj)    =  0.000000000000000D+00
 --> objf_test(bi,bj)   =  0.694420076070330D+04
 --> objf_tracer(bi,bj) =  0.000000000000000D+00
 --> objf_atl(bi,bj)    =  0.000000000000000D+00
 --> objf_test(bi,bj)   =  0.454148485175197D+04
 --> objf_tracer(bi,bj) =  0.000000000000000D+00
 --> objf_atl(bi,bj)    =  0.000000000000000D+00
 --> objf_test(bi,bj)   =  0.460074422613690D+04
 --> objf_tracer(bi,bj) =  0.000000000000000D+00
 --> objf_atl(bi,bj)    =  0.000000000000000D+00
 --> objf_test(bi,bj)   =  0.135691406207093D+05
 --> objf_tracer(bi,bj) =  0.000000000000000D+00
 --> objf_atl(bi,bj)    =  0.000000000000000D+00
 --> objf_test(bi,bj)   =  0.116257622980035D+05
 --> objf_tracer(bi,bj) =  0.000000000000000D+00
 --> objf_atl(bi,bj)    =  0.000000000000000D+00
 --> objf_test(bi,bj)   =  0.115333327823142D+05
 --> objf_tracer(bi,bj) =  0.000000000000000D+00
 --> objf_atl(bi,bj)    =  0.000000000000000D+00
 --> objf_test(bi,bj)   =  0.727515225469290D+04
 --> objf_tracer(bi,bj) =  0.000000000000000D+00
 --> objf_atl(bi,bj)    =  0.000000000000000D+00
 --> objf_test(bi,bj)   =  0.725947547782992D+04
 --> objf_tracer(bi,bj) =  0.000000000000000D+00
 --> objf_atl(bi,bj)    =  0.000000000000000D+00
 --> objf_test(bi,bj)   =  0.580653449014943D+04
 --> objf_tracer(bi,bj) =  0.000000000000000D+00
 --> objf_atl(bi,bj)    =  0.000000000000000D+00
 --> objf_test(bi,bj)   =  0.666403343674079D+04
 --> objf_tracer(bi,bj) =  0.000000000000000D+00
 --> objf_atl(bi,bj)    =  0.000000000000000D+00
  local fc =  0.101190666042642D+06
 global fc =  0.101190666042642D+06
 ph-check fcpertplus =    101190.66604264187     
 ph-check fcpertminus =    101190.63206636210     
(PID.TID 0000.0001) INI_CG2D: CG2D normalisation factor =  1.9156564154949553E-04
(PID.TID 0000.0001) INI_CG2D: cg2dTolerance = 5.809016360175296E-07 (Area=3.6388673751E+14)
(PID.TID 0000.0001) 
(PID.TID 0000.0001)  nRecords = 123 ; filePrec =  64 ; fileIter =     72000
(PID.TID 0000.0001)     nDims =   2 , dims:
(PID.TID 0000.0001)    1: 192   1 192
(PID.TID 0000.0001)    2:  32   1  32
(PID.TID 0000.0001)     nFlds =  11 , nFl3D =   8 , fields:
(PID.TID 0000.0001)  >Uvel    < >GuNm1   < >Vvel    < >GvNm1   < >Theta   < >GtNm1   < >Salt    < >GsNm1   < >EtaN    < >dEtaHdt < >EtaH    <
(PID.TID 0000.0001)   nTimRec =   0 , timeList:
(PID.TID 0000.0001) READ_MFLDS_3D_RL: read field: "Uvel    ", #   1 in fldList, rec=   1
(PID.TID 0000.0001) READ_MFLDS_3D_RL: read field: "Vvel    ", #   3 in fldList, rec=   3
(PID.TID 0000.0001) READ_MFLDS_3D_RL: read field: "Theta   ", #   5 in fldList, rec=   5
(PID.TID 0000.0001) READ_MFLDS_3D_RL: read field: "Salt    ", #   7 in fldList, rec=   7
(PID.TID 0000.0001) READ_MFLDS_3D_RL: read field: "GuNm1   ", #   2 in fldList, rec=   2
(PID.TID 0000.0001) READ_MFLDS_3D_RL: field: "GuNm2   " missing in file: pickup.0000072000
(PID.TID 0000.0001) READ_MFLDS_3D_RL: read field: "GvNm1   ", #   4 in fldList, rec=   4
(PID.TID 0000.0001) READ_MFLDS_3D_RL: field: "GvNm2   " missing in file: pickup.0000072000
(PID.TID 0000.0001) READ_MFLDS_3D_RL: read field: "EtaN    ", #   9 in fldList, rec= 121
(PID.TID 0000.0001) READ_MFLDS_3D_RL: read field: "dEtaHdt ", #  10 in fldList, rec= 122
(PID.TID 0000.0001) READ_MFLDS_3D_RL: read field: "EtaH    ", #  11 in fldList, rec= 123
(PID.TID 0000.0001) // =======================================================
(PID.TID 0000.0001) // Model current state
(PID.TID 0000.0001) // =======================================================
(PID.TID 0000.0001) 
 EXTERNAL_FIELDS_LOAD, it=     72000 : Reading new data, i0,i1=   12    1 (prev=   12    0 )
(PID.TID 0000.0001) SOLVE_FOR_PRESSURE: putPmEinXvector =    F
 cg2d: Sum(rhs),rhsMax =  -9.69180291576777E-12  4.27829651258201E+00
 cg2d: Sum(rhs),rhsMax =  -9.40758582146373E-12  4.27315636345511E+00
 cg2d: Sum(rhs),rhsMax =  -9.60653778747655E-12  4.26761612082331E+00
 cg2d: Sum(rhs),rhsMax =  -9.66338120633736E-12  4.26249552325441E+00
 cg2d: Sum(rhs),rhsMax =  -9.69180291576777E-12  4.25768834264087E+00
 cg2d: Sum(rhs),rhsMax =  -9.72022462519817E-12  4.25317697864432E+00
 cg2d: Sum(rhs),rhsMax =  -9.57811607804615E-12  4.24897733963914E+00
 cg2d: Sum(rhs),rhsMax =  -9.77706804405898E-12  4.24510428242764E+00
 cg2d: Sum(rhs),rhsMax =  -9.57811607804615E-12  4.24156387573094E+00
 cg2d: Sum(rhs),rhsMax =  -9.63495949690696E-12  4.23836038739895E+00
 cg2d: Sum(rhs),rhsMax =  -9.46442924032453E-12  4.23549215992024E+00
 cg2d: Sum(rhs),rhsMax =  -9.54969436861575E-12  4.23294943701179E+00
 cg2d: Sum(rhs),rhsMax =  -9.77706804405898E-12  4.23071304447178E+00
 cg2d: Sum(rhs),rhsMax =  -9.86233317235019E-12  4.22875493443832E+00
 cg2d: Sum(rhs),rhsMax =  -9.80548975348938E-12  4.22703969827563E+00
 EXTERNAL_FIELDS_LOAD, it=     72015 : Reading new data, i0,i1=    1    2 (prev=   12    1 )
 cg2d: Sum(rhs),rhsMax =  -9.40758582146373E-12  4.22552625465353E+00
 cg2d: Sum(rhs),rhsMax =  -9.66338120633736E-12  4.22405607014933E+00
 cg2d: Sum(rhs),rhsMax =  -9.83391146291979E-12  4.22287762463404E+00
 cg2d: Sum(rhs),rhsMax =  -9.69180291576777E-12  4.22169095488942E+00
 cg2d: Sum(rhs),rhsMax =  -9.57811607804615E-12  4.22054741900884E+00
(PID.TID 0000.0001) Did not write pickup because writePickupAtEnd = FALSE
 --> f_ice     = 0.000000000000000D+00
 --> f_smrarea = 0.000000000000000D+00
 --> f_smrarea = 0.000000000000000D+00
 --> f_smrarea = 0.000000000000000D+00
 --> objf_test(bi,bj)   =  0.118447542092272D+05
 --> objf_tracer(bi,bj) =  0.000000000000000D+00
 --> objf_atl(bi,bj)    =  0.000000000000000D+00
 --> objf_test(bi,bj)   =  0.952598910075247D+04
 --> objf_tracer(bi,bj) =  0.000000000000000D+00
 --> objf_atl(bi,bj)    =  0.000000000000000D+00
 --> objf_test(bi,bj)   =  0.694420076037854D+04
 --> objf_tracer(bi,bj) =  0.000000000000000D+00
 --> objf_atl(bi,bj)    =  0.000000000000000D+00
 --> objf_test(bi,bj)   =  0.454148485085406D+04
 --> objf_tracer(bi,bj) =  0.000000000000000D+00
 --> objf_atl(bi,bj)    =  0.000000000000000D+00
 --> objf_test(bi,bj)   =  0.460074422696004D+04
 --> objf_tracer(bi,bj) =  0.000000000000000D+00
 --> objf_atl(bi,bj)    =  0.000000000000000D+00
 --> objf_test(bi,bj)   =  0.135691406201671D+05
 --> objf_tracer(bi,bj) =  0.000000000000000D+00
 --> objf_atl(bi,bj)    =  0.000000000000000D+00
 --> objf_test(bi,bj)   =  0.116257622982626D+05
 --> objf_tracer(bi,bj) =  0.000000000000000D+00
 --> objf_atl(bi,bj)    =  0.000000000000000D+00
 --> objf_test(bi,bj)   =  0.115333327819663D+05
 --> objf_tracer(bi,bj) =  0.000000000000000D+00
 --> objf_atl(bi,bj)    =  0.000000000000000D+00
 --> objf_test(bi,bj)   =  0.727515225447990D+04
 --> objf_tracer(bi,bj) =  0.000000000000000D+00
 --> objf_atl(bi,bj)    =  0.000000000000000D+00
 --> objf_test(bi,bj)   =  0.725947527066072D+04
 --> objf_tracer(bi,bj) =  0.000000000000000D+00
 --> objf_atl(bi,bj)    =  0.000000000000000D+00
 --> objf_test(bi,bj)   =  0.580653448995361D+04
 --> objf_tracer(bi,bj) =  0.000000000000000D+00
 --> objf_atl(bi,bj)    =  0.000000000000000D+00
 --> objf_test(bi,bj)   =  0.666402723908788D+04
 --> objf_tracer(bi,bj) =  0.000000000000000D+00
 --> objf_atl(bi,bj)    =  0.000000000000000D+00
  local fc =  0.101190598102750D+06
 global fc =  0.101190598102750D+06
grad-res -------------------------------
 grad-res     0    3    3    1    1    1    1    1   1.01190632066E+05  1.01190666043E+05  1.01190598103E+05
 grad-res     0    3    3    3    0    1    1    1   3.39813240786E+00  3.39699456963E+00  3.34842229362E-04
(PID.TID 0000.0001)  ADM  ref_cost_function      =  1.01190632066362E+05
(PID.TID 0000.0001)  ADM  adjoint_gradient       =  3.39813240786101E+00
(PID.TID 0000.0001)  ADM  finite-diff_grad       =  3.39699456962990E+00
 ph-grd  ierr ---------------------------
 ph-grd  ierr =            0 , icomp =            3 , ichknum =            3
 ph-test icomp, ncvarcomp, ichknum            4       55522           4
 ph-grd _loc: bi, bj, icomptest, ichknum            1           1           3           4
 ph-grd -->hit<--            4           1           1           1
(PID.TID 0000.0001) INI_CG2D: CG2D normalisation factor =  1.9156564154949553E-04
(PID.TID 0000.0001) INI_CG2D: cg2dTolerance = 5.809016360175296E-07 (Area=3.6388673751E+14)
(PID.TID 0000.0001) 
(PID.TID 0000.0001)  nRecords = 123 ; filePrec =  64 ; fileIter =     72000
(PID.TID 0000.0001)     nDims =   2 , dims:
(PID.TID 0000.0001)    1: 192   1 192
(PID.TID 0000.0001)    2:  32   1  32
(PID.TID 0000.0001)     nFlds =  11 , nFl3D =   8 , fields:
(PID.TID 0000.0001)  >Uvel    < >GuNm1   < >Vvel    < >GvNm1   < >Theta   < >GtNm1   < >Salt    < >GsNm1   < >EtaN    < >dEtaHdt < >EtaH    <
(PID.TID 0000.0001)   nTimRec =   0 , timeList:
(PID.TID 0000.0001) READ_MFLDS_3D_RL: read field: "Uvel    ", #   1 in fldList, rec=   1
(PID.TID 0000.0001) READ_MFLDS_3D_RL: read field: "Vvel    ", #   3 in fldList, rec=   3
(PID.TID 0000.0001) READ_MFLDS_3D_RL: read field: "Theta   ", #   5 in fldList, rec=   5
(PID.TID 0000.0001) READ_MFLDS_3D_RL: read field: "Salt    ", #   7 in fldList, rec=   7
(PID.TID 0000.0001) READ_MFLDS_3D_RL: read field: "GuNm1   ", #   2 in fldList, rec=   2
(PID.TID 0000.0001) READ_MFLDS_3D_RL: field: "GuNm2   " missing in file: pickup.0000072000
(PID.TID 0000.0001) READ_MFLDS_3D_RL: read field: "GvNm1   ", #   4 in fldList, rec=   4
(PID.TID 0000.0001) READ_MFLDS_3D_RL: field: "GvNm2   " missing in file: pickup.0000072000
(PID.TID 0000.0001) READ_MFLDS_3D_RL: read field: "EtaN    ", #   9 in fldList, rec= 121
(PID.TID 0000.0001) READ_MFLDS_3D_RL: read field: "dEtaHdt ", #  10 in fldList, rec= 122
(PID.TID 0000.0001) READ_MFLDS_3D_RL: read field: "EtaH    ", #  11 in fldList, rec= 123
(PID.TID 0000.0001) // =======================================================
(PID.TID 0000.0001) // Model current state
(PID.TID 0000.0001) // =======================================================
(PID.TID 0000.0001) 
 EXTERNAL_FIELDS_LOAD, it=     72000 : Reading new data, i0,i1=   12    1 (prev=   12    0 )
(PID.TID 0000.0001) SOLVE_FOR_PRESSURE: putPmEinXvector =    F
 cg2d: Sum(rhs),rhsMax =  -9.69180291576777E-12  4.27829651258201E+00
 cg2d: Sum(rhs),rhsMax =  -9.60653778747655E-12  4.27315636338512E+00
 cg2d: Sum(rhs),rhsMax =  -9.77706804405898E-12  4.26761611974666E+00
 cg2d: Sum(rhs),rhsMax =  -9.60653778747655E-12  4.26249552069393E+00
 cg2d: Sum(rhs),rhsMax =  -9.63495949690696E-12  4.25768833812988E+00
 cg2d: Sum(rhs),rhsMax =  -9.72022462519817E-12  4.25317697204832E+00
 cg2d: Sum(rhs),rhsMax =  -9.94759830064140E-12  4.24897733108474E+00
 cg2d: Sum(rhs),rhsMax =  -9.54969436861575E-12  4.24510427219970E+00
 cg2d: Sum(rhs),rhsMax =  -9.49285094975494E-12  4.24156386424260E+00
 cg2d: Sum(rhs),rhsMax =  -9.35074240260292E-12  4.23836037507444E+00
 cg2d: Sum(rhs),rhsMax =  -9.54969436861575E-12  4.23549214709021E+00
 cg2d: Sum(rhs),rhsMax =  -9.54969436861575E-12  4.23294942388050E+00
 cg2d: Sum(rhs),rhsMax =  -9.40758582146373E-12  4.23071303116979E+00
 cg2d: Sum(rhs),rhsMax =  -9.77706804405898E-12  4.22875492118879E+00
 cg2d: Sum(rhs),rhsMax =  -9.66338120633736E-12  4.22703968541640E+00
 EXTERNAL_FIELDS_LOAD, it=     72015 : Reading new data, i0,i1=    1    2 (prev=   12    1 )
 cg2d: Sum(rhs),rhsMax =  -9.46442924032453E-12  4.22552624264127E+00
 cg2d: Sum(rhs),rhsMax =  -9.77706804405898E-12  4.22405605947127E+00
 cg2d: Sum(rhs),rhsMax =  -9.83391146291979E-12  4.22287761571417E+00
 cg2d: Sum(rhs),rhsMax =  -9.63495949690696E-12  4.22169094799013E+00
 cg2d: Sum(rhs),rhsMax =  -9.57811607804615E-12  4.22054741424891E+00
(PID.TID 0000.0001) Did not write pickup because writePickupAtEnd = FALSE
 --> f_ice     = 0.000000000000000D+00
 --> f_smrarea = 0.000000000000000D+00
 --> f_smrarea = 0.000000000000000D+00
 --> f_smrarea = 0.000000000000000D+00
 --> objf_test(bi,bj)   =  0.118448131466312D+05
 --> objf_tracer(bi,bj) =  0.000000000000000D+00
 --> objf_atl(bi,bj)    =  0.000000000000000D+00
 --> objf_test(bi,bj)   =  0.952598910060535D+04
 --> objf_tracer(bi,bj) =  0.000000000000000D+00
 --> objf_atl(bi,bj)    =  0.000000000000000D+00
 --> objf_test(bi,bj)   =  0.694420076073977D+04
 --> objf_tracer(bi,bj) =  0.000000000000000D+00
 --> objf_atl(bi,bj)    =  0.000000000000000D+00
 --> objf_test(bi,bj)   =  0.454148485184080D+04
 --> objf_tracer(bi,bj) =  0.000000000000000D+00
 --> objf_atl(bi,bj)    =  0.000000000000000D+00
 --> objf_test(bi,bj)   =  0.460074422605251D+04
 --> objf_tracer(bi,bj) =  0.000000000000000D+00
 --> objf_atl(bi,bj)    =  0.000000000000000D+00
 --> objf_test(bi,bj)   =  0.135691406207681D+05
 --> objf_tracer(bi,bj) =  0.000000000000000D+00
 --> objf_atl(bi,bj)    =  0.000000000000000D+00
 --> objf_test(bi,bj)   =  0.116257622979844D+05
 --> objf_tracer(bi,bj) =  0.000000000000000D+00
 --> objf_atl(bi,bj)    =  0.000000000000000D+00
 --> objf_test(bi,bj)   =  0.115333327823493D+05
 --> objf_tracer(bi,bj) =  0.000000000000000D+00
 --> objf_atl(bi,bj)    =  0.000000000000000D+00
 --> objf_test(bi,bj)   =  0.727515225471730D+04
 --> objf_tracer(bi,bj) =  0.000000000000000D+00
 --> objf_atl(bi,bj)    =  0.000000000000000D+00
 --> objf_test(bi,bj)   =  0.725947542980274D+04
 --> objf_tracer(bi,bj) =  0.000000000000000D+00
 --> objf_atl(bi,bj)    =  0.000000000000000D+00
 --> objf_test(bi,bj)   =  0.580653449017100D+04
 --> objf_tracer(bi,bj) =  0.000000000000000D+00
 --> objf_atl(bi,bj)    =  0.000000000000000D+00
 --> objf_test(bi,bj)   =  0.666403176691933D+04
 --> objf_tracer(bi,bj) =  0.000000000000000D+00
 --> objf_atl(bi,bj)    =  0.000000000000000D+00
  local fc =  0.101190661728582D+06
 global fc =  0.101190661728582D+06
 ph-check fcpertplus =    101190.66172858179     
 ph-check fcpertminus =    101190.63206636210     
(PID.TID 0000.0001) INI_CG2D: CG2D normalisation factor =  1.9156564154949553E-04
(PID.TID 0000.0001) INI_CG2D: cg2dTolerance = 5.809016360175296E-07 (Area=3.6388673751E+14)
(PID.TID 0000.0001) 
(PID.TID 0000.0001)  nRecords = 123 ; filePrec =  64 ; fileIter =     72000
(PID.TID 0000.0001)     nDims =   2 , dims:
(PID.TID 0000.0001)    1: 192   1 192
(PID.TID 0000.0001)    2:  32   1  32
(PID.TID 0000.0001)     nFlds =  11 , nFl3D =   8 , fields:
(PID.TID 0000.0001)  >Uvel    < >GuNm1   < >Vvel    < >GvNm1   < >Theta   < >GtNm1   < >Salt    < >GsNm1   < >EtaN    < >dEtaHdt < >EtaH    <
(PID.TID 0000.0001)   nTimRec =   0 , timeList:
(PID.TID 0000.0001) READ_MFLDS_3D_RL: read field: "Uvel    ", #   1 in fldList, rec=   1
(PID.TID 0000.0001) READ_MFLDS_3D_RL: read field: "Vvel    ", #   3 in fldList, rec=   3
(PID.TID 0000.0001) READ_MFLDS_3D_RL: read field: "Theta   ", #   5 in fldList, rec=   5
(PID.TID 0000.0001) READ_MFLDS_3D_RL: read field: "Salt    ", #   7 in fldList, rec=   7
(PID.TID 0000.0001) READ_MFLDS_3D_RL: read field: "GuNm1   ", #   2 in fldList, rec=   2
(PID.TID 0000.0001) READ_MFLDS_3D_RL: field: "GuNm2   " missing in file: pickup.0000072000
(PID.TID 0000.0001) READ_MFLDS_3D_RL: read field: "GvNm1   ", #   4 in fldList, rec=   4
(PID.TID 0000.0001) READ_MFLDS_3D_RL: field: "GvNm2   " missing in file: pickup.0000072000
(PID.TID 0000.0001) READ_MFLDS_3D_RL: read field: "EtaN    ", #   9 in fldList, rec= 121
(PID.TID 0000.0001) READ_MFLDS_3D_RL: read field: "dEtaHdt ", #  10 in fldList, rec= 122
(PID.TID 0000.0001) READ_MFLDS_3D_RL: read field: "EtaH    ", #  11 in fldList, rec= 123
(PID.TID 0000.0001) // =======================================================
(PID.TID 0000.0001) // Model current state
(PID.TID 0000.0001) // =======================================================
(PID.TID 0000.0001) 
 EXTERNAL_FIELDS_LOAD, it=     72000 : Reading new data, i0,i1=   12    1 (prev=   12    0 )
(PID.TID 0000.0001) SOLVE_FOR_PRESSURE: putPmEinXvector =    F
 cg2d: Sum(rhs),rhsMax =  -9.66338120633736E-12  4.27829651258201E+00
 cg2d: Sum(rhs),rhsMax =  -9.91917659121100E-12  4.27315636357863E+00
 cg2d: Sum(rhs),rhsMax =  -9.49285094975494E-12  4.26761612089699E+00
 cg2d: Sum(rhs),rhsMax =  -9.46442924032453E-12  4.26249552350274E+00
 cg2d: Sum(rhs),rhsMax =  -9.54969436861575E-12  4.25768834310343E+00
 cg2d: Sum(rhs),rhsMax =  -9.89075488178059E-12  4.25317697929723E+00
 cg2d: Sum(rhs),rhsMax =  -9.89075488178059E-12  4.24897734046165E+00
 cg2d: Sum(rhs),rhsMax =  -9.54969436861575E-12  4.24510428337060E+00
 cg2d: Sum(rhs),rhsMax =  -9.60653778747655E-12  4.24156387676257E+00
 cg2d: Sum(rhs),rhsMax =  -9.89075488178059E-12  4.23836038848373E+00
 cg2d: Sum(rhs),rhsMax =  -9.43600753089413E-12  4.23549216104242E+00
 cg2d: Sum(rhs),rhsMax =  -9.49285094975494E-12  4.23294943816383E+00
 cg2d: Sum(rhs),rhsMax =  -9.66338120633736E-12  4.23071304562483E+00
 cg2d: Sum(rhs),rhsMax =  -9.57811607804615E-12  4.22875493557872E+00
 cg2d: Sum(rhs),rhsMax =  -9.60653778747655E-12  4.22703969936977E+00
 EXTERNAL_FIELDS_LOAD, it=     72015 : Reading new data, i0,i1=    1    2 (prev=   12    1 )
 cg2d: Sum(rhs),rhsMax =  -9.69180291576777E-12  4.22552625565965E+00
 cg2d: Sum(rhs),rhsMax =  -9.57811607804615E-12  4.22405607102753E+00
 cg2d: Sum(rhs),rhsMax =  -9.63495949690696E-12  4.22287762534819E+00
 cg2d: Sum(rhs),rhsMax =  -9.37916411203332E-12  4.22169095541675E+00
 cg2d: Sum(rhs),rhsMax =  -9.83391146291979E-12  4.22054741934254E+00
(PID.TID 0000.0001) Did not write pickup because writePickupAtEnd = FALSE
 --> f_ice     = 0.000000000000000D+00
 --> f_smrarea = 0.000000000000000D+00
 --> f_smrarea = 0.000000000000000D+00
 --> f_smrarea = 0.000000000000000D+00
 --> objf_test(bi,bj)   =  0.118447568426417D+05
 --> objf_tracer(bi,bj) =  0.000000000000000D+00
 --> objf_atl(bi,bj)    =  0.000000000000000D+00
 --> objf_test(bi,bj)   =  0.952598910076574D+04
 --> objf_tracer(bi,bj) =  0.000000000000000D+00
 --> objf_atl(bi,bj)    =  0.000000000000000D+00
 --> objf_test(bi,bj)   =  0.694420076034180D+04
 --> objf_tracer(bi,bj) =  0.000000000000000D+00
 --> objf_atl(bi,bj)    =  0.000000000000000D+00
 --> objf_test(bi,bj)   =  0.454148485076545D+04
 --> objf_tracer(bi,bj) =  0.000000000000000D+00
 --> objf_atl(bi,bj)    =  0.000000000000000D+00
 --> objf_test(bi,bj)   =  0.460074422704357D+04
 --> objf_tracer(bi,bj) =  0.000000000000000D+00
 --> objf_atl(bi,bj)    =  0.000000000000000D+00
 --> objf_test(bi,bj)   =  0.135691406201070D+05
 --> objf_tracer(bi,bj) =  0.000000000000000D+00
 --> objf_atl(bi,bj)    =  0.000000000000000D+00
 --> objf_test(bi,bj)   =  0.116257622982833D+05
 --> objf_tracer(bi,bj) =  0.000000000000000D+00
 --> objf_atl(bi,bj)    =  0.000000000000000D+00
 --> objf_test(bi,bj)   =  0.115333327819307D+05
 --> objf_tracer(bi,bj) =  0.000000000000000D+00
 --> objf_atl(bi,bj)    =  0.000000000000000D+00
 --> objf_test(bi,bj)   =  0.727515225445573D+04
 --> objf_tracer(bi,bj) =  0.000000000000000D+00
 --> objf_atl(bi,bj)    =  0.000000000000000D+00
 --> objf_test(bi,bj)   =  0.725947531859456D+04
 --> objf_tracer(bi,bj) =  0.000000000000000D+00
 --> objf_atl(bi,bj)    =  0.000000000000000D+00
 --> objf_test(bi,bj)   =  0.580653448993223D+04
 --> objf_tracer(bi,bj) =  0.000000000000000D+00
 --> objf_atl(bi,bj)    =  0.000000000000000D+00
 --> objf_test(bi,bj)   =  0.666402890300419D+04
 --> objf_tracer(bi,bj) =  0.000000000000000D+00
 --> objf_atl(bi,bj)    =  0.000000000000000D+00
  local fc =  0.101190602447866D+06
 global fc =  0.101190602447866D+06
grad-res -------------------------------
 grad-res     0    4    4    1    1    1    1    1   1.01190632066E+05  1.01190661729E+05  1.01190602448E+05
 grad-res     0    4    4    4    0    1    1    1   2.96393193215E+00  2.96403579268E+00 -3.50414711126E-05
(PID.TID 0000.0001)  ADM  ref_cost_function      =  1.01190632066362E+05
(PID.TID 0000.0001)  ADM  adjoint_gradient       =  2.96393193214854E+00
(PID.TID 0000.0001)  ADM  finite-diff_grad       =  2.96403579268372E+00
 ph-grd  ierr ---------------------------
 ph-grd  ierr =            0 , icomp =            4 , ichknum =            4
(PID.TID 0000.0001) 
(PID.TID 0000.0001) // =======================================================
(PID.TID 0000.0001) // Gradient check results  >>> START <<<
(PID.TID 0000.0001) // =======================================================
(PID.TID 0000.0001) 
(PID.TID 0000.0001)  EPS =   1.000000E-02
(PID.TID 0000.0001) 
(PID.TID 0000.0001) grdchk output h.p:  Id Itile Jtile LAYER   bi   bj   X(Id)           X(Id)+/-EPS
(PID.TID 0000.0001) grdchk output h.c:  Id  FC                   FC1                  FC2
(PID.TID 0000.0001) grdchk output h.g:  Id     FC1-FC2/(2*EPS)      ADJ GRAD(FC)         1-FDGRD/ADGRD
(PID.TID 0000.0001) 
(PID.TID 0000.0001) grdchk output (p):   1     1     1     1    1    1   0.000000000E+00 -1.000000000E-02
(PID.TID 0000.0001) grdchk output (c):   1  1.0119063206636E+05  1.0119066507341E+05  1.0119059908598E+05
(PID.TID 0000.0001) grdchk output (g):   1     3.2993718428770E+00  3.2991789192896E+00 -5.8476242773775E-05
(PID.TID 0000.0001) 
(PID.TID 0000.0001) grdchk output (p):   2     2     1     1    1    1   0.000000000E+00 -1.000000000E-02
(PID.TID 0000.0001) grdchk output (c):   2  1.0119063206636E+05  1.0119066942890E+05  1.0119059473799E+05
(PID.TID 0000.0001) grdchk output (g):   2     3.7345454242313E+00  3.7344628169332E+00 -2.2120262592296E-05
(PID.TID 0000.0001) 
(PID.TID 0000.0001) grdchk output (p):   3     3     1     1    1    1   0.000000000E+00 -1.000000000E-02
(PID.TID 0000.0001) grdchk output (c):   3  1.0119063206636E+05  1.0119066604264E+05  1.0119059810275E+05
(PID.TID 0000.0001) grdchk output (g):   3     3.3969945696299E+00  3.3981324078610E+00  3.3484222936175E-04
(PID.TID 0000.0001) 
(PID.TID 0000.0001) grdchk output (p):   4     4     1     1    1    1   0.000000000E+00 -1.000000000E-02
(PID.TID 0000.0001) grdchk output (c):   4  1.0119063206636E+05  1.0119066172858E+05  1.0119060244787E+05
(PID.TID 0000.0001) grdchk output (g):   4     2.9640357926837E+00  2.9639319321485E+00 -3.5041471112551E-05
(PID.TID 0000.0001) 
(PID.TID 0000.0001) grdchk  summary  :  RMS of    4 ratios =  1.7121331741994E-04
(PID.TID 0000.0001) 
(PID.TID 0000.0001) // =======================================================
(PID.TID 0000.0001) // Gradient check results  >>> END <<<
(PID.TID 0000.0001) // =======================================================
(PID.TID 0000.0001) 
(PID.TID 0000.0001)   Seconds in section "ALL                    [THE_MODEL_MAIN]":
(PID.TID 0000.0001)           User time:   295.63999999999999
(PID.TID 0000.0001)         System time:   1.7800000000000000
(PID.TID 0000.0001)     Wall clock time:   303.37176012992859
(PID.TID 0000.0001)          No. starts:           1
(PID.TID 0000.0001)           No. stops:           1
(PID.TID 0000.0001)   Seconds in section "INITIALISE_FIXED       [THE_MODEL_MAIN]":
(PID.TID 0000.0001)           User time:  0.23000000000000001
(PID.TID 0000.0001)         System time:  5.99999999999999978E-002
(PID.TID 0000.0001)     Wall clock time:  0.31405591964721680
(PID.TID 0000.0001)          No. starts:           1
(PID.TID 0000.0001)           No. stops:           1
(PID.TID 0000.0001)   Seconds in section "ADTHE_MAIN_LOOP          [ADJOINT RUN]":
(PID.TID 0000.0001)           User time:   146.22000000000003
(PID.TID 0000.0001)         System time:   1.6199999999999999
(PID.TID 0000.0001)     Wall clock time:   153.43563413619995
(PID.TID 0000.0001)          No. starts:           1
(PID.TID 0000.0001)           No. stops:           1
(PID.TID 0000.0001)   Seconds in section "UPDATE_R_STAR       [FORWARD_STEP]":
(PID.TID 0000.0001)           User time:   4.8499999999996248
(PID.TID 0000.0001)         System time:  1.00000000000000089E-002
(PID.TID 0000.0001)     Wall clock time:   4.9281289577484131
(PID.TID 0000.0001)          No. starts:         400
(PID.TID 0000.0001)           No. stops:         400
(PID.TID 0000.0001)   Seconds in section "LOAD_FIELDS_DRIVER  [FORWARD_STEP]":
(PID.TID 0000.0001)           User time:  0.44999999999998863
(PID.TID 0000.0001)         System time:  2.00000000000000178E-002
(PID.TID 0000.0001)     Wall clock time:  0.43914961814880371
(PID.TID 0000.0001)          No. starts:         200
(PID.TID 0000.0001)           No. stops:         200
(PID.TID 0000.0001)   Seconds in section "EXTERNAL_FLDS_LOAD [LOAD_FLDS_DRIVER]":
(PID.TID 0000.0001)           User time:  0.45999999999997954
(PID.TID 0000.0001)         System time:  3.00000000000000266E-002
(PID.TID 0000.0001)     Wall clock time:  0.47806644439697266
(PID.TID 0000.0001)          No. starts:         220
(PID.TID 0000.0001)           No. stops:         220
(PID.TID 0000.0001)   Seconds in section "I/O (WRITE)        [ADJOINT LOOP]":
(PID.TID 0000.0001)           User time:   1.6499999999999773
(PID.TID 0000.0001)         System time:  0.23999999999999955
(PID.TID 0000.0001)     Wall clock time:   6.9798641204833984
(PID.TID 0000.0001)          No. starts:         340
(PID.TID 0000.0001)           No. stops:         340
(PID.TID 0000.0001)   Seconds in section "DO_ATMOSPHERIC_PHYS [FORWARD_STEP]":
(PID.TID 0000.0001)           User time:   0.0000000000000000
(PID.TID 0000.0001)         System time:   0.0000000000000000
(PID.TID 0000.0001)     Wall clock time:  1.77407264709472656E-003
(PID.TID 0000.0001)          No. starts:         200
(PID.TID 0000.0001)           No. stops:         200
(PID.TID 0000.0001)   Seconds in section "DO_OCEANIC_PHYS     [FORWARD_STEP]":
(PID.TID 0000.0001)           User time:   30.800000000000296
(PID.TID 0000.0001)         System time:   0.0000000000000000
(PID.TID 0000.0001)     Wall clock time:   30.870189905166626
(PID.TID 0000.0001)          No. starts:         200
(PID.TID 0000.0001)           No. stops:         200
(PID.TID 0000.0001)   Seconds in section "DYNAMICS            [FORWARD_STEP]":
(PID.TID 0000.0001)           User time:   48.339999999999350
(PID.TID 0000.0001)         System time:   0.0000000000000000
(PID.TID 0000.0001)     Wall clock time:   48.484164953231812
(PID.TID 0000.0001)          No. starts:         200
(PID.TID 0000.0001)           No. stops:         200
(PID.TID 0000.0001)   Seconds in section "SOLVE_FOR_PRESSURE  [FORWARD_STEP]":
(PID.TID 0000.0001)           User time:   14.009999999999877
(PID.TID 0000.0001)         System time:   0.0000000000000000
(PID.TID 0000.0001)     Wall clock time:   14.044991016387939
(PID.TID 0000.0001)          No. starts:         200
(PID.TID 0000.0001)           No. stops:         200
(PID.TID 0000.0001)   Seconds in section "MOM_CORRECTION_STEP [FORWARD_STEP]":
(PID.TID 0000.0001)           User time:   1.3200000000001069
(PID.TID 0000.0001)         System time:   0.0000000000000000
(PID.TID 0000.0001)     Wall clock time:   1.2928643226623535
(PID.TID 0000.0001)          No. starts:         200
(PID.TID 0000.0001)           No. stops:         200
(PID.TID 0000.0001)   Seconds in section "INTEGR_CONTINUITY   [FORWARD_STEP]":
(PID.TID 0000.0001)           User time:   2.7199999999997431
(PID.TID 0000.0001)         System time:   0.0000000000000000
(PID.TID 0000.0001)     Wall clock time:   2.7788476943969727
(PID.TID 0000.0001)          No. starts:         200
(PID.TID 0000.0001)           No. stops:         200
(PID.TID 0000.0001)   Seconds in section "CALC_R_STAR         [FORWARD_STEP]":
(PID.TID 0000.0001)           User time:  0.70000000000010232
(PID.TID 0000.0001)         System time:   0.0000000000000000
(PID.TID 0000.0001)     Wall clock time:  0.66184711456298828
(PID.TID 0000.0001)          No. starts:         200
(PID.TID 0000.0001)           No. stops:         200
(PID.TID 0000.0001)   Seconds in section "BLOCKING_EXCHANGES  [FORWARD_STEP]":
(PID.TID 0000.0001)           User time:   5.6000000000001364
(PID.TID 0000.0001)         System time:   0.0000000000000000
(PID.TID 0000.0001)     Wall clock time:   5.6837148666381836
(PID.TID 0000.0001)          No. starts:         400
(PID.TID 0000.0001)           No. stops:         400
(PID.TID 0000.0001)   Seconds in section "THERMODYNAMICS      [FORWARD_STEP]":
(PID.TID 0000.0001)           User time:   68.890000000000214
(PID.TID 0000.0001)         System time:   0.0000000000000000
(PID.TID 0000.0001)     Wall clock time:   68.952408552169800
(PID.TID 0000.0001)          No. starts:         200
(PID.TID 0000.0001)           No. stops:         200
(PID.TID 0000.0001)   Seconds in section "TRC_CORRECTION_STEP [FORWARD_STEP]":
(PID.TID 0000.0001)           User time:  0.60999999999984311
(PID.TID 0000.0001)         System time:   0.0000000000000000
(PID.TID 0000.0001)     Wall clock time:  0.66695857048034668
(PID.TID 0000.0001)          No. starts:         200
(PID.TID 0000.0001)           No. stops:         200
(PID.TID 0000.0001)   Seconds in section "MONITOR             [FORWARD_STEP]":
(PID.TID 0000.0001)           User time:   1.3799999999999955
(PID.TID 0000.0001)         System time:   0.0000000000000000
(PID.TID 0000.0001)     Wall clock time:   1.3552889823913574
(PID.TID 0000.0001)          No. starts:         200
(PID.TID 0000.0001)           No. stops:         200
(PID.TID 0000.0001)   Seconds in section "COST_TILE           [FORWARD_STEP]":
(PID.TID 0000.0001)           User time:   2.1599999999995703
(PID.TID 0000.0001)         System time:   0.0000000000000000
(PID.TID 0000.0001)     Wall clock time:   2.1599550247192383
(PID.TID 0000.0001)          No. starts:         200
(PID.TID 0000.0001)           No. stops:         200
(PID.TID 0000.0001)   Seconds in section "DO_THE_MODEL_IO     [FORWARD_STEP]":
(PID.TID 0000.0001)           User time:  0.59999999999996589
(PID.TID 0000.0001)         System time:  0.14000000000000012
(PID.TID 0000.0001)     Wall clock time:  0.77907180786132813
(PID.TID 0000.0001)          No. starts:         200
(PID.TID 0000.0001)           No. stops:         200
(PID.TID 0000.0001)   Seconds in section "DO_WRITE_PICKUP     [FORWARD_STEP]":
(PID.TID 0000.0001)           User time:  4.99999999999545253E-002
(PID.TID 0000.0001)         System time:  1.00000000000000089E-002
(PID.TID 0000.0001)     Wall clock time:  4.81624603271484375E-002
(PID.TID 0000.0001)          No. starts:         200
(PID.TID 0000.0001)           No. stops:         200
(PID.TID 0000.0001)   Seconds in section "GRDCHK_MAIN         [THE_MODEL_MAIN]":
(PID.TID 0000.0001)           User time:   149.18999999999997
(PID.TID 0000.0001)         System time:  0.10000000000000009
(PID.TID 0000.0001)     Wall clock time:   149.62202596664429
(PID.TID 0000.0001)          No. starts:           1
(PID.TID 0000.0001)           No. stops:           1
(PID.TID 0000.0001)   Seconds in section "INITIALISE_VARIA    [THE_MAIN_LOOP]":
(PID.TID 0000.0001)           User time:   1.8199999999999932
(PID.TID 0000.0001)         System time:  6.00000000000000533E-002
(PID.TID 0000.0001)     Wall clock time:   1.8768348693847656
(PID.TID 0000.0001)          No. starts:           8
(PID.TID 0000.0001)           No. stops:           8
(PID.TID 0000.0001)   Seconds in section "MAIN LOOP           [THE_MAIN_LOOP]":
(PID.TID 0000.0001)           User time:   147.18999999999994
(PID.TID 0000.0001)         System time:  3.00000000000000266E-002
(PID.TID 0000.0001)     Wall clock time:   147.53553104400635
(PID.TID 0000.0001)          No. starts:           8
(PID.TID 0000.0001)           No. stops:           8
(PID.TID 0000.0001)   Seconds in section "FORWARD_STEP        [THE_MAIN_LOOP]":
(PID.TID 0000.0001)           User time:   144.51999999999981
(PID.TID 0000.0001)         System time:  2.00000000000000178E-002
(PID.TID 0000.0001)     Wall clock time:   144.91451668739319
(PID.TID 0000.0001)          No. starts:         160
(PID.TID 0000.0001)           No. stops:         160
(PID.TID 0000.0001)   Seconds in section "COST_FINAL         [ADJOINT SPIN-DOWN]":
(PID.TID 0000.0001)           User time:  7.99999999999840838E-002
(PID.TID 0000.0001)         System time:  1.00000000000000089E-002
(PID.TID 0000.0001)     Wall clock time:  6.90593719482421875E-002
(PID.TID 0000.0001)          No. starts:           8
(PID.TID 0000.0001)           No. stops:           8
(PID.TID 0000.0001) // ======================================================
(PID.TID 0000.0001) // Tile <-> Tile communication statistics
(PID.TID 0000.0001) // ======================================================
(PID.TID 0000.0001) // o Tile number: 000001
(PID.TID 0000.0001) //         No. X exchanges =              0
(PID.TID 0000.0001) //            Max. X spins =              0
(PID.TID 0000.0001) //            Min. X spins =     1000000000
(PID.TID 0000.0001) //          Total. X spins =              0
(PID.TID 0000.0001) //            Avg. X spins =       0.00E+00
(PID.TID 0000.0001) //         No. Y exchanges =              0
(PID.TID 0000.0001) //            Max. Y spins =              0
(PID.TID 0000.0001) //            Min. Y spins =     1000000000
(PID.TID 0000.0001) //          Total. Y spins =              0
(PID.TID 0000.0001) //            Avg. Y spins =       0.00E+00
(PID.TID 0000.0001) // o Tile number: 000002
(PID.TID 0000.0001) //         No. X exchanges =              0
(PID.TID 0000.0001) //            Max. X spins =              0
(PID.TID 0000.0001) //            Min. X spins =     1000000000
(PID.TID 0000.0001) //          Total. X spins =              0
(PID.TID 0000.0001) //            Avg. X spins =       0.00E+00
(PID.TID 0000.0001) //         No. Y exchanges =              0
(PID.TID 0000.0001) //            Max. Y spins =              0
(PID.TID 0000.0001) //            Min. Y spins =     1000000000
(PID.TID 0000.0001) //          Total. Y spins =              0
(PID.TID 0000.0001) //            Avg. Y spins =       0.00E+00
(PID.TID 0000.0001) // o Tile number: 000003
(PID.TID 0000.0001) //         No. X exchanges =              0
(PID.TID 0000.0001) //            Max. X spins =              0
(PID.TID 0000.0001) //            Min. X spins =     1000000000
(PID.TID 0000.0001) //          Total. X spins =              0
(PID.TID 0000.0001) //            Avg. X spins =       0.00E+00
(PID.TID 0000.0001) //         No. Y exchanges =              0
(PID.TID 0000.0001) //            Max. Y spins =              0
(PID.TID 0000.0001) //            Min. Y spins =     1000000000
(PID.TID 0000.0001) //          Total. Y spins =              0
(PID.TID 0000.0001) //            Avg. Y spins =       0.00E+00
(PID.TID 0000.0001) // o Tile number: 000004
(PID.TID 0000.0001) //         No. X exchanges =              0
(PID.TID 0000.0001) //            Max. X spins =              0
(PID.TID 0000.0001) //            Min. X spins =     1000000000
(PID.TID 0000.0001) //          Total. X spins =              0
(PID.TID 0000.0001) //            Avg. X spins =       0.00E+00
(PID.TID 0000.0001) //         No. Y exchanges =              0
(PID.TID 0000.0001) //            Max. Y spins =              0
(PID.TID 0000.0001) //            Min. Y spins =     1000000000
(PID.TID 0000.0001) //          Total. Y spins =              0
(PID.TID 0000.0001) //            Avg. Y spins =       0.00E+00
(PID.TID 0000.0001) // o Tile number: 000005
(PID.TID 0000.0001) //         No. X exchanges =              0
(PID.TID 0000.0001) //            Max. X spins =              0
(PID.TID 0000.0001) //            Min. X spins =     1000000000
(PID.TID 0000.0001) //          Total. X spins =              0
(PID.TID 0000.0001) //            Avg. X spins =       0.00E+00
(PID.TID 0000.0001) //         No. Y exchanges =              0
(PID.TID 0000.0001) //            Max. Y spins =              0
(PID.TID 0000.0001) //            Min. Y spins =     1000000000
(PID.TID 0000.0001) //          Total. Y spins =              0
(PID.TID 0000.0001) //            Avg. Y spins =       0.00E+00
(PID.TID 0000.0001) // o Tile number: 000006
(PID.TID 0000.0001) //         No. X exchanges =              0
(PID.TID 0000.0001) //            Max. X spins =              0
(PID.TID 0000.0001) //            Min. X spins =     1000000000
(PID.TID 0000.0001) //          Total. X spins =              0
(PID.TID 0000.0001) //            Avg. X spins =       0.00E+00
(PID.TID 0000.0001) //         No. Y exchanges =              0
(PID.TID 0000.0001) //            Max. Y spins =              0
(PID.TID 0000.0001) //            Min. Y spins =     1000000000
(PID.TID 0000.0001) //          Total. Y spins =              0
(PID.TID 0000.0001) //            Avg. Y spins =       0.00E+00
(PID.TID 0000.0001) // o Tile number: 000007
(PID.TID 0000.0001) //         No. X exchanges =              0
(PID.TID 0000.0001) //            Max. X spins =              0
(PID.TID 0000.0001) //            Min. X spins =     1000000000
(PID.TID 0000.0001) //          Total. X spins =              0
(PID.TID 0000.0001) //            Avg. X spins =       0.00E+00
(PID.TID 0000.0001) //         No. Y exchanges =              0
(PID.TID 0000.0001) //            Max. Y spins =              0
(PID.TID 0000.0001) //            Min. Y spins =     1000000000
(PID.TID 0000.0001) //          Total. Y spins =              0
(PID.TID 0000.0001) //            Avg. Y spins =       0.00E+00
(PID.TID 0000.0001) // o Tile number: 000008
(PID.TID 0000.0001) //         No. X exchanges =              0
(PID.TID 0000.0001) //            Max. X spins =              0
(PID.TID 0000.0001) //            Min. X spins =     1000000000
(PID.TID 0000.0001) //          Total. X spins =              0
(PID.TID 0000.0001) //            Avg. X spins =       0.00E+00
(PID.TID 0000.0001) //         No. Y exchanges =              0
(PID.TID 0000.0001) //            Max. Y spins =              0
(PID.TID 0000.0001) //            Min. Y spins =     1000000000
(PID.TID 0000.0001) //          Total. Y spins =              0
(PID.TID 0000.0001) //            Avg. Y spins =       0.00E+00
(PID.TID 0000.0001) // o Tile number: 000009
(PID.TID 0000.0001) //         No. X exchanges =              0
(PID.TID 0000.0001) //            Max. X spins =              0
(PID.TID 0000.0001) //            Min. X spins =     1000000000
(PID.TID 0000.0001) //          Total. X spins =              0
(PID.TID 0000.0001) //            Avg. X spins =       0.00E+00
(PID.TID 0000.0001) //         No. Y exchanges =              0
(PID.TID 0000.0001) //            Max. Y spins =              0
(PID.TID 0000.0001) //            Min. Y spins =     1000000000
(PID.TID 0000.0001) //          Total. Y spins =              0
(PID.TID 0000.0001) //            Avg. Y spins =       0.00E+00
(PID.TID 0000.0001) // o Tile number: 000010
(PID.TID 0000.0001) //         No. X exchanges =              0
(PID.TID 0000.0001) //            Max. X spins =              0
(PID.TID 0000.0001) //            Min. X spins =     1000000000
(PID.TID 0000.0001) //          Total. X spins =              0
(PID.TID 0000.0001) //            Avg. X spins =       0.00E+00
(PID.TID 0000.0001) //         No. Y exchanges =              0
(PID.TID 0000.0001) //            Max. Y spins =              0
(PID.TID 0000.0001) //            Min. Y spins =     1000000000
(PID.TID 0000.0001) //          Total. Y spins =              0
(PID.TID 0000.0001) //            Avg. Y spins =       0.00E+00
(PID.TID 0000.0001) // o Tile number: 000011
(PID.TID 0000.0001) //         No. X exchanges =              0
(PID.TID 0000.0001) //            Max. X spins =              0
(PID.TID 0000.0001) //            Min. X spins =     1000000000
(PID.TID 0000.0001) //          Total. X spins =              0
(PID.TID 0000.0001) //            Avg. X spins =       0.00E+00
(PID.TID 0000.0001) //         No. Y exchanges =              0
(PID.TID 0000.0001) //            Max. Y spins =              0
(PID.TID 0000.0001) //            Min. Y spins =     1000000000
(PID.TID 0000.0001) //          Total. Y spins =              0
(PID.TID 0000.0001) //            Avg. Y spins =       0.00E+00
(PID.TID 0000.0001) // o Tile number: 000012
(PID.TID 0000.0001) //         No. X exchanges =              0
(PID.TID 0000.0001) //            Max. X spins =              0
(PID.TID 0000.0001) //            Min. X spins =     1000000000
(PID.TID 0000.0001) //          Total. X spins =              0
(PID.TID 0000.0001) //            Avg. X spins =       0.00E+00
(PID.TID 0000.0001) //         No. Y exchanges =              0
(PID.TID 0000.0001) //            Max. Y spins =              0
(PID.TID 0000.0001) //            Min. Y spins =     1000000000
(PID.TID 0000.0001) //          Total. Y spins =              0
(PID.TID 0000.0001) //            Avg. Y spins =       0.00E+00
(PID.TID 0000.0001) // o Thread number: 000001
(PID.TID 0000.0001) //            No. barriers =         183268
(PID.TID 0000.0001) //      Max. barrier spins =              1
(PID.TID 0000.0001) //      Min. barrier spins =              1
(PID.TID 0000.0001) //     Total barrier spins =         183268
(PID.TID 0000.0001) //      Avg. barrier spins =       1.00E+00
PROGRAM MAIN: Execution ended Normally
