(PID.TID 0000.0001) 
(PID.TID 0000.0001) // ======================================================
(PID.TID 0000.0001) //                      MITgcm UV
(PID.TID 0000.0001) //                      =========
(PID.TID 0000.0001) // ======================================================
(PID.TID 0000.0001) // execution environment starting up...
(PID.TID 0000.0001) 
(PID.TID 0000.0001) // MITgcmUV version:  checkpoint62j
(PID.TID 0000.0001) // Build user:        heimbach
(PID.TID 0000.0001) // Build host:        faulks.csail.mit.edu
(PID.TID 0000.0001) // Build date:        Wed Sep 15 07:44:18 EDT 2010
(PID.TID 0000.0001) 
(PID.TID 0000.0001) // =======================================================
(PID.TID 0000.0001) // Execution Environment parameter file "eedata"
(PID.TID 0000.0001) // =======================================================
(PID.TID 0000.0001) ># Example "eedata" file
(PID.TID 0000.0001) ># Lines beginning "#" are comments
(PID.TID 0000.0001) ># nTx - No. threads per process in X
(PID.TID 0000.0001) ># nTy - No. threads per process in Y
(PID.TID 0000.0001) > &EEPARMS
(PID.TID 0000.0001) > useCubedSphereExchange=.TRUE.,
(PID.TID 0000.0001) > nTx=1,
(PID.TID 0000.0001) > nTy=1,
(PID.TID 0000.0001) > &
(PID.TID 0000.0001) ># Note: Some systems use & as the
(PID.TID 0000.0001) ># namelist terminator. Other systems
(PID.TID 0000.0001) ># use a / character (as shown here).
(PID.TID 0000.0001) 
(PID.TID 0000.0001) // =======================================================
(PID.TID 0000.0001) // Computational Grid Specification ( see files "SIZE.h" )
(PID.TID 0000.0001) //                                  ( and "eedata"       )
(PID.TID 0000.0001) // =======================================================
(PID.TID 0000.0001)      nPx =    1 ; /* No. processes in X */
(PID.TID 0000.0001)      nPy =    1 ; /* No. processes in Y */
(PID.TID 0000.0001)      nSx =    6 ; /* No. tiles in X per process */
(PID.TID 0000.0001)      nSy =    1 ; /* No. tiles in Y per process */
(PID.TID 0000.0001)      sNx =   32 ; /* Tile size in X */
(PID.TID 0000.0001)      sNy =   32 ; /* Tile size in Y */
(PID.TID 0000.0001)      OLx =    4 ; /* Tile overlap distance in X */
(PID.TID 0000.0001)      OLy =    4 ; /* Tile overlap distance in Y */
(PID.TID 0000.0001)      nTx =    1 ; /* No. threads in X per process */
(PID.TID 0000.0001)      nTy =    1 ; /* No. threads in Y per process */
(PID.TID 0000.0001)       Nr =   15 ; /* No. levels in the vertical   */
(PID.TID 0000.0001)       Nx =  192 ; /* Total domain size in X ( = nPx*nSx*sNx ) */
(PID.TID 0000.0001)       Ny =   32 ; /* Total domain size in Y ( = nPy*nSy*sNy ) */
(PID.TID 0000.0001)   nTiles =    6 ; /* Total no. tiles per process ( = nSx*nSy ) */
(PID.TID 0000.0001)   nProcs =    1 ; /* Total no. processes ( = nPx*nPy ) */
(PID.TID 0000.0001) nThreads =    1 ; /* Total no. threads per process ( = nTx*nTy ) */
(PID.TID 0000.0001) usingMPI =    F ; /* Flag used to control whether MPI is in use */
(PID.TID 0000.0001)                   /*  note: To execute a program with MPI calls */
(PID.TID 0000.0001)                   /*  it must be launched appropriately e.g     */
(PID.TID 0000.0001)                   /*  "mpirun -np 64 ......"                    */
(PID.TID 0000.0001) useCoupler=    F ;/* Flag used to control communications with   */
(PID.TID 0000.0001)                   /*  other model components, through a coupler */
(PID.TID 0000.0001) printMapIncludesZeros=    F ; /* print zeros in Std.Output maps */
(PID.TID 0000.0001) maxLengthPrt1D=   65 /* maxLength of 1D array printed to StdOut */
(PID.TID 0000.0001) 
(PID.TID 0000.0001) // ======================================================
(PID.TID 0000.0001) // Mapping of tiles to threads
(PID.TID 0000.0001) // ======================================================
(PID.TID 0000.0001) // -o- Thread   1, tiles (   1:   6,   1:   1)
(PID.TID 0000.0001) 
(PID.TID 0000.0001) W2_READPARMS: file data.exch2 not found
(PID.TID 0000.0001) => use W2_EXCH2 default: regular 6-facets Cube
(PID.TID 0000.0001) W2_useE2ioLayOut=    T ;/* T: use Exch2 glob IO map; F: use model default */
(PID.TID 0000.0001) W2_mapIO        =  -1 ; /* select option for Exch2 global-IO map */
(PID.TID 0000.0001) W2_printMsg     =  -1 ; /* select option for printing information */
(PID.TID 0000.0001) ===== Start setting W2 TOPOLOGY:
(PID.TID 0000.0001)  write to log-file: w2_tile_topology.0000.log
(PID.TID 0000.0001) =====       setting W2 TOPOLOGY: Done
(PID.TID 0000.0001) 
(PID.TID 0000.0001) DEBUG_MSG: ENTERED S/R THE_MODEL_MAIN
(PID.TID 0000.0001) DEBUG_MSG: CALLING S/R INITIALISE_FIXED
(PID.TID 0000.0001) // =======================================================
(PID.TID 0000.0001) // Model parameter file "data"
(PID.TID 0000.0001) // =======================================================
(PID.TID 0000.0001) ># ====================
(PID.TID 0000.0001) ># | Model parameters |
(PID.TID 0000.0001) ># ====================
(PID.TID 0000.0001) >#
(PID.TID 0000.0001) ># Continuous equation parameters
(PID.TID 0000.0001) > &PARM01
(PID.TID 0000.0001) > tRef=15*20.,
(PID.TID 0000.0001) > sRef=15*35.,
(PID.TID 0000.0001) > viscAh =3.E5,
(PID.TID 0000.0001) >#- biharmonic Viscosity: 3.e15 is close to the stability limit with deltaTmom=20mn
(PID.TID 0000.0001) >#viscA4 =3.E15,
(PID.TID 0000.0001) > viscAr =1.E-3,
(PID.TID 0000.0001) > diffKhT=0.,
(PID.TID 0000.0001) > diffK4T=0.,
(PID.TID 0000.0001) > diffKrT=3.E-5,
(PID.TID 0000.0001) > diffKhS=0.,
(PID.TID 0000.0001) > diffK4S=0.,
(PID.TID 0000.0001) > diffKrS=3.E-5,
(PID.TID 0000.0001) > ivdc_kappa=10.,
(PID.TID 0000.0001) > implicitDiffusion=.TRUE.,
(PID.TID 0000.0001) > rotationPeriod=86400.,
(PID.TID 0000.0001) > gravity=9.81,
(PID.TID 0000.0001) > rhonil=1035.,
(PID.TID 0000.0001) > rhoConstFresh=1000.,
(PID.TID 0000.0001) > eosType='JMD95Z',
(PID.TID 0000.0001) > staggerTimeStep=.TRUE.,
(PID.TID 0000.0001) > vectorInvariantMomentum=.TRUE.,
(PID.TID 0000.0001) > implicitFreeSurface=.TRUE.,
(PID.TID 0000.0001) > tempAdvScheme=30,
(PID.TID 0000.0001) > saltAdvScheme=30,
(PID.TID 0000.0001) > exactConserv=.TRUE.,
(PID.TID 0000.0001) ># select_rStar=2,
(PID.TID 0000.0001) > nonlinFreeSurf=2,
(PID.TID 0000.0001) > hFacInf=0.2,
(PID.TID 0000.0001) > hFacSup=2.0,
(PID.TID 0000.0001) ># useRealFreshWaterFlux=.TRUE.,
(PID.TID 0000.0001) > allowFreezing=.TRUE.,
(PID.TID 0000.0001) > hFacMin=.1,
(PID.TID 0000.0001) > hFacMinDr=20.,
(PID.TID 0000.0001) > readBinaryPrec=64,
(PID.TID 0000.0001) > &
(PID.TID 0000.0001) >
(PID.TID 0000.0001) ># Elliptic solver parameters
(PID.TID 0000.0001) > &PARM02
(PID.TID 0000.0001) > cg2dMaxIters=200,
(PID.TID 0000.0001) >#cg2dTargetResidual=1.E-9,
(PID.TID 0000.0001) > cg2dTargetResWunit=1.E-14,
(PID.TID 0000.0001) > &
(PID.TID 0000.0001) >
(PID.TID 0000.0001) ># Time stepping parameters
(PID.TID 0000.0001) > &PARM03
(PID.TID 0000.0001) > nIter0=72000,
(PID.TID 0000.0001) ># nIter0=0,
(PID.TID 0000.0001) ># nTimeSteps=365,
(PID.TID 0000.0001) > nTimeSteps=20,
(PID.TID 0000.0001) > deltaTmom   =1200.,
(PID.TID 0000.0001) > deltaTtracer=86400.,
(PID.TID 0000.0001) > deltaTfreesurf=86400.,
(PID.TID 0000.0001) > deltaTClock =86400.,
(PID.TID 0000.0001) > abEps = 0.1,
(PID.TID 0000.0001) >#forcing_In_AB=.FALSE.,
(PID.TID 0000.0001) > tracForcingOutAB=1,
(PID.TID 0000.0001) > pChkptFreq  =1728000.,
(PID.TID 0000.0001) ># chkptFreq   =864000.,
(PID.TID 0000.0001) ># taveFreq    =1244160000.,
(PID.TID 0000.0001) ># dumpFreq    =6307200.,
(PID.TID 0000.0001) ># adjDumpFreq  =6307200.,
(PID.TID 0000.0001) > dumpFreq    =86400.,
(PID.TID 0000.0001) ># adjDumpFreq  =86400.,
(PID.TID 0000.0001) ># monitorFreq =31104000.,
(PID.TID 0000.0001) > periodicExternalForcing=.TRUE.,
(PID.TID 0000.0001) > externForcingPeriod=2592000.,
(PID.TID 0000.0001) > externForcingCycle=31104000.,
(PID.TID 0000.0001) ># 2 months restoring timescale for temperature
(PID.TID 0000.0001) > tauThetaClimRelax = 5184000.,
(PID.TID 0000.0001) ># 2yrs restoring timescale for salinity
(PID.TID 0000.0001) > tauSaltClimRelax = 62208000.,
(PID.TID 0000.0001) > monitorFreq =1.,
(PID.TID 0000.0001) > adjMonitorFreq =1.,
(PID.TID 0000.0001) > adjDumpFreq    =86400.,
(PID.TID 0000.0001) > pickupStrictlyMatch=.FALSE.,
(PID.TID 0000.0001) > &
(PID.TID 0000.0001) >
(PID.TID 0000.0001) ># Gridding parameters
(PID.TID 0000.0001) > &PARM04
(PID.TID 0000.0001) > usingCurvilinearGrid=.TRUE.,
(PID.TID 0000.0001) > horizGridFile='grid_cs32',
(PID.TID 0000.0001) > delR= 50., 70., 100., 140., 190.,
(PID.TID 0000.0001) >       240., 290., 340., 390., 440.,
(PID.TID 0000.0001) >       490., 540., 590., 640., 690.,
(PID.TID 0000.0001) > &
(PID.TID 0000.0001) >
(PID.TID 0000.0001) ># Input datasets
(PID.TID 0000.0001) > &PARM05
(PID.TID 0000.0001) > bathyFile      ='bathy_Hmin50.bin',
(PID.TID 0000.0001) > hydrogThetaFile='lev_T_cs_15k.bin',
(PID.TID 0000.0001) > hydrogSaltFile ='lev_S_cs_15k.bin',
(PID.TID 0000.0001) > zonalWindFile  ='trenberth_taux.bin',
(PID.TID 0000.0001) > meridWindFile  ='trenberth_tauy.bin',
(PID.TID 0000.0001) > thetaClimFile  ='lev_surfT_cs_12m.bin',
(PID.TID 0000.0001) > saltClimFile   ='lev_surfS_cs_12m.bin',
(PID.TID 0000.0001) > surfQFile      ='shiQnet_cs32.bin',
(PID.TID 0000.0001) > EmPmRFile      ='shiEmPR_cs32.bin',
(PID.TID 0000.0001) > &
(PID.TID 0000.0001) 
(PID.TID 0000.0001) S/R INI_PARMS ; starts to read PARM01
(PID.TID 0000.0001) S/R INI_PARMS ; read PARM01 : OK
(PID.TID 0000.0001) S/R INI_PARMS ; starts to read PARM02
(PID.TID 0000.0001) S/R INI_PARMS ; read PARM02 : OK
(PID.TID 0000.0001) S/R INI_PARMS ; starts to read PARM03
(PID.TID 0000.0001) S/R INI_PARMS ; read PARM03 : OK
(PID.TID 0000.0001) S/R INI_PARMS ; starts to read PARM04
(PID.TID 0000.0001) S/R INI_PARMS ; read PARM04 : OK
(PID.TID 0000.0001) S/R INI_PARMS ; starts to read PARM05
(PID.TID 0000.0001) S/R INI_PARMS ; read PARM05 : OK
(PID.TID 0000.0001)  PACKAGES_BOOT: opening data.pkg
(PID.TID 0000.0001)  OPEN_COPY_DATA_FILE: opening file data.pkg
(PID.TID 0000.0001) // =======================================================
(PID.TID 0000.0001) // Parameter file "data.pkg"
(PID.TID 0000.0001) // =======================================================
(PID.TID 0000.0001) ># Packages
(PID.TID 0000.0001) > &PACKAGES
(PID.TID 0000.0001) > useGMRedi=.TRUE.,
(PID.TID 0000.0001) >#useDiagnostics=.TRUE.,
(PID.TID 0000.0001) >#useMNC=.TRUE.,
(PID.TID 0000.0001) > useGrdchk=.TRUE.,
(PID.TID 0000.0001) > &
(PID.TID 0000.0001) 
(PID.TID 0000.0001)  PACKAGES_BOOT: finished reading data.pkg
(PID.TID 0000.0001)  GM_READPARMS: opening data.gmredi
(PID.TID 0000.0001)  OPEN_COPY_DATA_FILE: opening file data.gmredi
(PID.TID 0000.0001) // =======================================================
(PID.TID 0000.0001) // Parameter file "data.gmredi"
(PID.TID 0000.0001) // =======================================================
(PID.TID 0000.0001) ># GM+Redi package parameters:
(PID.TID 0000.0001) >#     GM_Small_Number  :: epsilon used in computing the slope
(PID.TID 0000.0001) >#     GM_slopeSqCutoff :: slope^2 cut-off value
(PID.TID 0000.0001) >
(PID.TID 0000.0001) >#-from MOM :
(PID.TID 0000.0001) ># GM_background_K: 	G & Mc.W  diffusion coefficient
(PID.TID 0000.0001) ># GM_maxSlope    :	max slope of isopycnals
(PID.TID 0000.0001) ># GM_Scrit       :	transition for scaling diffusion coefficient
(PID.TID 0000.0001) ># GM_Sd          :	half width scaling for diffusion coefficient
(PID.TID 0000.0001) ># GM_taper_scheme:	slope clipping or one of the tapering schemes
(PID.TID 0000.0001) ># GM_Kmin_horiz  :	horizontal diffusion minimum value
(PID.TID 0000.0001) >
(PID.TID 0000.0001) >#-Option parameters (needs to "define" options in GMREDI_OPTIONS.h")
(PID.TID 0000.0001) ># GM_isopycK     :	isopycnal diffusion coefficient (default=GM_background_K)
(PID.TID 0000.0001) ># GM_AdvForm     :	turn on GM Advective form       (default=Skew flux form)
(PID.TID 0000.0001) >
(PID.TID 0000.0001) > &GM_PARM01
(PID.TID 0000.0001) >  GM_Small_Number  = 1.D-20,
(PID.TID 0000.0001) >  GM_slopeSqCutoff = 1.D+08,
(PID.TID 0000.0001) >  GM_AdvForm         = .FALSE.,
(PID.TID 0000.0001) >  GM_background_K    = 1.D+3,
(PID.TID 0000.0001) >  GM_taper_scheme    = 'dm95',
(PID.TID 0000.0001) >  GM_maxSlope        = 1.D-2,
(PID.TID 0000.0001) >  GM_Kmin_horiz      = 50.,
(PID.TID 0000.0001) >  GM_Scrit           = 4.D-3,
(PID.TID 0000.0001) >  GM_Sd              = 1.D-3,
(PID.TID 0000.0001) >#  GM_Visbeck_alpha   = 1.5D-2,
(PID.TID 0000.0001) >  GM_Visbeck_alpha   = 0.,
(PID.TID 0000.0001) >  GM_Visbeck_length  = 2.D+5,
(PID.TID 0000.0001) >  GM_Visbeck_depth   = 1.D+3,
(PID.TID 0000.0001) >  GM_Visbeck_maxval_K= 2.5D+3,
(PID.TID 0000.0001) > &
(PID.TID 0000.0001) >
(PID.TID 0000.0001) >
(PID.TID 0000.0001) 
(PID.TID 0000.0001)  GM_READPARMS: finished reading data.gmredi
(PID.TID 0000.0001) OPTIM_READPARMS: opening data.optim
(PID.TID 0000.0001)  OPEN_COPY_DATA_FILE: opening file data.optim
(PID.TID 0000.0001) // =======================================================
(PID.TID 0000.0001) // Parameter file "data.optim"
(PID.TID 0000.0001) // =======================================================
(PID.TID 0000.0001) > &OPTIM
(PID.TID 0000.0001) > optimcycle=0,
(PID.TID 0000.0001) > /
(PID.TID 0000.0001) 
(PID.TID 0000.0001) OPTIM_READPARMS: finished reading data.optim
(PID.TID 0000.0001) CTRL_READPARMS: opening data.ctrl
(PID.TID 0000.0001)  OPEN_COPY_DATA_FILE: opening file data.ctrl
(PID.TID 0000.0001) // =======================================================
(PID.TID 0000.0001) // Parameter file "data.ctrl"
(PID.TID 0000.0001) // =======================================================
(PID.TID 0000.0001) >#
(PID.TID 0000.0001) >#
(PID.TID 0000.0001) ># *********************
(PID.TID 0000.0001) ># ECCO controlvariables
(PID.TID 0000.0001) ># *********************
(PID.TID 0000.0001) > &CTRL_NML
(PID.TID 0000.0001) > xx_theta_file      ='xx_theta',
(PID.TID 0000.0001) > xx_salt_file       ='xx_salt',
(PID.TID 0000.0001) >#
(PID.TID 0000.0001) > xx_hfluxstartdate1 = 19790101,
(PID.TID 0000.0001) > xx_hfluxstartdate2 = 000000,
(PID.TID 0000.0001) > xx_hfluxperiod     = 864000.0,
(PID.TID 0000.0001) > xx_hflux_file      = 'xx_hfl',
(PID.TID 0000.0001) >#
(PID.TID 0000.0001) > xx_sfluxstartdate1 = 19790101,
(PID.TID 0000.0001) > xx_sfluxstartdate2 = 000000,
(PID.TID 0000.0001) > xx_sfluxperiod     = 864000.0,
(PID.TID 0000.0001) > xx_sflux_file      = 'xx_sfl',
(PID.TID 0000.0001) >#
(PID.TID 0000.0001) > xx_tauustartdate1 = 19790101,
(PID.TID 0000.0001) > xx_tauustartdate2 = 000000,
(PID.TID 0000.0001) > xx_tauuperiod     = 864000.0,
(PID.TID 0000.0001) > xx_tauu_file      = 'xx_tauu',
(PID.TID 0000.0001) >#
(PID.TID 0000.0001) > xx_tauvstartdate1 = 19790101,
(PID.TID 0000.0001) > xx_tauvstartdate2 = 000000,
(PID.TID 0000.0001) > xx_tauvperiod     = 864000.0,
(PID.TID 0000.0001) > xx_tauv_file      = 'xx_tauv',
(PID.TID 0000.0001) >#
(PID.TID 0000.0001) > xx_atempstartdate1 = 19790101,
(PID.TID 0000.0001) > xx_atempstartdate2 = 000000,
(PID.TID 0000.0001) > xx_atempperiod     = 864000.0,
(PID.TID 0000.0001) > xx_atemp_file      = 'xx_atemp',
(PID.TID 0000.0001) >#
(PID.TID 0000.0001) > xx_aqhstartdate1 = 19790101,
(PID.TID 0000.0001) > xx_aqhstartdate2 = 000000,
(PID.TID 0000.0001) > xx_aqhperiod     = 864000.0,
(PID.TID 0000.0001) > xx_aqh_file      = 'xx_aqh',
(PID.TID 0000.0001) >#
(PID.TID 0000.0001) > xx_precipstartdate1 = 19790101,
(PID.TID 0000.0001) > xx_precipstartdate2 = 000000,
(PID.TID 0000.0001) > xx_precipperiod     = 864000.0,
(PID.TID 0000.0001) > xx_precip_file      = 'xx_precip',
(PID.TID 0000.0001) >#
(PID.TID 0000.0001) > xx_swdownstartdate1 = 19790101,
(PID.TID 0000.0001) > xx_swdownstartdate2 = 000000,
(PID.TID 0000.0001) > xx_swdownperiod     = 864000.0,
(PID.TID 0000.0001) > xx_swdown_file      = 'xx_swdown',
(PID.TID 0000.0001) >#
(PID.TID 0000.0001) > xx_uwindstartdate1 = 19790101,
(PID.TID 0000.0001) > xx_uwindstartdate2 = 000000,
(PID.TID 0000.0001) > xx_uwindperiod     = 864000.0,
(PID.TID 0000.0001) > xx_uwind_file      = 'xx_uwind',
(PID.TID 0000.0001) >#
(PID.TID 0000.0001) > xx_vwindstartdate1 = 19790101,
(PID.TID 0000.0001) > xx_vwindstartdate2 = 000000,
(PID.TID 0000.0001) > xx_vwindperiod     = 864000.0,
(PID.TID 0000.0001) > xx_vwind_file      = 'xx_vwind',
(PID.TID 0000.0001) >#
(PID.TID 0000.0001) > xx_sststartdate1 = 19790101,
(PID.TID 0000.0001) > xx_sststartdate2 = 000000,
(PID.TID 0000.0001) > xx_sstperiod     = 864000.0,
(PID.TID 0000.0001) > xx_sst_file      = 'xx_sst',
(PID.TID 0000.0001) >#
(PID.TID 0000.0001) > xx_sssstartdate1 = 19790101,
(PID.TID 0000.0001) > xx_sssstartdate2 = 000000,
(PID.TID 0000.0001) > xx_sssperiod     = 864000.0,
(PID.TID 0000.0001) > xx_sss_file      = 'xx_sss',
(PID.TID 0000.0001) > &
(PID.TID 0000.0001) >#
(PID.TID 0000.0001) ># *********************
(PID.TID 0000.0001) ># names for ctrl_pack/unpack
(PID.TID 0000.0001) ># *********************
(PID.TID 0000.0001) > &CTRL_PACKNAMES
(PID.TID 0000.0001) > &
(PID.TID 0000.0001) 
(PID.TID 0000.0001) CTRL_READPARMS: finished reading data.ctrl
(PID.TID 0000.0001) COST_READPARMS: opening data.cost
(PID.TID 0000.0001)  OPEN_COPY_DATA_FILE: opening file data.cost
(PID.TID 0000.0001) // =======================================================
(PID.TID 0000.0001) // Parameter file "data.cost"
(PID.TID 0000.0001) // =======================================================
(PID.TID 0000.0001) >#
(PID.TID 0000.0001) >#
(PID.TID 0000.0001) ># ******************
(PID.TID 0000.0001) ># cost function
(PID.TID 0000.0001) ># ******************
(PID.TID 0000.0001) > &COST_NML
(PID.TID 0000.0001) >#revert to default 1 month
(PID.TID 0000.0001) ># lastinterval=7776000.,
(PID.TID 0000.0001) > mult_test=1.,
(PID.TID 0000.0001) > &
(PID.TID 0000.0001) 
(PID.TID 0000.0001) COST_READPARMS: finished reading data.cost
(PID.TID 0000.0001) GRDCHK_READPARMS: opening data.grdchk
(PID.TID 0000.0001)  OPEN_COPY_DATA_FILE: opening file data.grdchk
(PID.TID 0000.0001) // =======================================================
(PID.TID 0000.0001) // Parameter file "data.grdchk"
(PID.TID 0000.0001) // =======================================================
(PID.TID 0000.0001) ># *******************
(PID.TID 0000.0001) ># ECCO gradient check
(PID.TID 0000.0001) ># *******************
(PID.TID 0000.0001) > &GRDCHK_NML
(PID.TID 0000.0001) > grdchk_eps       = 1.d-2,
(PID.TID 0000.0001) >#  iglopos         = 6,
(PID.TID 0000.0001) >#  jglopos         = 17,
(PID.TID 0000.0001) >#  kglopos         = 1,
(PID.TID 0000.0001) > nbeg             = 1,
(PID.TID 0000.0001) > nstep            = 1,
(PID.TID 0000.0001) > nend             = 4,
(PID.TID 0000.0001) > grdchkvarindex   = 1,
(PID.TID 0000.0001) > &
(PID.TID 0000.0001) 
(PID.TID 0000.0001) GRDCHK_READPARMS: finished reading data.grdchk
(PID.TID 0000.0001) 
(PID.TID 0000.0001) // =======================================================
(PID.TID 0000.0001) // Gradient check configuration  >>> START <<<
(PID.TID 0000.0001) // =======================================================
(PID.TID 0000.0001) 
(PID.TID 0000.0001)   eps:                              0.100E-01
(PID.TID 0000.0001)   First location:                           1
(PID.TID 0000.0001)   Last location:                            4
(PID.TID 0000.0001)   Increment:                                1
(PID.TID 0000.0001) 
(PID.TID 0000.0001) // =======================================================
(PID.TID 0000.0001) // Gradient check configuration  >>> END <<<
(PID.TID 0000.0001) // =======================================================
(PID.TID 0000.0001) 
(PID.TID 0000.0001) SET_PARMS: done
(PID.TID 0000.0001) Enter INI_VERTICAL_GRID: setInterFDr=    T ; setCenterDr=    F
(PID.TID 0000.0001) tile:   1 ; Read from file grid_cs32.face001.bin
(PID.TID 0000.0001)   => xC yC dxF dyF rA xG yG dxV dyU rAz dxC dyC rAw rAs dxG dyG AngleCS AngleSN
(PID.TID 0000.0001) tile:   2 ; Read from file grid_cs32.face002.bin
(PID.TID 0000.0001)   => xC yC dxF dyF rA xG yG dxV dyU rAz dxC dyC rAw rAs dxG dyG AngleCS AngleSN
(PID.TID 0000.0001) tile:   3 ; Read from file grid_cs32.face003.bin
(PID.TID 0000.0001)   => xC yC dxF dyF rA xG yG dxV dyU rAz dxC dyC rAw rAs dxG dyG AngleCS AngleSN
(PID.TID 0000.0001) tile:   4 ; Read from file grid_cs32.face004.bin
(PID.TID 0000.0001)   => xC yC dxF dyF rA xG yG dxV dyU rAz dxC dyC rAw rAs dxG dyG AngleCS AngleSN
(PID.TID 0000.0001) tile:   5 ; Read from file grid_cs32.face005.bin
(PID.TID 0000.0001)   => xC yC dxF dyF rA xG yG dxV dyU rAz dxC dyC rAw rAs dxG dyG AngleCS AngleSN
(PID.TID 0000.0001) tile:   6 ; Read from file grid_cs32.face006.bin
(PID.TID 0000.0001)   => xC yC dxF dyF rA xG yG dxV dyU rAz dxC dyC rAw rAs dxG dyG AngleCS AngleSN
(PID.TID 0000.0001) %MON XC_max                       =   1.7854351589505E+02
(PID.TID 0000.0001) %MON XC_min                       =  -1.7854351589505E+02
(PID.TID 0000.0001) %MON XC_mean                      =  -4.6999441375798E-15
(PID.TID 0000.0001) %MON XC_sd                        =   1.0355545336287E+02
(PID.TID 0000.0001) %MON XG_max                       =   1.8000000000000E+02
(PID.TID 0000.0001) %MON XG_min                       =  -1.7708797161002E+02
(PID.TID 0000.0001) %MON XG_mean                      =   1.8603515625000E+00
(PID.TID 0000.0001) %MON XG_sd                        =   1.0357130300504E+02
(PID.TID 0000.0001) %MON DXC_max                      =   3.2375185836900E+05
(PID.TID 0000.0001) %MON DXC_min                      =   1.1142031410131E+05
(PID.TID 0000.0001) %MON DXC_mean                     =   2.8605689051214E+05
(PID.TID 0000.0001) %MON DXC_sd                       =   3.4042087138252E+04
(PID.TID 0000.0001) %MON DXF_max                      =   3.2369947500827E+05
(PID.TID 0000.0001) %MON DXF_min                      =   1.2020820513318E+05
(PID.TID 0000.0001) %MON DXF_mean                     =   2.8605437324820E+05
(PID.TID 0000.0001) %MON DXF_sd                       =   3.4050524252539E+04
(PID.TID 0000.0001) %MON DXG_max                      =   3.2375195872773E+05
(PID.TID 0000.0001) %MON DXG_min                      =   1.0098378008791E+05
(PID.TID 0000.0001) %MON DXG_mean                     =   2.8603818508931E+05
(PID.TID 0000.0001) %MON DXG_sd                       =   3.4140406908005E+04
(PID.TID 0000.0001) %MON DXV_max                      =   3.2380418162750E+05
(PID.TID 0000.0001) %MON DXV_min                      =   8.0152299824136E+04
(PID.TID 0000.0001) %MON DXV_mean                     =   2.8603970633619E+05
(PID.TID 0000.0001) %MON DXV_sd                       =   3.4145142117723E+04
(PID.TID 0000.0001) %MON YC_max                       =   8.7940663871962E+01
(PID.TID 0000.0001) %MON YC_min                       =  -8.7940663871962E+01
(PID.TID 0000.0001) %MON YC_mean                      =   0.0000000000000E+00
(PID.TID 0000.0001) %MON YC_sd                        =   3.8676242969072E+01
(PID.TID 0000.0001) %MON YG_max                       =   9.0000000000000E+01
(PID.TID 0000.0001) %MON YG_min                       =  -9.0000000000000E+01
(PID.TID 0000.0001) %MON YG_mean                      =  -1.1842378929335E-15
(PID.TID 0000.0001) %MON YG_sd                        =   3.8676895860710E+01
(PID.TID 0000.0001) %MON DYC_max                      =   3.2375185836900E+05
(PID.TID 0000.0001) %MON DYC_min                      =   1.1142031410131E+05
(PID.TID 0000.0001) %MON DYC_mean                     =   2.8605689051214E+05
(PID.TID 0000.0001) %MON DYC_sd                       =   3.4042087138252E+04
(PID.TID 0000.0001) %MON DYF_max                      =   3.2369947500827E+05
(PID.TID 0000.0001) %MON DYF_min                      =   1.2020820513318E+05
(PID.TID 0000.0001) %MON DYF_mean                     =   2.8605437324820E+05
(PID.TID 0000.0001) %MON DYF_sd                       =   3.4050524252539E+04
(PID.TID 0000.0001) %MON DYG_max                      =   3.2375195872773E+05
(PID.TID 0000.0001) %MON DYG_min                      =   1.0098378008791E+05
(PID.TID 0000.0001) %MON DYG_mean                     =   2.8603818508931E+05
(PID.TID 0000.0001) %MON DYG_sd                       =   3.4140406908005E+04
(PID.TID 0000.0001) %MON DYU_max                      =   3.2380418162750E+05
(PID.TID 0000.0001) %MON DYU_min                      =   8.0152299824136E+04
(PID.TID 0000.0001) %MON DYU_mean                     =   2.8603970633619E+05
(PID.TID 0000.0001) %MON DYU_sd                       =   3.4145142117723E+04
(PID.TID 0000.0001) %MON RA_max                       =   1.0479260248419E+11
(PID.TID 0000.0001) %MON RA_min                       =   1.4019007022556E+10
(PID.TID 0000.0001) %MON RA_mean                      =   8.2992246709265E+10
(PID.TID 0000.0001) %MON RA_sd                        =   1.7509089299457E+10
(PID.TID 0000.0001) %MON RAW_max                      =   1.0480965274559E+11
(PID.TID 0000.0001) %MON RAW_min                      =   1.2166903467143E+10
(PID.TID 0000.0001) %MON RAW_mean                     =   8.2992246709235E+10
(PID.TID 0000.0001) %MON RAW_sd                       =   1.7481917919656E+10
(PID.TID 0000.0001) %MON RAS_max                      =   1.0480965274559E+11
(PID.TID 0000.0001) %MON RAS_min                      =   1.2166903467143E+10
(PID.TID 0000.0001) %MON RAS_mean                     =   8.2992246709235E+10
(PID.TID 0000.0001) %MON RAS_sd                       =   1.7481917919656E+10
(PID.TID 0000.0001) %MON RAZ_max                      =   1.0484349334619E+11
(PID.TID 0000.0001) %MON RAZ_min                      =   8.8317900612505E+09
(PID.TID 0000.0001) %MON RAZ_mean                     =   8.2992246709235E+10
(PID.TID 0000.0001) %MON RAZ_sd                       =   1.7482297311044E+10
(PID.TID 0000.0001) %MON AngleCS_max                  =   9.9999994756719E-01
(PID.TID 0000.0001) %MON AngleCS_min                  =  -9.9968286884824E-01
(PID.TID 0000.0001) %MON AngleCS_mean                 =   3.3078850405987E-01
(PID.TID 0000.0001) %MON AngleCS_sd                   =   6.2496317138039E-01
(PID.TID 0000.0001) %MON AngleSN_max                  =   9.9968286884824E-01
(PID.TID 0000.0001) %MON AngleSN_min                  =  -9.9999994756719E-01
(PID.TID 0000.0001) %MON AngleSN_mean                 =  -3.3078850405987E-01
(PID.TID 0000.0001) %MON AngleSN_sd                   =   6.2496317138039E-01
(PID.TID 0000.0001)  MDS_READ_FIELD: opening global file: bathy_Hmin50.bin
(PID.TID 0000.0001) // =======================================================
(PID.TID 0000.0001) // Field Model R_low (ini_masks_etc) at iteration          1
(PID.TID 0000.0001) // CMIN =         -5.200000000000000E+03
(PID.TID 0000.0001) // CMAX =         -5.000000000000000E+01
(PID.TID 0000.0001) // CINT =          1.907407407407407E+02
(PID.TID 0000.0001) // SYMBOLS (CMIN->CMAX): -abcdefghijklmnopqrstuvwxyz+
(PID.TID 0000.0001) //                  0.0: .
(PID.TID 0000.0001) // RANGE I (Lo:Hi:Step):(    -3:   196:     1)
(PID.TID 0000.0001) // RANGE J (Lo:Hi:Step):(    36:    -3:    -1)
(PID.TID 0000.0001) // RANGE K (Lo:Hi:Step):(   1:   1:   1)
(PID.TID 0000.0001) // =======================================================
(PID.TID 0000.0001) K =   1
(PID.TID 0000.0001) //                I=6       I=16      I=26      I=36      I=38      I=48      I=58      I=68      I=70      I=80      I=90      I=100     I=102     I=112     I=122     I=132     I=134     I=144     I=154     I=164     I=166     I=176     I=186     I=196
(PID.TID 0000.0001) // |--J--|321012345|789012345|789012345|789012345|901234567|901234567|901234567|901234567|123456789|123456789|123456789|123456789|345678901|345678901|345678901|345678901|567890123|567890123|567890123|567890123|789012345|789012345|789012345|789012345|
(PID.TID 0000.0001) //     36 cbbc-ddcbcdehkhhmn..++..................................................okn.skko--a-fc----bba-cp.............tfeecccbbdeecccbbdeddedcdcccdddcddffggghiggfffdeeffijlihjlica---a--cgffel.+edfgeedflcbahgfllcbahgfllfhdffhkfffca-aady...llnabdoa--a
(PID.TID 0000.0001) //     35 dcac--cbbeefjkfefw+..........zpu........................................kqnzrqqk--b-da----bbbbfu..............fdddccaadcddccaadcdddcbbbbcdddcccdffffghgffffddefflligfiljfba---aafddehy...pwvlhfffcbagfccfcbagfcceeffffjlkjgaa---bfvheeln-aesaaab
(PID.TID 0000.0001) //     34 d--ba-abcehjnldcclz+........spps.......................................vkqn+xnnncabbcbba--aabfu+..............hcbaaaaaccbaaaaaccdccbaaabbddddccdffffghfeeeeedeffjiffefilhfcaaaacgceei.......zomggfcaecbbgfcaecbbccddefilihecbaacbaajfega-aesfeed
(PID.TID 0000.0001) //     33 --abbbccceiomkfdbbc+.......+s..........................................xsrxzz+z.fdcddb-----adu+...............hcbaa--accbaa--accddba--bbbddddccdfffhhgfeeddcceddhfeddfgikhfffdfgccffw........zohhgebbaaahgebbaaaaaccdfhlhfefdcccaabjefbaaafoosso
(PID.TID 0000.0001) //     32 --bddefhhkqqlgfaakqz..v.+..+.........................................++..u+....zigfdba----adu+................kdcaaa-acccaaa-accdcb---bbbcdddddefffggfeeedcccccbccbbdcdfgghhiihcbeiw.........+ynjgebaaaajgebaaaa-aacccfikkhecccbbbaaabaadfklnqpp
(PID.TID 0000.0001) //     31 abbcffijnpnqneaaat..umrr+s.z.........................................+++++.ztsvdlifeb--dfdfu+................+lkdca--abcdca--abcccb---bbbbddddeffflhfeeeecbbbbaaba-abbacbcdceffbbfw+..........++ujfbaaa-ujfbaaa----aacffiljgfffcca--adfikkiihhhf
(PID.TID 0000.0001) //     30 --adgillkkkifcadcx.ymmqzqikvnnps.....................................+++++wmegt-jlifcacdlqx+++...............mligea---abgea---abbbb---abaaddddeedkmeddefdbbbaaaabc---b--aaaaabaabm..............+viba---+viba-------acdefinmlgiieb-chnnnmlmlgffc
(PID.TID 0000.0001) //     29 --cfiljigfjd--efdozy...+ximpnnuz......................................+++yqddhp-iljhcbbchz+......++.........+mmhffc----affc----aaba------acdddcbcineddgdbaaa----cdd--a------aa-bfz...............+qe---a.+qe---aa---aedeegknmlgiigcdfhpokkimlfdb
(PID.TID 0000.0001) //     28 -abgkhfcccea-bdei........t............................................++zwgfcfk-gknhccbbhwwy.....+++........+njfeed-----eed-----aa-------abddcabcnfddegcaaa-----hlf------------dk+................+ja---..+ja------bffdddehfd--bedaacfhpnligiihd
(PID.TID 0000.0001) //     27 -acghfbaaaa-achmy......................+.......+++....................++vnbbbclefkpkeeecflmqxy....++........+lhfeecc----eecc------------aaadcbabcfhddccba-------zqd-----------irw.................++e---..++e-----mhmijddda--------ahhfiokhedegg
(PID.TID 0000.0001) //     26 -adhfca-----bfiv.......................+.......++sy...................+tq-fdbblcjknqiheddefhiksz++++........zkhfdccb----dccb------------aabdcaaaacfddbca-------a+xfa-abb-----vvv...................+wa--...+wa---mlmkijhc----------cjjffiheb-aad
(PID.TID 0000.0001) //     25 -achfa------ch+..................w.......w.......njo+................+x-----bcgidiqqojfefiiiijmy.++.........zkhfdbaa----dbaa-------daa---acccaaaacccca--------ac.+udaabbb----tei...................++qde...++qdeqnghiljcaaaaidaa----beedeeca--bb
(PID.TID 0000.0001) //     24 aaeifa--acbcei...................w.......w.......likn+.....++.....++znpa----bbdi-fnlmnjhinlksssw............qhfeca------ca--------addc--aeffaaaaaaccb-a----a--bd.++udbbaba---ven....................++xy....++xywnfgllcbbabegkecba----ddddcaacdc
(PID.TID 0000.0001) //     23 abfida-aabchjk...................zz......zz.....nhhijz....tqq.....+ujgzgd---abci-cegklkkknols..xuu..........zgfdba------ba--------bcd---affaaadffabbb-----aa-bcc.+.+ufb-----l.gx...........s.........++z.....++zzkfilfccccoz..ulkcd---bccnfddddd
(PID.TID 0000.0001) //     22 -afhfaa---bfgi....................zz..rn..zz..rnjffggm...nlmn+....+sffzya--aabcieaaffdfhimrmp...yuu.++.......zudba------ba--------adc---dda-adffe-aa--------aaac....+ufc-baaqvhh..........dcfeeh......++......++zggqvifefhz......zobbaccfwuffeee
(PID.TID 0000.0001) //     21 babcgca----abe.....................ysstl...ysstlgeeeeoz..ijklt+....lfjzzf---adfcfdaadcehllotq....yy+++zzs.....+zcba-----cba-------cdd--aaa----df------------aaac.....+upjdcy.vohq.......+idcdfeeefwz....efwz....+hhn.vklox.........gdccfjwrigffh
(PID.TID 0000.0001) //     20 fbbbcgfcaa-aae+.......................lc......lcgfdddhq.+hiilnz++.+oquxyz--adgkfdcaabcfmtooyxz......+yuiiy....++gb------gb--------ddcca-a-----acbaa------bbaaaab........ywxy.lulo.lv...kcdgddffefffilyx+fffilyx+fffk.+xyyy.........mgeimvskjklll
(PID.TID 0000.0001) //     19 zmfeccdghfeegcbt......................aa......aafifccgnrzgghjry.+++sr+lq.--edfkkoxtkblwnnsp.vv......skhggt...+++t-------t---------bdaf---------edd-------adlaaaa+..........vnhzy.tllqiedccdhggfggffiiggfgffiiggfcbdgy..yz..........xigqophijkkii
(PID.TID 0000.0001) //     18 ..wifedfkhfegbbcivlqfoz..............jaa.....jaacfihggokeeffgt..++++..hhlfdeddkez..qcz+.zwxtsttz..ysrkhot++++++zig------ig--------b--f---------egqqqaa----frb---+........+kkrhw.vqmlnieddcdehgggffgigedbffgigedbaaceiy.............zilrddefikkhh
(PID.TID 0000.0001) //     17 ..+wfeefikhgcbbccaaacgn.............icaa....icaaccfihfoedddeedy..++...nnqwgfeekeyy.z++..+zsjjllllljllpjos+++.+zhhi-----ehi-----e-----ea--------foqqoqqo--hlwgea-.........+nk+..xiioonhfefddegihhghigfdbaghigfdbaaabdgx..............nheddefiklhg
(PID.TID 0000.0001) //     16 ....wiheddeccdfhfbabdfl............jdbad...jdbaddddgifkccccdccd+.++..++ynvz.tkkq.mu....++zyslllllkhggkmpy++...ihhi-----ehi-----ea---feb-----a-acnoohfghknvmwnuca..........qhu..hhhkojgffgeefghihhiieedbahiieedbaaabcdy..............ygddeghiljgf
(PID.TID 0000.0001) //     15 ......ylea--acfihebcbbes..........sfcbbn..sfcbbngfffigcaaabdbcac+.+++++zgmpx...y.mm....++..zslwz.yhhhhnz+++...rhgc----abgc----ab----ige----acaaalllkddfiy..yswxb..........thk.xgghiligfghfefhhhhiiheedcdiiheedcdbbabdmz.............zfdeghikkifd
(PID.TID 0000.0001) //     14 ........c---acgkhdcc--di..........ofddch..ofddchohffikaaaaabaaa-aw+.+ysnggox++...qrv..........yzzzzrjil+++....qhgd-----agd-----a-----i---cccdeabkklldinqssy..xxv...........+y.uhghikihgfghefgihhhgeeeeedhgeeeeeddbaadhw.............nedeghjjhfed
(PID.TID 0000.0001) //     13 .......+b----cfkhec---afz.........nhfdff..nhfdffholghkaaaaaba-a---flkkuswyy++++y+zr...........zzzzz++ry++......yd-------d--------------aeecdeidfkkqnqlmqquukqqmf..............iihiijjhfefgefhjihiffgggffiffgggffecaabelx...........zjecehijhfecc
(PID.TID 0000.0001) //     12 .......ec----chjhec---ag..........skiqdd..skiqddeiiiifaaabae--a---dd--iu+++.+++sxq++..........+z+++++.+++....++.s-------s------------a-ceccdejhlllkqlkklssiccdee.............wjkkkjjjigeefffgjiiighiiihhighiiihhhdaabdffghtxx......mfccehjiffdb-
(PID.TID 0000.0001) //     11 ......pdca--achlheba--ai..........nkn.fd..nkn.fdemijidaaaabi-------a--q+....++.ziis...........+++++..........+yyza----b-za----b-----a--ccccddkhieekkossssfbbbbcd............njjijhhihijhgggggjjjjijkkkkjjijkkkkjjhcaacddeegpy.....xfdccdhjgfdda-
(PID.TID 0000.0001) //     10 ......wfdb--achlhea---an.........uos..dc.uos..dcemikkfdcaabi-------equ+.........mk...........................zyvuq----ccuq----cc----a---dcfhkopqjeissrnpfbbcccde..........zslihhigghgijjihhhhkllkkkkkkjkkkkkkkjkkkedccdeeeeipz..zwhccbcdhgfddcam
(PID.TID 0000.0001) //      9 ......vgec---bfikca--cjl+.......+nnv.+cc+nnv.+ccffhkkiddaadha-----as++..........pvz++........................zxuuk------uk------a---a----djmqrrnlllsoiddcccccdjf.........+zjijhfgfggffhjkkkiillljihhghgijihhghgihighdeeffgghimnnjgecbbcdgfeccbas
(PID.TID 0000.0001) //      8 .....zleca---afjfca--hdfz.......vkky.jcevkky.jceddefijffdddhb--a-afv............nn..ss.........................+yku-----yku--------------ejnpqqnninnritqdccchkmf+.......wihgghgeffffeefhijkjkljiigeeffefigeeffefffhjhhikkklljklmhffeeeggfdcbaay.
(PID.TID 0000.0001) //      7 ...+zohec--abcfkhecbchbdx.......qiht.faaqiht.faaaabdgijgfededcdcb-f+............nn...pz.........................+zu-----+zu--------------edefqgqddsz+......+yuddmm+....tiggfggfeeeefeeefiiiijkiihhedddddhheddddddddjjllliijhfkmmkkjjhijgdcba--q.
(PID.TID 0000.0001) //      6 ..+yomfddcaabefkifdchaadt......uqdeisc--qdeisc----dfefgifffkklldc--v............up...pp.........................v.x-----v.x---------a----fbbpqgzenx+........zdbcmllkhhfffffffgfeeeeeeeefhhhhijihhffddcbbhffddcbbbbdhhiihedddb-cfhhhjjjieca----+.
(PID.TID 0000.0001) //      5 ..+nhgffkghccfhkhffgdaackz....uoibcimlaaibcimlaaacfbddfjjhijeehf-a-c............zs...su.........................qk.yi---qk.yi-------gha-fjddqs+xkrz.........q-bchikdccdeeeeeeedddedddddgghhhhjhhgffcbbaagffcbbaaaaddfegecca----dfeefhfgdb-----+.
(PID.TID 0000.0001) //      4 .+ujhgfllfhdffhkfffca-aady...llnabdopfcbabdopfcbdgdbcdehlihgfddc--ms............................................okn.zd--okn.zd---eciiiicfkeeqy.ysz..........n-aafgdcbbdeddedcdcccdddcddffggghiggfffdbaa-fffdbaa---acdcccba--abvfedeffdcca----b+.
(PID.TID 0000.0001) //      3 +vjggfcceeffffjlkjgaa---bfvheeln-aesphfd-aesphfdhgabddeflihhgfecbaaayq+++++.....................................kqnz.vtpkqnz.vtpkllgdccfkkkkk..++..........+g---fecaaadcdddcbbbbcdddcccdffffghgffffdcaa-fffdcaa----abcaaaa-acxxmecdjmdbba----r+.
(PID.TID 0000.0001) //      2 qifeecbbccddefilihecbaacbaajfega-aesqhff-aesqhffiea-cdeflkkljifeddcba---bry+...................................vkqn+.sghkqn+.sghfcbcbbbdgfdek.++++.........+l---caaaaaccdccbaaabbddddccdffffghfeeeeecba-eeeecba------baaaa-euwxqdbcdkud-----sy+.
(PID.TID 0000.0001) //      1 ebbbbaaaaaccdfhlhfefdcccaabjefbaaafonhglaafonhglid--adfgkkkklkhffddca-----s++++................................xsrxz.tedsrxz.tedcbbbbaaadddet.++++.........+l------a-accddba--bbbddddccdfffhhgfeeddccba-eddccba-------aaaabgns.qcbcchyzqngll++..
(PID.TID 0000.0001) //      0 -aaaaaaa-aacccfikkhecccbbbaaabaadfkllilmdfkllilmgebaadfijjiiikjhffdcba-----lllgn.............................++..u+..zmd.u+..zmdfbd---a-aeef.xx+..........+++s-------accdcb---bbbcdddddefffggfeeedcccbbaedcccbba----aa--alrwwy.kcbccc+...++++...
(PID.TID 0000.0001) //     -1 --aaaaa----aacffiljgfffcca--adfikkiikimikkiikimiiheccfurkiffhijjigfecb-----l----.............................+++++.z+.wq++.z+.wqgbf-------dgzpoy+........+ys+yrb--aa-abcccb---bbbbddddeffflhfeeeecbbcbbaecbbcbbaa----a--bdflm.yuibbcc.......+...
(PID.TID 0000.0001) //     -2 --aaa-------acdefinmlgiieb-chnnnmlmlfklkmlmlfklklkhednwwsheeghhijjgfdca----g---a.............................+++++wmu++y++wmu++ywn--------fwvmgy+........+r-.+++-abc--abbbb---abaaddddeedkmeddefdbbbdcbadbbbdcbaa-------ba-hv.susfbcc.......+...
(PID.TID 0000.0001) //     -3 a--a---aa---aedeegknmlgiigcdfhpokkimdkmkkkimdkmknoiedcfjvpddegghhhhgfdcbaa-n---a..............................+++yqd.++++yqd.+++zvq--dafz.lqnggw+........+b-....abcc---aaba------acdddcbcineddgdbaaaeedbbaaaeedbaa----------nysqssfcd...........
(PID.TID 0000.0001) // =======================================================
(PID.TID 0000.0001) // END OF FIELD                                          =
(PID.TID 0000.0001) // =======================================================
(PID.TID 0000.0001) 
(PID.TID 0000.0001) // =======================================================
(PID.TID 0000.0001) // Field Model Ro_surf (ini_masks_etc) at iteration          1
(PID.TID 0000.0001) // CMIN =         -7.105427357601002E-15
(PID.TID 0000.0001) // CMAX =         -7.105427357601002E-15
(PID.TID 0000.0001) // CINT =          0.000000000000000E+00
(PID.TID 0000.0001) // SYMBOLS (CMIN->CMAX): -abcdefghijklmnopqrstuvwxyz+
(PID.TID 0000.0001) //                  0.0: .
(PID.TID 0000.0001) // RANGE I (Lo:Hi:Step):(    -3:   196:     1)
(PID.TID 0000.0001) // RANGE J (Lo:Hi:Step):(    36:    -3:    -1)
(PID.TID 0000.0001) // RANGE K (Lo:Hi:Step):(   1:   1:   1)
(PID.TID 0000.0001) // =======================================================
(PID.TID 0000.0001) // =======================================================
(PID.TID 0000.0001) // END OF FIELD                                          =
(PID.TID 0000.0001) // =======================================================
(PID.TID 0000.0001) 
(PID.TID 0000.0001) // =======================================================
(PID.TID 0000.0001) // Field hFacC at iteration          1
(PID.TID 0000.0001) // CMIN =          1.000000000000000E+00
(PID.TID 0000.0001) // CMAX =          1.000000000000000E+00
(PID.TID 0000.0001) // CINT =          0.000000000000000E+00
(PID.TID 0000.0001) // SYMBOLS (CMIN->CMAX): -abcdefghijklmnopqrstuvwxyz+
(PID.TID 0000.0001) //                  0.0: .
(PID.TID 0000.0001) // RANGE I (Lo:Hi:Step):(    -3:   196:     1)
(PID.TID 0000.0001) // RANGE J (Lo:Hi:Step):(    36:    -3:    -1)
(PID.TID 0000.0001) // RANGE K (Lo:Hi:Step):(   1:   1:   1)
(PID.TID 0000.0001) // =======================================================
(PID.TID 0000.0001) // =======================================================
(PID.TID 0000.0001) // END OF FIELD                                          =
(PID.TID 0000.0001) // =======================================================
(PID.TID 0000.0001) 
(PID.TID 0000.0001) // =======================================================
(PID.TID 0000.0001) // Field hFacW at iteration          1
(PID.TID 0000.0001) // CMIN =          1.000000000000000E+00
(PID.TID 0000.0001) // CMAX =          1.000000000000000E+00
(PID.TID 0000.0001) // CINT =          0.000000000000000E+00
(PID.TID 0000.0001) // SYMBOLS (CMIN->CMAX): -abcdefghijklmnopqrstuvwxyz+
(PID.TID 0000.0001) //                  0.0: .
(PID.TID 0000.0001) // RANGE I (Lo:Hi:Step):(    -3:   196:     1)
(PID.TID 0000.0001) // RANGE J (Lo:Hi:Step):(    36:    -3:    -1)
(PID.TID 0000.0001) // RANGE K (Lo:Hi:Step):(   1:   1:   1)
(PID.TID 0000.0001) // =======================================================
(PID.TID 0000.0001) // =======================================================
(PID.TID 0000.0001) // END OF FIELD                                          =
(PID.TID 0000.0001) // =======================================================
(PID.TID 0000.0001) 
(PID.TID 0000.0001) // =======================================================
(PID.TID 0000.0001) // Field hFacS at iteration          1
(PID.TID 0000.0001) // CMIN =          1.000000000000000E+00
(PID.TID 0000.0001) // CMAX =          1.000000000000000E+00
(PID.TID 0000.0001) // CINT =          0.000000000000000E+00
(PID.TID 0000.0001) // SYMBOLS (CMIN->CMAX): -abcdefghijklmnopqrstuvwxyz+
(PID.TID 0000.0001) //                  0.0: .
(PID.TID 0000.0001) // RANGE I (Lo:Hi:Step):(    -3:   196:     1)
(PID.TID 0000.0001) // RANGE J (Lo:Hi:Step):(    36:    -3:    -1)
(PID.TID 0000.0001) // RANGE K (Lo:Hi:Step):(   1:   1:   1)
(PID.TID 0000.0001) // =======================================================
(PID.TID 0000.0001) // =======================================================
(PID.TID 0000.0001) // END OF FIELD                                          =
(PID.TID 0000.0001) // =======================================================
(PID.TID 0000.0001) 
(PID.TID 0000.0001) 
(PID.TID 0000.0001) // ===================================
(PID.TID 0000.0001) // GAD parameters :
(PID.TID 0000.0001) // ===================================
(PID.TID 0000.0001) tempAdvScheme =   /* Temp. Horiz.Advection scheme selector */
(PID.TID 0000.0001)                      30
(PID.TID 0000.0001)     ;
(PID.TID 0000.0001) tempVertAdvScheme =   /* Temp. Vert. Advection scheme selector */
(PID.TID 0000.0001)                      30
(PID.TID 0000.0001)     ;
(PID.TID 0000.0001) tempMultiDimAdvec =   /* use Muti-Dim Advec method for Temp */
(PID.TID 0000.0001)                   T
(PID.TID 0000.0001)     ;
(PID.TID 0000.0001) tempSOM_Advection = /* use 2nd Order Moment Advection for Temp */
(PID.TID 0000.0001)                   F
(PID.TID 0000.0001)     ;
(PID.TID 0000.0001) AdamsBashforthGt = /* apply Adams-Bashforth extrapolation on Gt */
(PID.TID 0000.0001)                   F
(PID.TID 0000.0001)     ;
(PID.TID 0000.0001) AdamsBashforth_T = /* apply Adams-Bashforth extrapolation on Temp */
(PID.TID 0000.0001)                   F
(PID.TID 0000.0001)     ;
(PID.TID 0000.0001) saltAdvScheme =   /* Salt. Horiz.advection scheme selector */
(PID.TID 0000.0001)                      30
(PID.TID 0000.0001)     ;
(PID.TID 0000.0001) saltVertAdvScheme =   /* Salt. Vert. Advection scheme selector */
(PID.TID 0000.0001)                      30
(PID.TID 0000.0001)     ;
(PID.TID 0000.0001) saltMultiDimAdvec =   /* use Muti-Dim Advec method for Salt */
(PID.TID 0000.0001)                   T
(PID.TID 0000.0001)     ;
(PID.TID 0000.0001) saltSOM_Advection = /* use 2nd Order Moment Advection for Salt */
(PID.TID 0000.0001)                   F
(PID.TID 0000.0001)     ;
(PID.TID 0000.0001) AdamsBashforthGs = /* apply Adams-Bashforth extrapolation on Gs */
(PID.TID 0000.0001)                   F
(PID.TID 0000.0001)     ;
(PID.TID 0000.0001) AdamsBashforth_S = /* apply Adams-Bashforth extrapolation on Salt */
(PID.TID 0000.0001)                   F
(PID.TID 0000.0001)     ;
(PID.TID 0000.0001) // ===================================
(PID.TID 0000.0001) ctrl-wet 1:    nvarlength =       239366
(PID.TID 0000.0001) ctrl-wet 2: surface wet C =          639
(PID.TID 0000.0001) ctrl-wet 3: surface wet W =          604
(PID.TID 0000.0001) ctrl-wet 4: surface wet S =          611
(PID.TID 0000.0001) ctrl-wet 4a:surface wet V =            0
(PID.TID 0000.0001) ctrl-wet 5: 3D wet points =         8319
(PID.TID 0000.0001) ctrl-wet 6: no recs for i =     1           1
(PID.TID 0000.0001) ctrl-wet 6: no recs for i =     2           1
(PID.TID 0000.0001) ctrl-wet 6: no recs for i =     3           1
(PID.TID 0000.0001) ctrl-wet 6: no recs for i =     4           1
(PID.TID 0000.0001) ctrl-wet 6: no recs for i =     5           1
(PID.TID 0000.0001) ctrl-wet 6: no recs for i =     6           1
(PID.TID 0000.0001) ctrl-wet 6: no recs for i =     7           0
(PID.TID 0000.0001) ctrl-wet 6: no recs for i =     8           0
(PID.TID 0000.0001) ctrl-wet 6: no recs for i =     9           0
(PID.TID 0000.0001) ctrl-wet 6: no recs for i =    10           0
(PID.TID 0000.0001) ctrl-wet 6: no recs for i =    11           0
(PID.TID 0000.0001) ctrl-wet 6: no recs for i =    12           0
(PID.TID 0000.0001) ctrl-wet 6: no recs for i =    13           0
(PID.TID 0000.0001) ctrl-wet 6: no recs for i =    14           0
(PID.TID 0000.0001) ctrl-wet 6: no recs for i =    15           1
(PID.TID 0000.0001) ctrl-wet 6: no recs for i =    16           0
(PID.TID 0000.0001) ctrl-wet 6: no recs for i =    17           1
(PID.TID 0000.0001) ctrl-wet 6: no recs for i =    18           0
(PID.TID 0000.0001) ctrl-wet 6: no recs for i =    19           0
(PID.TID 0000.0001) ctrl-wet 6: no recs for i =    20           0
(PID.TID 0000.0001) ctrl-wet 6: no recs for i =    21           0
(PID.TID 0000.0001) ctrl-wet 6: no recs for i =    22           0
(PID.TID 0000.0001) ctrl-wet 6: no recs for i =    23           0
(PID.TID 0000.0001) ctrl-wet 6: no recs for i =    24           0
(PID.TID 0000.0001) ctrl-wet 6: no recs for i =    25           0
(PID.TID 0000.0001) ctrl-wet 6: no recs for i =    26           0
(PID.TID 0000.0001) ctrl-wet 6: no recs for i =    27           0
(PID.TID 0000.0001) ctrl-wet 6: no recs for i =    28           0
(PID.TID 0000.0001) ctrl-wet 6: no recs for i =    29           0
(PID.TID 0000.0001) ctrl-wet 6: no recs for i =    30           0
(PID.TID 0000.0001) ctrl-wet 6: no recs for i =    31           0
(PID.TID 0000.0001) ctrl-wet 6: no recs for i =    32           0
(PID.TID 0000.0001) ctrl-wet 6: no recs for i =    33           0
(PID.TID 0000.0001) ctrl-wet 6: no recs for i =    34           0
(PID.TID 0000.0001) ctrl-wet 6: no recs for i =    35           0
(PID.TID 0000.0001) ctrl-wet 6: no recs for i =    36           0
(PID.TID 0000.0001) ctrl-wet 6: no recs for i =    37           0
(PID.TID 0000.0001) ctrl-wet 6: no recs for i =    38           0
(PID.TID 0000.0001) ctrl-wet 6: no recs for i =    39           0
(PID.TID 0000.0001) ctrl-wet 6: no recs for i =    40           0
(PID.TID 0000.0001) ctrl-wet 6: no recs for i =    41           0
(PID.TID 0000.0001) ctrl-wet 6: no recs for i =    42           0
(PID.TID 0000.0001) ctrl-wet 6: no recs for i =    43           0
(PID.TID 0000.0001) ctrl-wet 6: no recs for i =    44           0
(PID.TID 0000.0001) ctrl-wet 6: no recs for i =    45           0
(PID.TID 0000.0001) ctrl-wet 6: no recs for i =    46           0
(PID.TID 0000.0001) ctrl-wet 6: no recs for i =    47           0
(PID.TID 0000.0001) ctrl-wet 6: no recs for i =    48           0
(PID.TID 0000.0001) ctrl-wet 6: no recs for i =    49           0
(PID.TID 0000.0001) ctrl-wet 6: no recs for i =    50           0
(PID.TID 0000.0001) ctrl-wet 6: no recs for i =    51           0
(PID.TID 0000.0001) ctrl-wet 6: no recs for i =    52           0
(PID.TID 0000.0001) ctrl-wet 6: no recs for i =    53           0
(PID.TID 0000.0001) ctrl-wet 6: no recs for i =    54           0
(PID.TID 0000.0001) ctrl-wet 6: no recs for i =    55           0
(PID.TID 0000.0001) ctrl-wet 6: no recs for i =    56           0
(PID.TID 0000.0001) ctrl-wet 6: no recs for i =    57           0
(PID.TID 0000.0001) ctrl-wet 6: no recs for i =    58           0
(PID.TID 0000.0001) ctrl-wet 6: no recs for i =    59           0
(PID.TID 0000.0001) ctrl-wet 6: no recs for i =    60           0
(PID.TID 0000.0001) ctrl-wet 7: flux         19131
(PID.TID 0000.0001) ctrl-wet 8: atmos        16638
(PID.TID 0000.0001) ctrl-wet -------------------------------------------------
(PID.TID 0000.0001) ctrl-wet 13: global nvarlength for Nr =   15      239366
(PID.TID 0000.0001) ctrl-wet -------------------------------------------------
(PID.TID 0000.0001) ctrl-wet 14: global nWet C/S/W/V k=    1        4420        4232        4206           0
(PID.TID 0000.0001) ctrl-wet 14: global nWet C/S/W/V k=    2        4299        4112        4096           0
(PID.TID 0000.0001) ctrl-wet 14: global nWet C/S/W/V k=    3        4222        4038        4023           0
(PID.TID 0000.0001) ctrl-wet 14: global nWet C/S/W/V k=    4        4140        3960        3939           0
(PID.TID 0000.0001) ctrl-wet 14: global nWet C/S/W/V k=    5        4099        3919        3893           0
(PID.TID 0000.0001) ctrl-wet 14: global nWet C/S/W/V k=    6        4038        3856        3839           0
(PID.TID 0000.0001) ctrl-wet 14: global nWet C/S/W/V k=    7        3995        3814        3795           0
(PID.TID 0000.0001) ctrl-wet 14: global nWet C/S/W/V k=    8        3944        3756        3737           0
(PID.TID 0000.0001) ctrl-wet 14: global nWet C/S/W/V k=    9        3887        3699        3673           0
(PID.TID 0000.0001) ctrl-wet 14: global nWet C/S/W/V k=   10        3799        3605        3585           0
(PID.TID 0000.0001) ctrl-wet 14: global nWet C/S/W/V k=   11        3703        3502        3461           0
(PID.TID 0000.0001) ctrl-wet 14: global nWet C/S/W/V k=   12        3554        3338        3303           0
(PID.TID 0000.0001) ctrl-wet 14: global nWet C/S/W/V k=   13        3202        2910        2911           0
(PID.TID 0000.0001) ctrl-wet 14: global nWet C/S/W/V k=   14        2599        2296        2276           0
(PID.TID 0000.0001) ctrl-wet 14: global nWet C/S/W/V k=   15        1621        1368        1334           0
(PID.TID 0000.0001) ctrl-wet -------------------------------------------------
(PID.TID 0000.0001) ctrl-wet -------------------------------------------------
(PID.TID 0000.0001) ctrl-wet -------------------------------------------------
(PID.TID 0000.0001) ctrl_init: no. of control variables:            8
(PID.TID 0000.0001) ctrl_init: control vector length:          239366
(PID.TID 0000.0001) %MON fCori_max                    =   1.4535016908525E-04
(PID.TID 0000.0001) %MON fCori_min                    =  -1.4535016908525E-04
(PID.TID 0000.0001) %MON fCori_mean                   =   0.0000000000000E+00
(PID.TID 0000.0001) %MON fCori_sd                     =   8.3972192788621E-05
(PID.TID 0000.0001) %MON fCoriG_max                   =   1.4544410433286E-04
(PID.TID 0000.0001) %MON fCoriG_min                   =  -1.4544410433286E-04
(PID.TID 0000.0001) %MON fCoriG_mean                  =   0.0000000000000E+00
(PID.TID 0000.0001) %MON fCoriG_sd                    =   8.3972192788621E-05
(PID.TID 0000.0001) %MON fCoriCos_max                 =   1.4540341538469E-04
(PID.TID 0000.0001) %MON fCoriCos_min                 =   5.2264550201501E-06
(PID.TID 0000.0001) %MON fCoriCos_mean                =   1.1482595466044E-04
(PID.TID 0000.0001) %MON fCoriCos_sd                  =   3.0292878037194E-05
(PID.TID 0000.0001) INI_CG2D: CG2D normalisation factor =  1.9156564154949553E-04
(PID.TID 0000.0001) INI_CG2D: cg2dTolerance = 5.809016360175293E-07 (Area=3.6388673751E+14)
(PID.TID 0000.0001) 
(PID.TID 0000.0001) // =======================================================
(PID.TID 0000.0001) // Model configuration
(PID.TID 0000.0001) // =======================================================
(PID.TID 0000.0001) //
(PID.TID 0000.0001) // "Physical" paramters ( PARM01 in namelist )
(PID.TID 0000.0001) //
(PID.TID 0000.0001) buoyancyRelation = /* Type of relation to get Buoyancy */
(PID.TID 0000.0001)               'OCEANIC'
(PID.TID 0000.0001)     ;
(PID.TID 0000.0001) fluidIsAir   =  /* fluid major constituent is Air */
(PID.TID 0000.0001)                   F
(PID.TID 0000.0001)     ;
(PID.TID 0000.0001) fluidIsWater =  /* fluid major constituent is Water */
(PID.TID 0000.0001)                   T
(PID.TID 0000.0001)     ;
(PID.TID 0000.0001) usingPCoords =  /* use p (or p*) vertical coordinate */
(PID.TID 0000.0001)                   F
(PID.TID 0000.0001)     ;
(PID.TID 0000.0001) usingZCoords =  /* use z (or z*) vertical coordinate */
(PID.TID 0000.0001)                   T
(PID.TID 0000.0001)     ;
(PID.TID 0000.0001) tRef =   /* Reference temperature profile ( oC or K ) */
(PID.TID 0000.0001)    15 @  2.000000000000000E+01              /* K =  1: 15 */
(PID.TID 0000.0001)     ;
(PID.TID 0000.0001) sRef =   /* Reference salinity profile ( psu ) */
(PID.TID 0000.0001)    15 @  3.500000000000000E+01              /* K =  1: 15 */
(PID.TID 0000.0001)     ;
(PID.TID 0000.0001) viscAh  =   /* Lateral eddy viscosity ( m^2/s ) */
(PID.TID 0000.0001)                 3.000000000000000E+05
(PID.TID 0000.0001)     ;
(PID.TID 0000.0001) viscAhMax = /* Maximum lateral eddy viscosity ( m^2/s ) */
(PID.TID 0000.0001)                 1.000000000000000E+21
(PID.TID 0000.0001)     ;
(PID.TID 0000.0001) viscAhGrid = /* Grid dependent lateral eddy viscosity ( non-dim. ) */
(PID.TID 0000.0001)                 0.000000000000000E+00
(PID.TID 0000.0001)     ;
(PID.TID 0000.0001) useFullLeith = /* Use Full Form of Leith Viscosity on/off flag*/
(PID.TID 0000.0001)                   F
(PID.TID 0000.0001)     ;
(PID.TID 0000.0001) useStrainTensionVisc= /* Use StrainTension Form of Viscous Operator flag*/
(PID.TID 0000.0001)                   F
(PID.TID 0000.0001)     ;
(PID.TID 0000.0001) useAreaViscLength = /* Use area for visc length instead of geom. mean*/
(PID.TID 0000.0001)                   F
(PID.TID 0000.0001)     ;
(PID.TID 0000.0001) viscC2leith = /* Leith harmonic visc. factor (on grad(vort),non-dim.) */
(PID.TID 0000.0001)                 0.000000000000000E+00
(PID.TID 0000.0001)     ;
(PID.TID 0000.0001) viscC2leithD = /* Leith harmonic viscosity factor (on grad(div),non-dim.)*/
(PID.TID 0000.0001)                 0.000000000000000E+00
(PID.TID 0000.0001)     ;
(PID.TID 0000.0001) viscC2smag = /* Smagorinsky harmonic viscosity factor (non-dim.) */
(PID.TID 0000.0001)                 0.000000000000000E+00
(PID.TID 0000.0001)     ;
(PID.TID 0000.0001) viscA4  =   /* Lateral biharmonic viscosity ( m^4/s ) */
(PID.TID 0000.0001)                 0.000000000000000E+00
(PID.TID 0000.0001)     ;
(PID.TID 0000.0001) viscA4Max = /* Maximum biharmonic viscosity ( m^2/s ) */
(PID.TID 0000.0001)                 1.000000000000000E+21
(PID.TID 0000.0001)     ;
(PID.TID 0000.0001) viscA4Grid = /* Grid dependent biharmonic viscosity ( non-dim. ) */
(PID.TID 0000.0001)                 0.000000000000000E+00
(PID.TID 0000.0001)     ;
(PID.TID 0000.0001) viscC4leith = /* Leith biharm viscosity factor (on grad(vort), non-dim.)*/
(PID.TID 0000.0001)                 0.000000000000000E+00
(PID.TID 0000.0001)     ;
(PID.TID 0000.0001) viscC4leithD = /* Leith biharm viscosity factor (on grad(div), non-dim.) */
(PID.TID 0000.0001)                 0.000000000000000E+00
(PID.TID 0000.0001)     ;
(PID.TID 0000.0001) viscC4Smag = /* Smagorinsky biharm viscosity factor (non-dim) */
(PID.TID 0000.0001)                 0.000000000000000E+00
(PID.TID 0000.0001)     ;
(PID.TID 0000.0001) no_slip_sides =  /* Viscous BCs: No-slip sides */
(PID.TID 0000.0001)                   T
(PID.TID 0000.0001)     ;
(PID.TID 0000.0001) sideDragFactor = /* side-drag scaling factor (non-dim) */
(PID.TID 0000.0001)                 2.000000000000000E+00
(PID.TID 0000.0001)     ;
(PID.TID 0000.0001) viscArNr = /* vertical profile of vertical viscosity ( m^2/s )*/
(PID.TID 0000.0001)    15 @  1.000000000000000E-03              /* K =  1: 15 */
(PID.TID 0000.0001)     ;
(PID.TID 0000.0001) no_slip_bottom =  /* Viscous BCs: No-slip bottom */
(PID.TID 0000.0001)                   T
(PID.TID 0000.0001)     ;
(PID.TID 0000.0001) bottomDragLinear = /* linear bottom-drag coefficient ( m/s ) */
(PID.TID 0000.0001)                 0.000000000000000E+00
(PID.TID 0000.0001)     ;
(PID.TID 0000.0001) bottomDragQuadratic = /* quadratic bottom-drag coefficient (-) */
(PID.TID 0000.0001)                 0.000000000000000E+00
(PID.TID 0000.0001)     ;
(PID.TID 0000.0001) diffKhT =   /* Laplacian diffusion of heat laterally ( m^2/s ) */
(PID.TID 0000.0001)                 0.000000000000000E+00
(PID.TID 0000.0001)     ;
(PID.TID 0000.0001) diffK4T =   /* Biharmonic diffusion of heat laterally ( m^4/s ) */
(PID.TID 0000.0001)                 0.000000000000000E+00
(PID.TID 0000.0001)     ;
(PID.TID 0000.0001) diffKhS =   /* Laplacian diffusion of salt laterally ( m^2/s ) */
(PID.TID 0000.0001)                 0.000000000000000E+00
(PID.TID 0000.0001)     ;
(PID.TID 0000.0001) diffK4S =   /* Biharmonic diffusion of salt laterally ( m^4/s ) */
(PID.TID 0000.0001)                 0.000000000000000E+00
(PID.TID 0000.0001)     ;
(PID.TID 0000.0001) diffKrNrT = /* vertical profile of vertical diffusion of Temp ( m^2/s )*/
(PID.TID 0000.0001)    15 @  3.000000000000000E-05              /* K =  1: 15 */
(PID.TID 0000.0001)     ;
(PID.TID 0000.0001) diffKrNrS = /* vertical profile of vertical diffusion of Salt ( m^2/s )*/
(PID.TID 0000.0001)    15 @  3.000000000000000E-05              /* K =  1: 15 */
(PID.TID 0000.0001)     ;
(PID.TID 0000.0001) diffKrBL79surf = /* Surface diffusion for Bryan and Lewis 79 ( m^2/s ) */
(PID.TID 0000.0001)                 0.000000000000000E+00
(PID.TID 0000.0001)     ;
(PID.TID 0000.0001) diffKrBL79deep = /* Deep diffusion for Bryan and Lewis 1979 ( m^2/s ) */
(PID.TID 0000.0001)                 0.000000000000000E+00
(PID.TID 0000.0001)     ;
(PID.TID 0000.0001) diffKrBL79scl = /* Depth scale for Bryan and Lewis 1979 ( m ) */
(PID.TID 0000.0001)                 2.000000000000000E+02
(PID.TID 0000.0001)     ;
(PID.TID 0000.0001) diffKrBL79Ho = /* Turning depth for Bryan and Lewis 1979 ( m ) */
(PID.TID 0000.0001)                -2.000000000000000E+03
(PID.TID 0000.0001)     ;
(PID.TID 0000.0001) ivdc_kappa = /* Implicit Vertical Diffusivity for Convection ( m^2/s) */
(PID.TID 0000.0001)                 1.000000000000000E+01
(PID.TID 0000.0001)     ;
(PID.TID 0000.0001) hMixCriteria=  /* Criteria for mixed-layer diagnostic */
(PID.TID 0000.0001)                -8.000000000000000E-01
(PID.TID 0000.0001)     ;
(PID.TID 0000.0001) dRhoSmall =  /* Parameter for mixed-layer diagnostic */
(PID.TID 0000.0001)                 1.000000000000000E-06
(PID.TID 0000.0001)     ;
(PID.TID 0000.0001) hMixSmooth=  /* Smoothing parameter for mixed-layer diagnostic */
(PID.TID 0000.0001)                 0.000000000000000E+00
(PID.TID 0000.0001)     ;
(PID.TID 0000.0001) eosType =  /* Type of Equation of State */
(PID.TID 0000.0001)               'JMD95Z'
(PID.TID 0000.0001)     ;
(PID.TID 0000.0001) tAlpha =   /* Linear EOS thermal expansion coefficient ( 1/oC ) */
(PID.TID 0000.0001)                 1.234567000000000E+05
(PID.TID 0000.0001)     ;
(PID.TID 0000.0001) sBeta =   /* Linear EOS haline contraction coefficient ( 1/psu ) */
(PID.TID 0000.0001)                 1.234567000000000E+05
(PID.TID 0000.0001)     ;
(PID.TID 0000.0001) rhonil =   /* Reference density ( kg/m^3 ) */
(PID.TID 0000.0001)                 1.035000000000000E+03
(PID.TID 0000.0001)     ;
(PID.TID 0000.0001) rhoConst =   /* Reference density ( kg/m^3 ) */
(PID.TID 0000.0001)                 1.035000000000000E+03
(PID.TID 0000.0001)     ;
(PID.TID 0000.0001) rhoFacC = /* normalized Reference density @ cell-Center (-) */
(PID.TID 0000.0001)    15 @  1.000000000000000E+00              /* K =  1: 15 */
(PID.TID 0000.0001)     ;
(PID.TID 0000.0001) rhoFacF = /* normalized Reference density @ W-Interface (-) */
(PID.TID 0000.0001)    16 @  1.000000000000000E+00              /* K =  1: 16 */
(PID.TID 0000.0001)     ;
(PID.TID 0000.0001) rhoConstFresh =   /* Reference density ( kg/m^3 ) */
(PID.TID 0000.0001)                 1.000000000000000E+03
(PID.TID 0000.0001)     ;
(PID.TID 0000.0001) gravity =   /* Gravitational acceleration ( m/s^2 ) */
(PID.TID 0000.0001)                 9.810000000000000E+00
(PID.TID 0000.0001)     ;
(PID.TID 0000.0001) gBaro =   /* Barotropic gravity ( m/s^2 ) */
(PID.TID 0000.0001)                 9.810000000000000E+00
(PID.TID 0000.0001)     ;
(PID.TID 0000.0001) rotationPeriod =   /* Rotation Period ( s ) */
(PID.TID 0000.0001)                 8.640000000000000E+04
(PID.TID 0000.0001)     ;
(PID.TID 0000.0001) omega =   /* Angular velocity ( rad/s ) */
(PID.TID 0000.0001)                 7.272205216643040E-05
(PID.TID 0000.0001)     ;
(PID.TID 0000.0001) f0 =   /* Reference coriolis parameter ( 1/s ) */
(PID.TID 0000.0001)                 1.000000000000000E-04
(PID.TID 0000.0001)     ;
(PID.TID 0000.0001) beta =   /* Beta ( 1/(m.s) ) */
(PID.TID 0000.0001)                 9.999999999999999E-12
(PID.TID 0000.0001)     ;
(PID.TID 0000.0001) rigidLid =   /* Rigid lid on/off flag */
(PID.TID 0000.0001)                   F
(PID.TID 0000.0001)     ;
(PID.TID 0000.0001) implicitFreeSurface =   /* Implicit free surface on/off flag */
(PID.TID 0000.0001)                   T
(PID.TID 0000.0001)     ;
(PID.TID 0000.0001) freeSurfFac =   /* Implicit free surface factor */
(PID.TID 0000.0001)                 1.000000000000000E+00
(PID.TID 0000.0001)     ;
(PID.TID 0000.0001) implicSurfPress =  /* Surface Pressure implicit factor (0-1)*/
(PID.TID 0000.0001)                 1.000000000000000E+00
(PID.TID 0000.0001)     ;
(PID.TID 0000.0001) implicDiv2Dflow =  /* Barot. Flow Div. implicit factor (0-1)*/
(PID.TID 0000.0001)                 1.000000000000000E+00
(PID.TID 0000.0001)     ;
(PID.TID 0000.0001) exactConserv =  /* Exact Volume Conservation on/off flag*/
(PID.TID 0000.0001)                   T
(PID.TID 0000.0001)     ;
(PID.TID 0000.0001) linFSConserveTr = /* Tracer correction for Lin Free Surface on/off flag*/
(PID.TID 0000.0001)                   F
(PID.TID 0000.0001)     ;
(PID.TID 0000.0001) uniformLin_PhiSurf = /* use uniform Bo_surf on/off flag*/
(PID.TID 0000.0001)                   T
(PID.TID 0000.0001)     ;
(PID.TID 0000.0001) hFacMin =   /* minimum partial cell factor (hFac) */
(PID.TID 0000.0001)                 1.000000000000000E-01
(PID.TID 0000.0001)     ;
(PID.TID 0000.0001) hFacMinDr = /* minimum partial cell thickness ( m) */
(PID.TID 0000.0001)                 1.000000000000000E-01
(PID.TID 0000.0001)     ;
(PID.TID 0000.0001) nonlinFreeSurf =  /* Non-linear Free Surf. options (-1,0,1,2,3)*/
(PID.TID 0000.0001)                       2
(PID.TID 0000.0001)     ;
(PID.TID 0000.0001)      -1,0= Off ; 1,2,3= On, 2=+rescale gU,gV, 3=+update cg2d solv.
(PID.TID 0000.0001) hFacInf =   /* lower threshold for hFac (nonlinFreeSurf only)*/
(PID.TID 0000.0001)                 2.000000000000000E-01
(PID.TID 0000.0001)     ;
(PID.TID 0000.0001) hFacSup =   /* upper threshold for hFac (nonlinFreeSurf only)*/
(PID.TID 0000.0001)                 2.000000000000000E+00
(PID.TID 0000.0001)     ;
(PID.TID 0000.0001) select_rStar = /* r* Vertical coord. options (=0 r coord.; >0 uses r*)*/
(PID.TID 0000.0001)                       0
(PID.TID 0000.0001)     ;
(PID.TID 0000.0001) selectAddFluid = /* option for mass source/sink of fluid (=0: off) */
(PID.TID 0000.0001)                       0
(PID.TID 0000.0001)     ;
(PID.TID 0000.0001) useRealFreshWaterFlux = /* Real Fresh Water Flux on/off flag*/
(PID.TID 0000.0001)                   F
(PID.TID 0000.0001)     ;
(PID.TID 0000.0001) temp_EvPrRn = /* Temp. of Evap/Prec/R (UNSET=use local T)(oC)*/
(PID.TID 0000.0001)                 1.234567000000000E+05
(PID.TID 0000.0001)     ;
(PID.TID 0000.0001) salt_EvPrRn = /* Salin. of Evap/Prec/R (UNSET=use local S)(psu)*/
(PID.TID 0000.0001)                 0.000000000000000E+00
(PID.TID 0000.0001)     ;
(PID.TID 0000.0001) temp_addMass = /* Temp. of addMass array (UNSET=use local T)(oC)*/
(PID.TID 0000.0001)                 1.234567000000000E+05
(PID.TID 0000.0001)     ;
(PID.TID 0000.0001) salt_addMass = /* Salin. of addMass array (UNSET=use local S)(psu)*/
(PID.TID 0000.0001)                 0.000000000000000E+00
(PID.TID 0000.0001)     ;
(PID.TID 0000.0001) convertFW2Salt = /* convert F.W. Flux to Salt Flux (-1=use local S)(psu)*/
(PID.TID 0000.0001)                 3.500000000000000E+01
(PID.TID 0000.0001)     ;
(PID.TID 0000.0001) use3Dsolver = /* use 3-D pressure solver on/off flag */
(PID.TID 0000.0001)                   F
(PID.TID 0000.0001)     ;
(PID.TID 0000.0001) nonHydrostatic =  /* Non-Hydrostatic on/off flag */
(PID.TID 0000.0001)                   F
(PID.TID 0000.0001)     ;
(PID.TID 0000.0001) nh_Am2 = /* Non-Hydrostatic terms scaling factor */
(PID.TID 0000.0001)                 1.000000000000000E+00
(PID.TID 0000.0001)     ;
(PID.TID 0000.0001) implicitNHPress = /* Non-Hyd Pressure implicit factor (0-1)*/
(PID.TID 0000.0001)                 1.000000000000000E+00
(PID.TID 0000.0001)     ;
(PID.TID 0000.0001) selectNHfreeSurf = /* Non-Hyd (free-)Surface option */
(PID.TID 0000.0001)                       0
(PID.TID 0000.0001)     ;
(PID.TID 0000.0001) quasiHydrostatic = /* Quasi-Hydrostatic on/off flag */
(PID.TID 0000.0001)                   F
(PID.TID 0000.0001)     ;
(PID.TID 0000.0001) momStepping =  /* Momentum equation on/off flag */
(PID.TID 0000.0001)                   T
(PID.TID 0000.0001)     ;
(PID.TID 0000.0001) vectorInvariantMomentum= /* Vector-Invariant Momentum on/off */
(PID.TID 0000.0001)                   T
(PID.TID 0000.0001)     ;
(PID.TID 0000.0001) momAdvection =  /* Momentum advection on/off flag */
(PID.TID 0000.0001)                   T
(PID.TID 0000.0001)     ;
(PID.TID 0000.0001) momViscosity =  /* Momentum viscosity on/off flag */
(PID.TID 0000.0001)                   T
(PID.TID 0000.0001)     ;
(PID.TID 0000.0001) momImplVertAdv= /* Momentum implicit vert. advection on/off*/
(PID.TID 0000.0001)                   F
(PID.TID 0000.0001)     ;
(PID.TID 0000.0001) implicitViscosity = /* Implicit viscosity on/off flag */
(PID.TID 0000.0001)                   F
(PID.TID 0000.0001)     ;
(PID.TID 0000.0001) metricTerms =  /* metric-Terms on/off flag */
(PID.TID 0000.0001)                   F
(PID.TID 0000.0001)     ;
(PID.TID 0000.0001) useNHMTerms = /* Non-Hydrostatic Metric-Terms on/off */
(PID.TID 0000.0001)                   F
(PID.TID 0000.0001)     ;
(PID.TID 0000.0001) useConstantF =  /* use Constant f0 Coriolis flag */
(PID.TID 0000.0001)                   F
(PID.TID 0000.0001)     ;
(PID.TID 0000.0001) useBetaPlaneF = /* use Beta-Plane Coriolis flag */
(PID.TID 0000.0001)                   F
(PID.TID 0000.0001)     ;
(PID.TID 0000.0001) useSphereF  =   /* use Spherical Coriolis flag */
(PID.TID 0000.0001)                   T
(PID.TID 0000.0001)     ;
(PID.TID 0000.0001) use3dCoriolis = /* 3-D Coriolis on/off flag */
(PID.TID 0000.0001)                   F
(PID.TID 0000.0001)     ;
(PID.TID 0000.0001) useCoriolis =  /* Coriolis on/off flag */
(PID.TID 0000.0001)                   T
(PID.TID 0000.0001)     ;
(PID.TID 0000.0001) useCDscheme =  /* CD scheme on/off flag */
(PID.TID 0000.0001)                   F
(PID.TID 0000.0001)     ;
(PID.TID 0000.0001) useJamartWetPoints= /* Coriolis WetPoints method flag */
(PID.TID 0000.0001)                   F
(PID.TID 0000.0001)     ;
(PID.TID 0000.0001) useJamartMomAdv= /* V.I. Non-linear terms Jamart flag */
(PID.TID 0000.0001)                   F
(PID.TID 0000.0001)     ;
(PID.TID 0000.0001) useAbsVorticity= /* Work with f+zeta in Coriolis */
(PID.TID 0000.0001)                   F
(PID.TID 0000.0001)     ;
(PID.TID 0000.0001) selectVortScheme= /* Scheme selector for Vorticity-Term */
(PID.TID 0000.0001)                       1
(PID.TID 0000.0001)    = 0 : enstrophy (Shallow-Water Eq.) conserving scheme by Sadourny, JAS 75
(PID.TID 0000.0001)    = 1 : same as 0 with modified hFac
(PID.TID 0000.0001)    = 2 : energy conserving scheme (used by Sadourny in JAS 75 paper)
(PID.TID 0000.0001)    = 3 : energy (general) and enstrophy (2D, nonDiv.) conserving scheme
(PID.TID 0000.0001)          from Sadourny (Burridge & Haseler, ECMWF Rep.4, 1977)
(PID.TID 0000.0001)     ;
(PID.TID 0000.0001) upwindVorticity= /* Upwind bias vorticity flag */
(PID.TID 0000.0001)                   F
(PID.TID 0000.0001)     ;
(PID.TID 0000.0001) highOrderVorticity= /* High order interp. of vort. flag */
(PID.TID 0000.0001)                   F
(PID.TID 0000.0001)     ;
(PID.TID 0000.0001) upwindShear= /* Upwind vertical Shear advection flag */
(PID.TID 0000.0001)                   F
(PID.TID 0000.0001)     ;
(PID.TID 0000.0001) selectKEscheme= /* Kinetic Energy scheme selector */
(PID.TID 0000.0001)                       0
(PID.TID 0000.0001)     ;
(PID.TID 0000.0001) momForcing =  /* Momentum forcing on/off flag */
(PID.TID 0000.0001)                   T
(PID.TID 0000.0001)     ;
(PID.TID 0000.0001) momPressureForcing =  /* Momentum pressure term on/off flag */
(PID.TID 0000.0001)                   T
(PID.TID 0000.0001)     ;
(PID.TID 0000.0001) implicitIntGravWave= /* Implicit Internal Gravity Wave flag */
(PID.TID 0000.0001)                   F
(PID.TID 0000.0001)     ;
(PID.TID 0000.0001) staggerTimeStep =   /* Stagger time stepping on/off flag */
(PID.TID 0000.0001)                   T
(PID.TID 0000.0001)     ;
(PID.TID 0000.0001) multiDimAdvection =   /* enable/disable Multi-Dim Advection */
(PID.TID 0000.0001)                   T
(PID.TID 0000.0001)     ;
(PID.TID 0000.0001) useMultiDimAdvec =   /* Multi-Dim Advection is/is-not used */
(PID.TID 0000.0001)                   T
(PID.TID 0000.0001)     ;
(PID.TID 0000.0001) implicitDiffusion = /* Implicit Diffusion on/off flag */
(PID.TID 0000.0001)                   T
(PID.TID 0000.0001)     ;
(PID.TID 0000.0001) tempStepping =  /* Temperature equation on/off flag */
(PID.TID 0000.0001)                   T
(PID.TID 0000.0001)     ;
(PID.TID 0000.0001) tempAdvection=  /* Temperature advection on/off flag */
(PID.TID 0000.0001)                   T
(PID.TID 0000.0001)     ;
(PID.TID 0000.0001) tempImplVertAdv = /* Temp. implicit vert. advection on/off */
(PID.TID 0000.0001)                   F
(PID.TID 0000.0001)     ;
(PID.TID 0000.0001) tempForcing  =  /* Temperature forcing on/off flag */
(PID.TID 0000.0001)                   T
(PID.TID 0000.0001)     ;
(PID.TID 0000.0001) tempIsActiveTr = /* Temp. is a dynamically Active Tracer */
(PID.TID 0000.0001)                   T
(PID.TID 0000.0001)     ;
(PID.TID 0000.0001) saltStepping =  /* Salinity equation on/off flag */
(PID.TID 0000.0001)                   T
(PID.TID 0000.0001)     ;
(PID.TID 0000.0001) saltAdvection=  /* Salinity advection on/off flag */
(PID.TID 0000.0001)                   T
(PID.TID 0000.0001)     ;
(PID.TID 0000.0001) saltImplVertAdv = /* Sali. implicit vert. advection on/off */
(PID.TID 0000.0001)                   F
(PID.TID 0000.0001)     ;
(PID.TID 0000.0001) saltForcing  =  /* Salinity forcing on/off flag */
(PID.TID 0000.0001)                   T
(PID.TID 0000.0001)     ;
(PID.TID 0000.0001) saltIsActiveTr = /* Salt  is a dynamically Active Tracer */
(PID.TID 0000.0001)                   T
(PID.TID 0000.0001)     ;
(PID.TID 0000.0001)  readBinaryPrec = /* Precision used for reading binary files */
(PID.TID 0000.0001)                      64
(PID.TID 0000.0001)     ;
(PID.TID 0000.0001) writeBinaryPrec = /* Precision used for writing binary files */
(PID.TID 0000.0001)                      32
(PID.TID 0000.0001)     ;
(PID.TID 0000.0001)  globalFiles = /* write "global" (=not per tile) files */
(PID.TID 0000.0001)                   F
(PID.TID 0000.0001)     ;
(PID.TID 0000.0001)  useSingleCpuIO = /* only master MPI process does I/O */
(PID.TID 0000.0001)                   F
(PID.TID 0000.0001)     ;
(PID.TID 0000.0001)  debugMode  =  /* Debug Mode on/off flag */
(PID.TID 0000.0001)                   F
(PID.TID 0000.0001)     ;
(PID.TID 0000.0001)    debLevA  =  /* 1rst level of debugging */
(PID.TID 0000.0001)                       1
(PID.TID 0000.0001)     ;
(PID.TID 0000.0001)    debLevB  =  /* 2nd  level of debugging */
(PID.TID 0000.0001)                       2
(PID.TID 0000.0001)     ;
(PID.TID 0000.0001)  debugLevel =  /* select debugging level */
(PID.TID 0000.0001)                       1
(PID.TID 0000.0001)     ;
(PID.TID 0000.0001) //
(PID.TID 0000.0001) // Elliptic solver(s) paramters ( PARM02 in namelist )
(PID.TID 0000.0001) //
(PID.TID 0000.0001) cg2dMaxIters =   /* Upper limit on 2d con. grad iterations  */
(PID.TID 0000.0001)                     200
(PID.TID 0000.0001)     ;
(PID.TID 0000.0001) cg2dChkResFreq =   /* 2d con. grad convergence test frequency */
(PID.TID 0000.0001)                       1
(PID.TID 0000.0001)     ;
(PID.TID 0000.0001) cg2dTargetResidual =   /* 2d con. grad target residual  */
(PID.TID 0000.0001)                 1.000000000000000E-07
(PID.TID 0000.0001)     ;
(PID.TID 0000.0001) cg2dTargetResWunit =   /* CG2d target residual [W units] */
(PID.TID 0000.0001)                 1.000000000000000E-14
(PID.TID 0000.0001)     ;
(PID.TID 0000.0001) cg2dPreCondFreq =   /* Freq. for updating cg2d preconditioner */
(PID.TID 0000.0001)                       1
(PID.TID 0000.0001)     ;
(PID.TID 0000.0001) useSRCGSolver =  /* use single reduction CG solver(s) */
(PID.TID 0000.0001)                   F
(PID.TID 0000.0001)     ;
(PID.TID 0000.0001) //
(PID.TID 0000.0001) // Time stepping paramters ( PARM03 in namelist )
(PID.TID 0000.0001) //
(PID.TID 0000.0001) deltaTmom =   /* Momentum equation timestep ( s ) */
(PID.TID 0000.0001)                 1.200000000000000E+03
(PID.TID 0000.0001)     ;
(PID.TID 0000.0001) deltaTfreesurf = /* FreeSurface equation timestep ( s ) */
(PID.TID 0000.0001)                 8.640000000000000E+04
(PID.TID 0000.0001)     ;
(PID.TID 0000.0001) dTtracerLev =  /* Tracer equation timestep ( s ) */
(PID.TID 0000.0001)    15 @  8.640000000000000E+04              /* K =  1: 15 */
(PID.TID 0000.0001)     ;
(PID.TID 0000.0001) deltaTClock  =   /* Model clock timestep ( s ) */
(PID.TID 0000.0001)                 8.640000000000000E+04
(PID.TID 0000.0001)     ;
(PID.TID 0000.0001) cAdjFreq =   /* Convective adjustment interval ( s ) */
(PID.TID 0000.0001)                 0.000000000000000E+00
(PID.TID 0000.0001)     ;
(PID.TID 0000.0001) momForcingOutAB = /* =1: take Momentum Forcing out of Adams-Bash. stepping */
(PID.TID 0000.0001)                       0
(PID.TID 0000.0001)     ;
(PID.TID 0000.0001) tracForcingOutAB = /* =1: take T,S,pTr Forcing out of Adams-Bash. stepping */
(PID.TID 0000.0001)                       1
(PID.TID 0000.0001)     ;
(PID.TID 0000.0001) momDissip_In_AB = /* put Dissipation Tendency in Adams-Bash. stepping */
(PID.TID 0000.0001)                   T
(PID.TID 0000.0001)     ;
(PID.TID 0000.0001) doAB_onGtGs = /* apply AB on Tendencies (rather than on T,S)*/
(PID.TID 0000.0001)                   T
(PID.TID 0000.0001)     ;
(PID.TID 0000.0001) abEps =   /* Adams-Bashforth-2 stabilizing weight */
(PID.TID 0000.0001)                 1.000000000000000E-01
(PID.TID 0000.0001)     ;
(PID.TID 0000.0001) alph_AB =   /* Adams-Bashforth-3 primary factor */
(PID.TID 0000.0001)                 5.000000000000000E-01
(PID.TID 0000.0001)     ;
(PID.TID 0000.0001) beta_AB =   /* Adams-Bashforth-3 secondary factor */
(PID.TID 0000.0001)                 4.166666666666667E-01
(PID.TID 0000.0001)     ;
(PID.TID 0000.0001) startFromPickupAB2= /* start from AB-2 pickup */
(PID.TID 0000.0001)                   F
(PID.TID 0000.0001)     ;
(PID.TID 0000.0001) pickupStrictlyMatch= /* stop if pickup do not strictly match */
(PID.TID 0000.0001)                   F
(PID.TID 0000.0001)     ;
(PID.TID 0000.0001) nIter0 =   /* Run starting timestep number  */
(PID.TID 0000.0001)                   72000
(PID.TID 0000.0001)     ;
(PID.TID 0000.0001) nTimeSteps =   /* Number of timesteps */
(PID.TID 0000.0001)                      20
(PID.TID 0000.0001)     ;
(PID.TID 0000.0001) baseTime =   /* Model base time ( s ). */
(PID.TID 0000.0001)                 0.000000000000000E+00
(PID.TID 0000.0001)     ;
(PID.TID 0000.0001) startTime =   /* Run start time ( s ). */
(PID.TID 0000.0001)                 6.220800000000000E+09
(PID.TID 0000.0001)     ;
(PID.TID 0000.0001) endTime =   /* Integration ending time ( s ). */
(PID.TID 0000.0001)                 6.222528000000000E+09
(PID.TID 0000.0001)     ;
(PID.TID 0000.0001) pChkPtFreq =   /* Permanent restart/checkpoint file interval ( s ). */
(PID.TID 0000.0001)                 1.728000000000000E+06
(PID.TID 0000.0001)     ;
(PID.TID 0000.0001) chkPtFreq =   /* Rolling restart/checkpoint file interval ( s ). */
(PID.TID 0000.0001)                 0.000000000000000E+00
(PID.TID 0000.0001)     ;
(PID.TID 0000.0001) pickup_write_mdsio =   /* Model IO flag. */
(PID.TID 0000.0001)                   T
(PID.TID 0000.0001)     ;
(PID.TID 0000.0001) pickup_read_mdsio =   /* Model IO flag. */
(PID.TID 0000.0001)                   T
(PID.TID 0000.0001)     ;
(PID.TID 0000.0001) pickup_write_immed =   /* Model IO flag. */
(PID.TID 0000.0001)                   F
(PID.TID 0000.0001)     ;
(PID.TID 0000.0001) writePickupAtEnd =   /* Model IO flag. */
(PID.TID 0000.0001)                   T
(PID.TID 0000.0001)     ;
(PID.TID 0000.0001) dumpFreq =   /* Model state write out interval ( s ). */
(PID.TID 0000.0001)                 8.640000000000000E+04
(PID.TID 0000.0001)     ;
(PID.TID 0000.0001) dumpInitAndLast= /* write out Initial & Last iter. model state */
(PID.TID 0000.0001)                   T
(PID.TID 0000.0001)     ;
(PID.TID 0000.0001) snapshot_mdsio =   /* Model IO flag. */
(PID.TID 0000.0001)                   T
(PID.TID 0000.0001)     ;
(PID.TID 0000.0001) monitorFreq =   /* Monitor output interval ( s ). */
(PID.TID 0000.0001)                 1.000000000000000E+00
(PID.TID 0000.0001)     ;
(PID.TID 0000.0001) monitorSelect = /* select group of variables to monitor */
(PID.TID 0000.0001)                       3
(PID.TID 0000.0001)     ;
(PID.TID 0000.0001) monitor_stdio =   /* Model IO flag. */
(PID.TID 0000.0001)                   T
(PID.TID 0000.0001)     ;
(PID.TID 0000.0001) externForcingPeriod =   /* forcing period (s) */
(PID.TID 0000.0001)                 2.592000000000000E+06
(PID.TID 0000.0001)     ;
(PID.TID 0000.0001) externForcingCycle =   /* period of the cyle (s). */
(PID.TID 0000.0001)                 3.110400000000000E+07
(PID.TID 0000.0001)     ;
(PID.TID 0000.0001) tauThetaClimRelax =   /* relaxation time scale (s) */
(PID.TID 0000.0001)                 5.184000000000000E+06
(PID.TID 0000.0001)     ;
(PID.TID 0000.0001) tauSaltClimRelax =   /* relaxation time scale (s) */
(PID.TID 0000.0001)                 6.220800000000000E+07
(PID.TID 0000.0001)     ;
(PID.TID 0000.0001) latBandClimRelax =   /* max. Lat. where relaxation */
(PID.TID 0000.0001)                 1.800000000000000E+02
(PID.TID 0000.0001)     ;
(PID.TID 0000.0001) //
(PID.TID 0000.0001) // Gridding paramters ( PARM04 in namelist )
(PID.TID 0000.0001) //
(PID.TID 0000.0001) usingCartesianGrid = /* Cartesian coordinates flag ( True/False ) */
(PID.TID 0000.0001)                   F
(PID.TID 0000.0001)     ;
(PID.TID 0000.0001) usingCylindricalGrid = /* Cylindrical coordinates flag ( True/False ) */
(PID.TID 0000.0001)                   F
(PID.TID 0000.0001)     ;
(PID.TID 0000.0001) usingSphericalPolarGrid = /* Spherical coordinates flag ( True/False ) */
(PID.TID 0000.0001)                   F
(PID.TID 0000.0001)     ;
(PID.TID 0000.0001) usingCurvilinearGrid = /* Curvilinear coordinates flag ( True/False ) */
(PID.TID 0000.0001)                   T
(PID.TID 0000.0001)     ;
(PID.TID 0000.0001) selectSigmaCoord = /* Hybrid-Sigma Vert. Coordinate option */
(PID.TID 0000.0001)                       0
(PID.TID 0000.0001)     ;
(PID.TID 0000.0001) Ro_SeaLevel = /* r(1) ( units of r ==  m ) */
(PID.TID 0000.0001)                 0.000000000000000E+00
(PID.TID 0000.0001)     ;
(PID.TID 0000.0001) rSigmaBnd = /* r/sigma transition ( units of r ==  m ) */
(PID.TID 0000.0001)                 1.234567000000000E+05
(PID.TID 0000.0001)     ;
(PID.TID 0000.0001) rkSign =   /* index orientation relative to vertical coordinate */
(PID.TID 0000.0001)                -1.000000000000000E+00
(PID.TID 0000.0001)     ;
(PID.TID 0000.0001) gravitySign = /* gravity orientation relative to vertical coordinate */
(PID.TID 0000.0001)                -1.000000000000000E+00
(PID.TID 0000.0001)     ;
(PID.TID 0000.0001) mass2rUnit = /* convert mass per unit area [kg/m2] to r-units [m] */
(PID.TID 0000.0001)                 9.661835748792270E-04
(PID.TID 0000.0001)     ;
(PID.TID 0000.0001) rUnit2mass = /* convert r-units [m] to mass per unit area [kg/m2] */
(PID.TID 0000.0001)                 1.035000000000000E+03
(PID.TID 0000.0001)     ;
(PID.TID 0000.0001) drC =   /* C spacing ( units of r ) */
(PID.TID 0000.0001)                 2.500000000000000E+01,      /* K =  1 */
(PID.TID 0000.0001)                 6.000000000000000E+01,      /* K =  2 */
(PID.TID 0000.0001)                 8.500000000000000E+01,      /* K =  3 */
(PID.TID 0000.0001)                 1.200000000000000E+02,      /* K =  4 */
(PID.TID 0000.0001)                 1.650000000000000E+02,      /* K =  5 */
(PID.TID 0000.0001)                 2.150000000000000E+02,      /* K =  6 */
(PID.TID 0000.0001)                 2.650000000000000E+02,      /* K =  7 */
(PID.TID 0000.0001)                 3.150000000000000E+02,      /* K =  8 */
(PID.TID 0000.0001)                 3.650000000000000E+02,      /* K =  9 */
(PID.TID 0000.0001)                 4.150000000000000E+02,      /* K = 10 */
(PID.TID 0000.0001)                 4.650000000000000E+02,      /* K = 11 */
(PID.TID 0000.0001)                 5.150000000000000E+02,      /* K = 12 */
(PID.TID 0000.0001)                 5.650000000000000E+02,      /* K = 13 */
(PID.TID 0000.0001)                 6.150000000000000E+02,      /* K = 14 */
(PID.TID 0000.0001)                 6.650000000000000E+02       /* K = 15 */
(PID.TID 0000.0001)     ;
(PID.TID 0000.0001) drF =   /* W spacing ( units of r ) */
(PID.TID 0000.0001)                 5.000000000000000E+01,      /* K =  1 */
(PID.TID 0000.0001)                 7.000000000000000E+01,      /* K =  2 */
(PID.TID 0000.0001)                 1.000000000000000E+02,      /* K =  3 */
(PID.TID 0000.0001)                 1.400000000000000E+02,      /* K =  4 */
(PID.TID 0000.0001)                 1.900000000000000E+02,      /* K =  5 */
(PID.TID 0000.0001)                 2.400000000000000E+02,      /* K =  6 */
(PID.TID 0000.0001)                 2.900000000000000E+02,      /* K =  7 */
(PID.TID 0000.0001)                 3.400000000000000E+02,      /* K =  8 */
(PID.TID 0000.0001)                 3.900000000000000E+02,      /* K =  9 */
(PID.TID 0000.0001)                 4.400000000000000E+02,      /* K = 10 */
(PID.TID 0000.0001)                 4.900000000000000E+02,      /* K = 11 */
(PID.TID 0000.0001)                 5.400000000000000E+02,      /* K = 12 */
(PID.TID 0000.0001)                 5.900000000000000E+02,      /* K = 13 */
(PID.TID 0000.0001)                 6.400000000000000E+02,      /* K = 14 */
(PID.TID 0000.0001)                 6.900000000000000E+02       /* K = 15 */
(PID.TID 0000.0001)     ;
(PID.TID 0000.0001) xgOrigin = /* X-axis origin of West  edge (cartesian: m, lat-lon: deg.) */
(PID.TID 0000.0001)                 0.000000000000000E+00
(PID.TID 0000.0001)     ;
(PID.TID 0000.0001) ygOrigin = /* Y-axis origin of South edge (cartesian: m, lat-lon: deg.) */
(PID.TID 0000.0001)                 0.000000000000000E+00
(PID.TID 0000.0001)     ;
(PID.TID 0000.0001) rSphere =  /* Radius ( ignored - cartesian, m - spherical ) */
(PID.TID 0000.0001)                 6.370000000000000E+06
(PID.TID 0000.0001)     ;
(PID.TID 0000.0001) deepAtmosphere = /* Deep/Shallow Atmosphere flag (True/False) */
(PID.TID 0000.0001)                   F
(PID.TID 0000.0001)     ;
(PID.TID 0000.0001) xC =  /* xC(:,1,:,1) : P-point X coord ( deg. or m if cartesian) */
(PID.TID 0000.0001)                -4.439521994760536E+01,      /* I =  1 */
(PID.TID 0000.0001)                -4.295641272275883E+01,      /* I =  2 */
(PID.TID 0000.0001)                -4.122055553388957E+01,      /* I =  3 */
(PID.TID 0000.0001)      . . .
(PID.TID 0000.0001)                 8.070819219728060E+01,      /* I = 46 */
(PID.TID 0000.0001)                 8.439652466417766E+01,      /* I = 47 */
(PID.TID 0000.0001)                 8.812739148696656E+01,      /* I = 48 */
(PID.TID 0000.0001)                 9.187260851303344E+01,      /* I = 49 */
(PID.TID 0000.0001)                 9.560347533582234E+01,      /* I = 50 */
(PID.TID 0000.0001)                 9.929180780271940E+01,      /* I = 51 */
(PID.TID 0000.0001)      . . .
(PID.TID 0000.0001)                 1.321863035748696E+02,      /* I = 94 */
(PID.TID 0000.0001)                 1.337919453120370E+02,      /* I = 95 */
(PID.TID 0000.0001)                 1.350000000000000E+02,      /* I = 96 */
(PID.TID 0000.0001)                 1.356047800523947E+02,      /* I = 97 */
(PID.TID 0000.0001)                 1.358367907661329E+02,      /* I = 98 */
(PID.TID 0000.0001)                 1.359720382181193E+02,      /* I = 99 */
(PID.TID 0000.0001)      . . .
(PID.TID 0000.0001)                -1.336511021209287E+02,      /* I =142 */
(PID.TID 0000.0001)                -1.336469399409420E+02,      /* I =143 */
(PID.TID 0000.0001)                -1.336449032499283E+02,      /* I =144 */
(PID.TID 0000.0001)                -1.336449032499283E+02,      /* I =145 */
(PID.TID 0000.0001)                -1.336469399409420E+02,      /* I =146 */
(PID.TID 0000.0001)                -1.336511021209287E+02,      /* I =147 */
(PID.TID 0000.0001)      . . .
(PID.TID 0000.0001)                 1.378136964251304E+02,      /* I =190 */
(PID.TID 0000.0001)                 1.362080546879630E+02,      /* I =191 */
(PID.TID 0000.0001)                 1.350000000000000E+02       /* I =192 */
(PID.TID 0000.0001)     ;
(PID.TID 0000.0001) yC =  /* yC(1,:,1,:) : P-point Y coord ( deg. or m if cartesian) */
(PID.TID 0000.0001)                -3.497677942598243E+01,      /* J =  1 */
(PID.TID 0000.0001)                -3.374005967394886E+01,      /* J =  2 */
(PID.TID 0000.0001)                -3.220655175667454E+01,      /* J =  3 */
(PID.TID 0000.0001)                -3.045756348838641E+01,      /* J =  4 */
(PID.TID 0000.0001)                -2.853728129852918E+01,      /* J =  5 */
(PID.TID 0000.0001)                -2.647426640173173E+01,      /* J =  6 */
(PID.TID 0000.0001)                -2.428936657094636E+01,      /* J =  7 */
(PID.TID 0000.0001)                -2.199915808312262E+01,      /* J =  8 */
(PID.TID 0000.0001)                -1.961768597440146E+01,      /* J =  9 */
(PID.TID 0000.0001)                -1.715743888281371E+01,      /* J = 10 */
(PID.TID 0000.0001)                -1.462993396899330E+01,      /* J = 11 */
(PID.TID 0000.0001)                -1.204608340464756E+01,      /* J = 12 */
(PID.TID 0000.0001)                -9.416429130284818E+00,      /* J = 13 */
(PID.TID 0000.0001)                -6.751293662992216E+00,      /* J = 14 */
(PID.TID 0000.0001)                -4.060875511835959E+00,      /* J = 15 */
(PID.TID 0000.0001)                -1.355307764409121E+00,      /* J = 16 */
(PID.TID 0000.0001)                 1.355307764409121E+00,      /* J = 17 */
(PID.TID 0000.0001)                 4.060875511835959E+00,      /* J = 18 */
(PID.TID 0000.0001)                 6.751293662992216E+00,      /* J = 19 */
(PID.TID 0000.0001)                 9.416429130284818E+00,      /* J = 20 */
(PID.TID 0000.0001)                 1.204608340464756E+01,      /* J = 21 */
(PID.TID 0000.0001)                 1.462993396899330E+01,      /* J = 22 */
(PID.TID 0000.0001)                 1.715743888281371E+01,      /* J = 23 */
(PID.TID 0000.0001)                 1.961768597440146E+01,      /* J = 24 */
(PID.TID 0000.0001)                 2.199915808312262E+01,      /* J = 25 */
(PID.TID 0000.0001)                 2.428936657094636E+01,      /* J = 26 */
(PID.TID 0000.0001)                 2.647426640173173E+01,      /* J = 27 */
(PID.TID 0000.0001)                 2.853728129852918E+01,      /* J = 28 */
(PID.TID 0000.0001)                 3.045756348838641E+01,      /* J = 29 */
(PID.TID 0000.0001)                 3.220655175667454E+01,      /* J = 30 */
(PID.TID 0000.0001)                 3.374005967394886E+01,      /* J = 31 */
(PID.TID 0000.0001)                 3.497677942598243E+01       /* J = 32 */
(PID.TID 0000.0001)     ;
(PID.TID 0000.0001) rcoord = /* P-point R coordinate (  units of r ) */
(PID.TID 0000.0001)                -2.500000000000000E+01,      /* K =  1 */
(PID.TID 0000.0001)                -8.500000000000000E+01,      /* K =  2 */
(PID.TID 0000.0001)                -1.700000000000000E+02,      /* K =  3 */
(PID.TID 0000.0001)                -2.900000000000000E+02,      /* K =  4 */
(PID.TID 0000.0001)                -4.550000000000000E+02,      /* K =  5 */
(PID.TID 0000.0001)                -6.700000000000000E+02,      /* K =  6 */
(PID.TID 0000.0001)                -9.350000000000000E+02,      /* K =  7 */
(PID.TID 0000.0001)                -1.250000000000000E+03,      /* K =  8 */
(PID.TID 0000.0001)                -1.615000000000000E+03,      /* K =  9 */
(PID.TID 0000.0001)                -2.030000000000000E+03,      /* K = 10 */
(PID.TID 0000.0001)                -2.495000000000000E+03,      /* K = 11 */
(PID.TID 0000.0001)                -3.010000000000000E+03,      /* K = 12 */
(PID.TID 0000.0001)                -3.575000000000000E+03,      /* K = 13 */
(PID.TID 0000.0001)                -4.190000000000000E+03,      /* K = 14 */
(PID.TID 0000.0001)                -4.855000000000000E+03       /* K = 15 */
(PID.TID 0000.0001)     ;
(PID.TID 0000.0001) rF =   /* W-Interf. R coordinate (  units of r ) */
(PID.TID 0000.0001)                 0.000000000000000E+00,      /* K =  1 */
(PID.TID 0000.0001)                -5.000000000000000E+01,      /* K =  2 */
(PID.TID 0000.0001)                -1.200000000000000E+02,      /* K =  3 */
(PID.TID 0000.0001)                -2.200000000000000E+02,      /* K =  4 */
(PID.TID 0000.0001)                -3.600000000000000E+02,      /* K =  5 */
(PID.TID 0000.0001)                -5.500000000000000E+02,      /* K =  6 */
(PID.TID 0000.0001)                -7.900000000000000E+02,      /* K =  7 */
(PID.TID 0000.0001)                -1.080000000000000E+03,      /* K =  8 */
(PID.TID 0000.0001)                -1.420000000000000E+03,      /* K =  9 */
(PID.TID 0000.0001)                -1.810000000000000E+03,      /* K = 10 */
(PID.TID 0000.0001)                -2.250000000000000E+03,      /* K = 11 */
(PID.TID 0000.0001)                -2.740000000000000E+03,      /* K = 12 */
(PID.TID 0000.0001)                -3.280000000000000E+03,      /* K = 13 */
(PID.TID 0000.0001)                -3.870000000000000E+03,      /* K = 14 */
(PID.TID 0000.0001)                -4.510000000000000E+03,      /* K = 15 */
(PID.TID 0000.0001)                -5.200000000000000E+03       /* K = 16 */
(PID.TID 0000.0001)     ;
(PID.TID 0000.0001) deepFacC = /* deep-model grid factor @ cell-Center (-) */
(PID.TID 0000.0001)    15 @  1.000000000000000E+00              /* K =  1: 15 */
(PID.TID 0000.0001)     ;
(PID.TID 0000.0001) deepFacF = /* deep-model grid factor @ W-Interface (-) */
(PID.TID 0000.0001)    16 @  1.000000000000000E+00              /* K =  1: 16 */
(PID.TID 0000.0001)     ;
(PID.TID 0000.0001) rVel2wUnit = /* convert units: rVel -> wSpeed (=1 if z-coord)*/
(PID.TID 0000.0001)    16 @  1.000000000000000E+00              /* K =  1: 16 */
(PID.TID 0000.0001)     ;
(PID.TID 0000.0001) wUnit2rVel = /* convert units: wSpeed -> rVel (=1 if z-coord)*/
(PID.TID 0000.0001)    16 @  1.000000000000000E+00              /* K =  1: 16 */
(PID.TID 0000.0001)     ;
(PID.TID 0000.0001) dBdrRef = /* Vertical gradient of reference boyancy [(m/s/r)^2)] */
(PID.TID 0000.0001)    15 @  0.000000000000000E+00              /* K =  1: 15 */
(PID.TID 0000.0001)     ;
(PID.TID 0000.0001) rotateGrid = /* use rotated grid ( True/False ) */
(PID.TID 0000.0001)                   F
(PID.TID 0000.0001)     ;
(PID.TID 0000.0001) phiEuler = /* Euler angle, rotation about original z-coordinate [rad] */
(PID.TID 0000.0001)                 0.000000000000000E+00
(PID.TID 0000.0001)     ;
(PID.TID 0000.0001) thetaEuler = /* Euler angle, rotation about new x-coordinate [rad] */
(PID.TID 0000.0001)                 0.000000000000000E+00
(PID.TID 0000.0001)     ;
(PID.TID 0000.0001) psiEuler = /* Euler angle, rotation about new z-coordinate [rad] */
(PID.TID 0000.0001)                 0.000000000000000E+00
(PID.TID 0000.0001)     ;
(PID.TID 0000.0001) dxF =  /* dxF(:,1,:,1) ( units: m ) */
(PID.TID 0000.0001)                 1.202082051331828E+05,      /* I =  1 */
(PID.TID 0000.0001)                 1.563594089971120E+05,      /* I =  2 */
(PID.TID 0000.0001)                 1.835530058121492E+05,      /* I =  3 */
(PID.TID 0000.0001)      . . .
(PID.TID 0000.0001)                 2.978501920522794E+05,      /* I = 46 */
(PID.TID 0000.0001)                 3.000967749619962E+05,      /* I = 47 */
(PID.TID 0000.0001)                 3.012190981969055E+05,      /* I = 48 */
(PID.TID 0000.0001)                 3.012190981969055E+05,      /* I = 49 */
(PID.TID 0000.0001)                 3.000967749619962E+05,      /* I = 50 */
(PID.TID 0000.0001)                 2.978501920522794E+05,      /* I = 51 */
(PID.TID 0000.0001)      . . .
(PID.TID 0000.0001)                 1.835530058121492E+05,      /* I = 94 */
(PID.TID 0000.0001)                 1.563594089971120E+05,      /* I = 95 */
(PID.TID 0000.0001)                 1.202082051331828E+05,      /* I = 96 */
(PID.TID 0000.0001)                 1.202082051331828E+05,      /* I = 97 */
(PID.TID 0000.0001)                 1.563594089971120E+05,      /* I = 98 */
(PID.TID 0000.0001)                 1.835530058121492E+05,      /* I = 99 */
(PID.TID 0000.0001)      . . .
(PID.TID 0000.0001)                 2.978501920522794E+05,      /* I =142 */
(PID.TID 0000.0001)                 3.000967749619962E+05,      /* I =143 */
(PID.TID 0000.0001)                 3.012190981969055E+05,      /* I =144 */
(PID.TID 0000.0001)                 3.012190981969055E+05,      /* I =145 */
(PID.TID 0000.0001)                 3.000967749619962E+05,      /* I =146 */
(PID.TID 0000.0001)                 2.978501920522794E+05,      /* I =147 */
(PID.TID 0000.0001)      . . .
(PID.TID 0000.0001)                 1.835530058121492E+05,      /* I =190 */
(PID.TID 0000.0001)                 1.563594089971120E+05,      /* I =191 */
(PID.TID 0000.0001)                 1.202082051331828E+05       /* I =192 */
(PID.TID 0000.0001)     ;
(PID.TID 0000.0001) dxF =  /* dxF(1,:,1,:) ( units: m ) */
(PID.TID 0000.0001)                 1.202082051331828E+05,      /* J =  1 */
(PID.TID 0000.0001)                 1.572908084538706E+05,      /* J =  2 */
(PID.TID 0000.0001)                 1.840412227747703E+05,      /* J =  3 */
(PID.TID 0000.0001)                 2.048868197919576E+05,      /* J =  4 */
(PID.TID 0000.0001)                 2.220405216043041E+05,      /* J =  5 */
(PID.TID 0000.0001)                 2.365892017348392E+05,      /* J =  6 */
(PID.TID 0000.0001)                 2.491250781852558E+05,      /* J =  7 */
(PID.TID 0000.0001)                 2.599949918261881E+05,      /* J =  8 */
(PID.TID 0000.0001)                 2.694110134598581E+05,      /* J =  9 */
(PID.TID 0000.0001)                 2.775055554645015E+05,      /* J = 10 */
(PID.TID 0000.0001)                 2.843615645344775E+05,      /* J = 11 */
(PID.TID 0000.0001)                 2.900303768613599E+05,      /* J = 12 */
(PID.TID 0000.0001)                 2.945429307892709E+05,      /* J = 13 */
(PID.TID 0000.0001)                 2.979171143158405E+05,      /* J = 14 */
(PID.TID 0000.0001)                 3.001626787528886E+05,      /* J = 15 */
(PID.TID 0000.0001)     2 @  3.012844832048790E+05,             /* J = 16: 17 */
(PID.TID 0000.0001)                 3.001626787528886E+05,      /* J = 18 */
(PID.TID 0000.0001)                 2.979171143158405E+05,      /* J = 19 */
(PID.TID 0000.0001)                 2.945429307892709E+05,      /* J = 20 */
(PID.TID 0000.0001)                 2.900303768613599E+05,      /* J = 21 */
(PID.TID 0000.0001)                 2.843615645344775E+05,      /* J = 22 */
(PID.TID 0000.0001)                 2.775055554645015E+05,      /* J = 23 */
(PID.TID 0000.0001)                 2.694110134598581E+05,      /* J = 24 */
(PID.TID 0000.0001)                 2.599949918261881E+05,      /* J = 25 */
(PID.TID 0000.0001)                 2.491250781852558E+05,      /* J = 26 */
(PID.TID 0000.0001)                 2.365892017348392E+05,      /* J = 27 */
(PID.TID 0000.0001)                 2.220405216043041E+05,      /* J = 28 */
(PID.TID 0000.0001)                 2.048868197919576E+05,      /* J = 29 */
(PID.TID 0000.0001)                 1.840412227747703E+05,      /* J = 30 */
(PID.TID 0000.0001)                 1.572908084538706E+05,      /* J = 31 */
(PID.TID 0000.0001)                 1.202082051331828E+05       /* J = 32 */
(PID.TID 0000.0001)     ;
(PID.TID 0000.0001) dyF =  /* dyF(:,1,:,1) ( units: m ) */
(PID.TID 0000.0001)                 1.202082051331828E+05,      /* I =  1 */
(PID.TID 0000.0001)                 1.572908084538706E+05,      /* I =  2 */
(PID.TID 0000.0001)                 1.840412227747703E+05,      /* I =  3 */
(PID.TID 0000.0001)      . . .
(PID.TID 0000.0001)                 2.979171143158405E+05,      /* I = 46 */
(PID.TID 0000.0001)                 3.001626787528886E+05,      /* I = 47 */
(PID.TID 0000.0001)                 3.012844832048790E+05,      /* I = 48 */
(PID.TID 0000.0001)                 3.012844832048790E+05,      /* I = 49 */
(PID.TID 0000.0001)                 3.001626787528886E+05,      /* I = 50 */
(PID.TID 0000.0001)                 2.979171143158405E+05,      /* I = 51 */
(PID.TID 0000.0001)      . . .
(PID.TID 0000.0001)                 1.840412227747703E+05,      /* I = 94 */
(PID.TID 0000.0001)                 1.572908084538706E+05,      /* I = 95 */
(PID.TID 0000.0001)                 1.202082051331828E+05,      /* I = 96 */
(PID.TID 0000.0001)                 1.202082051331828E+05,      /* I = 97 */
(PID.TID 0000.0001)                 1.572908084538706E+05,      /* I = 98 */
(PID.TID 0000.0001)                 1.840412227747703E+05,      /* I = 99 */
(PID.TID 0000.0001)      . . .
(PID.TID 0000.0001)                 2.979171143158405E+05,      /* I =142 */
(PID.TID 0000.0001)                 3.001626787528886E+05,      /* I =143 */
(PID.TID 0000.0001)                 3.012844832048790E+05,      /* I =144 */
(PID.TID 0000.0001)                 3.012844832048790E+05,      /* I =145 */
(PID.TID 0000.0001)                 3.001626787528886E+05,      /* I =146 */
(PID.TID 0000.0001)                 2.979171143158405E+05,      /* I =147 */
(PID.TID 0000.0001)      . . .
(PID.TID 0000.0001)                 1.840412227747703E+05,      /* I =190 */
(PID.TID 0000.0001)                 1.572908084538706E+05,      /* I =191 */
(PID.TID 0000.0001)                 1.202082051331828E+05       /* I =192 */
(PID.TID 0000.0001)     ;
(PID.TID 0000.0001) dyF =  /* dyF(1,:,1,:) ( units: m ) */
(PID.TID 0000.0001)                 1.202082051331828E+05,      /* J =  1 */
(PID.TID 0000.0001)                 1.563594089971120E+05,      /* J =  2 */
(PID.TID 0000.0001)                 1.835530058121492E+05,      /* J =  3 */
(PID.TID 0000.0001)                 2.045883481718707E+05,      /* J =  4 */
(PID.TID 0000.0001)                 2.218350349844185E+05,      /* J =  5 */
(PID.TID 0000.0001)                 2.364352994647058E+05,      /* J =  6 */
(PID.TID 0000.0001)                 2.490022710862746E+05,      /* J =  7 */
(PID.TID 0000.0001)                 2.598919724358304E+05,      /* J =  8 */
(PID.TID 0000.0001)                 2.693210245495156E+05,      /* J =  9 */
(PID.TID 0000.0001)                 2.774243179696503E+05,      /* J = 10 */
(PID.TID 0000.0001)                 2.842862532064524E+05,      /* J = 11 */
(PID.TID 0000.0001)                 2.899590699694043E+05,      /* J = 12 */
(PID.TID 0000.0001)                 2.944742915095688E+05,      /* J = 13 */
(PID.TID 0000.0001)                 2.978501920522794E+05,      /* J = 14 */
(PID.TID 0000.0001)                 3.000967749619962E+05,      /* J = 15 */
(PID.TID 0000.0001)     2 @  3.012190981969055E+05,             /* J = 16: 17 */
(PID.TID 0000.0001)                 3.000967749619962E+05,      /* J = 18 */
(PID.TID 0000.0001)                 2.978501920522794E+05,      /* J = 19 */
(PID.TID 0000.0001)                 2.944742915095688E+05,      /* J = 20 */
(PID.TID 0000.0001)                 2.899590699694043E+05,      /* J = 21 */
(PID.TID 0000.0001)                 2.842862532064524E+05,      /* J = 22 */
(PID.TID 0000.0001)                 2.774243179696503E+05,      /* J = 23 */
(PID.TID 0000.0001)                 2.693210245495156E+05,      /* J = 24 */
(PID.TID 0000.0001)                 2.598919724358304E+05,      /* J = 25 */
(PID.TID 0000.0001)                 2.490022710862746E+05,      /* J = 26 */
(PID.TID 0000.0001)                 2.364352994647058E+05,      /* J = 27 */
(PID.TID 0000.0001)                 2.218350349844185E+05,      /* J = 28 */
(PID.TID 0000.0001)                 2.045883481718707E+05,      /* J = 29 */
(PID.TID 0000.0001)                 1.835530058121492E+05,      /* J = 30 */
(PID.TID 0000.0001)                 1.563594089971120E+05,      /* J = 31 */
(PID.TID 0000.0001)                 1.202082051331828E+05       /* J = 32 */
(PID.TID 0000.0001)     ;
(PID.TID 0000.0001) dxG =  /* dxG(:,1,:,1) ( units: m ) */
(PID.TID 0000.0001)                 1.009837800879055E+05,      /* I =  1 */
(PID.TID 0000.0001)                 1.534505834330338E+05,      /* I =  2 */
(PID.TID 0000.0001)                 1.823321598773926E+05,      /* I =  3 */
(PID.TID 0000.0001)      . . .
(PID.TID 0000.0001)                 2.977867909042096E+05,      /* I = 46 */
(PID.TID 0000.0001)                 3.000380090330854E+05,      /* I = 47 */
(PID.TID 0000.0001)                 3.011625828699101E+05,      /* I = 48 */
(PID.TID 0000.0001)                 3.011625828699101E+05,      /* I = 49 */
(PID.TID 0000.0001)                 3.000380090330854E+05,      /* I = 50 */
(PID.TID 0000.0001)                 2.977867909042096E+05,      /* I = 51 */
(PID.TID 0000.0001)      . . .
(PID.TID 0000.0001)                 1.823321598773926E+05,      /* I = 94 */
(PID.TID 0000.0001)                 1.534505834330338E+05,      /* I = 95 */
(PID.TID 0000.0001)                 1.009837800879055E+05,      /* I = 96 */
(PID.TID 0000.0001)                 1.009837800879055E+05,      /* I = 97 */
(PID.TID 0000.0001)                 1.534505834330338E+05,      /* I = 98 */
(PID.TID 0000.0001)                 1.823321598773926E+05,      /* I = 99 */
(PID.TID 0000.0001)      . . .
(PID.TID 0000.0001)                 2.977867909042096E+05,      /* I =142 */
(PID.TID 0000.0001)                 3.000380090330854E+05,      /* I =143 */
(PID.TID 0000.0001)                 3.011625828699101E+05,      /* I =144 */
(PID.TID 0000.0001)                 3.011625828699101E+05,      /* I =145 */
(PID.TID 0000.0001)                 3.000380090330854E+05,      /* I =146 */
(PID.TID 0000.0001)                 2.977867909042096E+05,      /* I =147 */
(PID.TID 0000.0001)      . . .
(PID.TID 0000.0001)                 1.823321598773926E+05,      /* I =190 */
(PID.TID 0000.0001)                 1.534505834330338E+05,      /* I =191 */
(PID.TID 0000.0001)                 1.009837800879055E+05       /* I =192 */
(PID.TID 0000.0001)     ;
(PID.TID 0000.0001) dxG =  /* dxG(1,:,1,:) ( units: m ) */
(PID.TID 0000.0001)                 1.009837800879055E+05,      /* J =  1 */
(PID.TID 0000.0001)                 1.403701524205398E+05,      /* J =  2 */
(PID.TID 0000.0001)                 1.716197227386011E+05,      /* J =  3 */
(PID.TID 0000.0001)                 1.950254041626018E+05,      /* J =  4 */
(PID.TID 0000.0001)                 2.138410773065497E+05,      /* J =  5 */
(PID.TID 0000.0001)                 2.295958105911512E+05,      /* J =  6 */
(PID.TID 0000.0001)                 2.430829951739083E+05,      /* J =  7 */
(PID.TID 0000.0001)                 2.547526806712889E+05,      /* J =  8 */
(PID.TID 0000.0001)                 2.648750305193301E+05,      /* J =  9 */
(PID.TID 0000.0001)                 2.736173771018112E+05,      /* J = 10 */
(PID.TID 0000.0001)                 2.810845823202647E+05,      /* J = 11 */
(PID.TID 0000.0001)                 2.873420591008078E+05,      /* J = 12 */
(PID.TID 0000.0001)                 2.924298293668651E+05,      /* J = 13 */
(PID.TID 0000.0001)                 2.963715635865306E+05,      /* J = 14 */
(PID.TID 0000.0001)                 2.991805843171258E+05,      /* J = 15 */
(PID.TID 0000.0001)                 3.008638765647886E+05,      /* J = 16 */
(PID.TID 0000.0001)                 3.014246674484008E+05,      /* J = 17 */
(PID.TID 0000.0001)                 3.008638765647886E+05,      /* J = 18 */
(PID.TID 0000.0001)                 2.991805843171258E+05,      /* J = 19 */
(PID.TID 0000.0001)                 2.963715635865306E+05,      /* J = 20 */
(PID.TID 0000.0001)                 2.924298293668651E+05,      /* J = 21 */
(PID.TID 0000.0001)                 2.873420591008078E+05,      /* J = 22 */
(PID.TID 0000.0001)                 2.810845823202647E+05,      /* J = 23 */
(PID.TID 0000.0001)                 2.736173771018112E+05,      /* J = 24 */
(PID.TID 0000.0001)                 2.648750305193301E+05,      /* J = 25 */
(PID.TID 0000.0001)                 2.547526806712889E+05,      /* J = 26 */
(PID.TID 0000.0001)                 2.430829951739083E+05,      /* J = 27 */
(PID.TID 0000.0001)                 2.295958105911512E+05,      /* J = 28 */
(PID.TID 0000.0001)                 2.138410773065497E+05,      /* J = 29 */
(PID.TID 0000.0001)                 1.950254041626018E+05,      /* J = 30 */
(PID.TID 0000.0001)                 1.716197227386011E+05,      /* J = 31 */
(PID.TID 0000.0001)                 1.403701524205398E+05       /* J = 32 */
(PID.TID 0000.0001)     ;
(PID.TID 0000.0001) dyG =  /* dyG(:,1,:,1) ( units: m ) */
(PID.TID 0000.0001)                 1.009837800879055E+05,      /* I =  1 */
(PID.TID 0000.0001)                 1.403701524205398E+05,      /* I =  2 */
(PID.TID 0000.0001)                 1.716197227386011E+05,      /* I =  3 */
(PID.TID 0000.0001)      . . .
(PID.TID 0000.0001)                 2.963715635865306E+05,      /* I = 46 */
(PID.TID 0000.0001)                 2.991805843171258E+05,      /* I = 47 */
(PID.TID 0000.0001)                 3.008638765647886E+05,      /* I = 48 */
(PID.TID 0000.0001)                 3.014246674484008E+05,      /* I = 49 */
(PID.TID 0000.0001)                 3.008638765647886E+05,      /* I = 50 */
(PID.TID 0000.0001)                 2.991805843171258E+05,      /* I = 51 */
(PID.TID 0000.0001)      . . .
(PID.TID 0000.0001)                 1.950254041626018E+05,      /* I = 94 */
(PID.TID 0000.0001)                 1.716197227386011E+05,      /* I = 95 */
(PID.TID 0000.0001)                 1.403701524205398E+05,      /* I = 96 */
(PID.TID 0000.0001)                 1.009837800879055E+05,      /* I = 97 */
(PID.TID 0000.0001)                 1.403701524205398E+05,      /* I = 98 */
(PID.TID 0000.0001)                 1.716197227386011E+05,      /* I = 99 */
(PID.TID 0000.0001)      . . .
(PID.TID 0000.0001)                 2.963715635865306E+05,      /* I =142 */
(PID.TID 0000.0001)                 2.991805843171258E+05,      /* I =143 */
(PID.TID 0000.0001)                 3.008638765647886E+05,      /* I =144 */
(PID.TID 0000.0001)                 3.014246674484008E+05,      /* I =145 */
(PID.TID 0000.0001)                 3.008638765647886E+05,      /* I =146 */
(PID.TID 0000.0001)                 2.991805843171258E+05,      /* I =147 */
(PID.TID 0000.0001)      . . .
(PID.TID 0000.0001)                 1.950254041626018E+05,      /* I =190 */
(PID.TID 0000.0001)                 1.716197227386011E+05,      /* I =191 */
(PID.TID 0000.0001)                 1.403701524205398E+05       /* I =192 */
(PID.TID 0000.0001)     ;
(PID.TID 0000.0001) dyG =  /* dyG(1,:,1,:) ( units: m ) */
(PID.TID 0000.0001)                 1.009837800879055E+05,      /* J =  1 */
(PID.TID 0000.0001)                 1.534505834330338E+05,      /* J =  2 */
(PID.TID 0000.0001)                 1.823321598773926E+05,      /* J =  3 */
(PID.TID 0000.0001)                 2.038999045536999E+05,      /* J =  4 */
(PID.TID 0000.0001)                 2.213884732245467E+05,      /* J =  5 */
(PID.TID 0000.0001)                 2.361211699596122E+05,      /* J =  6 */
(PID.TID 0000.0001)                 2.487693460283865E+05,      /* J =  7 */
(PID.TID 0000.0001)                 2.597126963772147E+05,      /* J =  8 */
(PID.TID 0000.0001)                 2.691790288994575E+05,      /* J =  9 */
(PID.TID 0000.0001)                 2.773091043277394E+05,      /* J = 10 */
(PID.TID 0000.0001)                 2.841906470085516E+05,      /* J = 11 */
(PID.TID 0000.0001)                 2.898778860929753E+05,      /* J = 12 */
(PID.TID 0000.0001)                 2.944035815526416E+05,      /* J = 13 */
(PID.TID 0000.0001)                 2.977867909042096E+05,      /* J = 14 */
(PID.TID 0000.0001)                 3.000380090330854E+05,      /* J = 15 */
(PID.TID 0000.0001)     2 @  3.011625828699101E+05,             /* J = 16: 17 */
(PID.TID 0000.0001)                 3.000380090330854E+05,      /* J = 18 */
(PID.TID 0000.0001)                 2.977867909042096E+05,      /* J = 19 */
(PID.TID 0000.0001)                 2.944035815526416E+05,      /* J = 20 */
(PID.TID 0000.0001)                 2.898778860929753E+05,      /* J = 21 */
(PID.TID 0000.0001)                 2.841906470085516E+05,      /* J = 22 */
(PID.TID 0000.0001)                 2.773091043277394E+05,      /* J = 23 */
(PID.TID 0000.0001)                 2.691790288994575E+05,      /* J = 24 */
(PID.TID 0000.0001)                 2.597126963772147E+05,      /* J = 25 */
(PID.TID 0000.0001)                 2.487693460283865E+05,      /* J = 26 */
(PID.TID 0000.0001)                 2.361211699596122E+05,      /* J = 27 */
(PID.TID 0000.0001)                 2.213884732245467E+05,      /* J = 28 */
(PID.TID 0000.0001)                 2.038999045536999E+05,      /* J = 29 */
(PID.TID 0000.0001)                 1.823321598773926E+05,      /* J = 30 */
(PID.TID 0000.0001)                 1.534505834330338E+05,      /* J = 31 */
(PID.TID 0000.0001)                 1.009837800879055E+05       /* J = 32 */
(PID.TID 0000.0001)     ;
(PID.TID 0000.0001) dxC =  /* dxC(:,1,:,1) ( units: m ) */
(PID.TID 0000.0001)                 1.114203141013064E+05,      /* I =  1 */
(PID.TID 0000.0001)                 1.391343389937106E+05,      /* I =  2 */
(PID.TID 0000.0001)                 1.709574999026266E+05,      /* I =  3 */
(PID.TID 0000.0001)      . . .
(PID.TID 0000.0001)                 2.963038832565530E+05,      /* I = 46 */
(PID.TID 0000.0001)                 2.991142470004740E+05,      /* I = 47 */
(PID.TID 0000.0001)                 3.007982711627968E+05,      /* I = 48 */
(PID.TID 0000.0001)                 3.013593857228136E+05,      /* I = 49 */
(PID.TID 0000.0001)                 3.007982711627968E+05,      /* I = 50 */
(PID.TID 0000.0001)                 2.991142470004740E+05,      /* I = 51 */
(PID.TID 0000.0001)      . . .
(PID.TID 0000.0001)                 1.946503699269892E+05,      /* I = 94 */
(PID.TID 0000.0001)                 1.709574999026266E+05,      /* I = 95 */
(PID.TID 0000.0001)                 1.391343389937106E+05,      /* I = 96 */
(PID.TID 0000.0001)                 1.114203141013064E+05,      /* I = 97 */
(PID.TID 0000.0001)                 1.391343389937106E+05,      /* I = 98 */
(PID.TID 0000.0001)                 1.709574999026266E+05,      /* I = 99 */
(PID.TID 0000.0001)      . . .
(PID.TID 0000.0001)                 2.963038832565530E+05,      /* I =142 */
(PID.TID 0000.0001)                 2.991142470004740E+05,      /* I =143 */
(PID.TID 0000.0001)                 3.007982711627968E+05,      /* I =144 */
(PID.TID 0000.0001)                 3.013593857228136E+05,      /* I =145 */
(PID.TID 0000.0001)                 3.007982711627968E+05,      /* I =146 */
(PID.TID 0000.0001)                 2.991142470004740E+05,      /* I =147 */
(PID.TID 0000.0001)      . . .
(PID.TID 0000.0001)                 1.946503699269892E+05,      /* I =190 */
(PID.TID 0000.0001)                 1.709574999026266E+05,      /* I =191 */
(PID.TID 0000.0001)                 1.391343389937106E+05       /* I =192 */
(PID.TID 0000.0001)     ;
(PID.TID 0000.0001) dxC =  /* dxC(1,:,1,:) ( units: m ) */
(PID.TID 0000.0001)                 1.114203141013064E+05,      /* J =  1 */
(PID.TID 0000.0001)                 1.549545757850771E+05,      /* J =  2 */
(PID.TID 0000.0001)                 1.829777599966776E+05,      /* J =  3 */
(PID.TID 0000.0001)                 2.042717761866506E+05,      /* J =  4 */
(PID.TID 0000.0001)                 2.216367828252819E+05,      /* J =  5 */
(PID.TID 0000.0001)                 2.363029564123586E+05,      /* J =  6 */
(PID.TID 0000.0001)                 2.489113743322025E+05,      /* J =  7 */
(PID.TID 0000.0001)                 2.598293319150326E+05,      /* J =  8 */
(PID.TID 0000.0001)                 2.692787333338535E+05,      /* J =  9 */
(PID.TID 0000.0001)                 2.773972106720365E+05,      /* J = 10 */
(PID.TID 0000.0001)                 2.842706922224557E+05,      /* J = 11 */
(PID.TID 0000.0001)                 2.899523122489403E+05,      /* J = 12 */
(PID.TID 0000.0001)                 2.944741346384699E+05,      /* J = 13 */
(PID.TID 0000.0001)                 2.978547649292580E+05,      /* J = 14 */
(PID.TID 0000.0001)                 3.001044073506459E+05,      /* J = 15 */
(PID.TID 0000.0001)     2 @  3.012281885409289E+05,             /* J = 16: 17 */
(PID.TID 0000.0001)                 3.001044073506459E+05,      /* J = 18 */
(PID.TID 0000.0001)                 2.978547649292580E+05,      /* J = 19 */
(PID.TID 0000.0001)                 2.944741346384699E+05,      /* J = 20 */
(PID.TID 0000.0001)                 2.899523122489403E+05,      /* J = 21 */
(PID.TID 0000.0001)                 2.842706922224557E+05,      /* J = 22 */
(PID.TID 0000.0001)                 2.773972106720365E+05,      /* J = 23 */
(PID.TID 0000.0001)                 2.692787333338535E+05,      /* J = 24 */
(PID.TID 0000.0001)                 2.598293319150326E+05,      /* J = 25 */
(PID.TID 0000.0001)                 2.489113743322025E+05,      /* J = 26 */
(PID.TID 0000.0001)                 2.363029564123586E+05,      /* J = 27 */
(PID.TID 0000.0001)                 2.216367828252819E+05,      /* J = 28 */
(PID.TID 0000.0001)                 2.042717761866506E+05,      /* J = 29 */
(PID.TID 0000.0001)                 1.829777599966776E+05,      /* J = 30 */
(PID.TID 0000.0001)                 1.549545757850771E+05,      /* J = 31 */
(PID.TID 0000.0001)                 1.114203141013064E+05       /* J = 32 */
(PID.TID 0000.0001)     ;
(PID.TID 0000.0001) dyC =  /* dyC(:,1,:,1) ( units: m ) */
(PID.TID 0000.0001)                 1.114203141013064E+05,      /* I =  1 */
(PID.TID 0000.0001)                 1.549545757850771E+05,      /* I =  2 */
(PID.TID 0000.0001)                 1.829777599966776E+05,      /* I =  3 */
(PID.TID 0000.0001)      . . .
(PID.TID 0000.0001)                 2.978547649292580E+05,      /* I = 46 */
(PID.TID 0000.0001)                 3.001044073506459E+05,      /* I = 47 */
(PID.TID 0000.0001)                 3.012281885409289E+05,      /* I = 48 */
(PID.TID 0000.0001)                 3.012281885409289E+05,      /* I = 49 */
(PID.TID 0000.0001)                 3.001044073506459E+05,      /* I = 50 */
(PID.TID 0000.0001)                 2.978547649292580E+05,      /* I = 51 */
(PID.TID 0000.0001)      . . .
(PID.TID 0000.0001)                 1.829777599966776E+05,      /* I = 94 */
(PID.TID 0000.0001)                 1.549545757850771E+05,      /* I = 95 */
(PID.TID 0000.0001)                 1.114203141013064E+05,      /* I = 96 */
(PID.TID 0000.0001)                 1.114203141013064E+05,      /* I = 97 */
(PID.TID 0000.0001)                 1.549545757850771E+05,      /* I = 98 */
(PID.TID 0000.0001)                 1.829777599966776E+05,      /* I = 99 */
(PID.TID 0000.0001)      . . .
(PID.TID 0000.0001)                 2.978547649292580E+05,      /* I =142 */
(PID.TID 0000.0001)                 3.001044073506459E+05,      /* I =143 */
(PID.TID 0000.0001)                 3.012281885409289E+05,      /* I =144 */
(PID.TID 0000.0001)                 3.012281885409289E+05,      /* I =145 */
(PID.TID 0000.0001)                 3.001044073506459E+05,      /* I =146 */
(PID.TID 0000.0001)                 2.978547649292580E+05,      /* I =147 */
(PID.TID 0000.0001)      . . .
(PID.TID 0000.0001)                 1.829777599966776E+05,      /* I =190 */
(PID.TID 0000.0001)                 1.549545757850771E+05,      /* I =191 */
(PID.TID 0000.0001)                 1.114203141013064E+05       /* I =192 */
(PID.TID 0000.0001)     ;
(PID.TID 0000.0001) dyC =  /* dyC(1,:,1,:) ( units: m ) */
(PID.TID 0000.0001)                 1.114203141013064E+05,      /* J =  1 */
(PID.TID 0000.0001)                 1.391343389937106E+05,      /* J =  2 */
(PID.TID 0000.0001)                 1.709574999026266E+05,      /* J =  3 */
(PID.TID 0000.0001)                 1.946503699269892E+05,      /* J =  4 */
(PID.TID 0000.0001)                 2.135964483342134E+05,      /* J =  5 */
(PID.TID 0000.0001)                 2.294195678257306E+05,      /* J =  6 */
(PID.TID 0000.0001)                 2.429464709770498E+05,      /* J =  7 */
(PID.TID 0000.0001)                 2.546408290696998E+05,      /* J =  8 */
(PID.TID 0000.0001)                 2.647791839299727E+05,      /* J =  9 */
(PID.TID 0000.0001)                 2.735321911346108E+05,      /* J = 10 */
(PID.TID 0000.0001)                 2.810065951609633E+05,      /* J = 11 */
(PID.TID 0000.0001)                 2.872689479506990E+05,      /* J = 12 */
(PID.TID 0000.0001)                 2.923599955312932E+05,      /* J = 13 */
(PID.TID 0000.0001)                 2.963038832565530E+05,      /* J = 14 */
(PID.TID 0000.0001)                 2.991142470004740E+05,      /* J = 15 */
(PID.TID 0000.0001)                 3.007982711627968E+05,      /* J = 16 */
(PID.TID 0000.0001)                 3.013593857228136E+05,      /* J = 17 */
(PID.TID 0000.0001)                 3.007982711627968E+05,      /* J = 18 */
(PID.TID 0000.0001)                 2.991142470004740E+05,      /* J = 19 */
(PID.TID 0000.0001)                 2.963038832565530E+05,      /* J = 20 */
(PID.TID 0000.0001)                 2.923599955312932E+05,      /* J = 21 */
(PID.TID 0000.0001)                 2.872689479506990E+05,      /* J = 22 */
(PID.TID 0000.0001)                 2.810065951609633E+05,      /* J = 23 */
(PID.TID 0000.0001)                 2.735321911346108E+05,      /* J = 24 */
(PID.TID 0000.0001)                 2.647791839299727E+05,      /* J = 25 */
(PID.TID 0000.0001)                 2.546408290696998E+05,      /* J = 26 */
(PID.TID 0000.0001)                 2.429464709770498E+05,      /* J = 27 */
(PID.TID 0000.0001)                 2.294195678257306E+05,      /* J = 28 */
(PID.TID 0000.0001)                 2.135964483342134E+05,      /* J = 29 */
(PID.TID 0000.0001)                 1.946503699269892E+05,      /* J = 30 */
(PID.TID 0000.0001)                 1.709574999026266E+05,      /* J = 31 */
(PID.TID 0000.0001)                 1.391343389937106E+05       /* J = 32 */
(PID.TID 0000.0001)     ;
(PID.TID 0000.0001) dxV =  /* dxV(:,1,:,1) ( units: m ) */
(PID.TID 0000.0001)                 8.015229982413632E+04,      /* I =  1 */
(PID.TID 0000.0001)                 1.333130744933864E+05,      /* I =  2 */
(PID.TID 0000.0001)                 1.691744868129062E+05,      /* I =  3 */
(PID.TID 0000.0001)      . . .
(PID.TID 0000.0001)                 2.962371870847826E+05,      /* I = 46 */
(PID.TID 0000.0001)                 2.990534755671296E+05,      /* I = 47 */
(PID.TID 0000.0001)                 3.007409169495504E+05,      /* I = 48 */
(PID.TID 0000.0001)                 3.013031486919771E+05,      /* I = 49 */
(PID.TID 0000.0001)                 3.007409169495504E+05,      /* I = 50 */
(PID.TID 0000.0001)                 2.990534755671296E+05,      /* I = 51 */
(PID.TID 0000.0001)      . . .
(PID.TID 0000.0001)                 1.937548202849060E+05,      /* I = 94 */
(PID.TID 0000.0001)                 1.691744868129062E+05,      /* I = 95 */
(PID.TID 0000.0001)                 1.333130744933864E+05,      /* I = 96 */
(PID.TID 0000.0001)                 8.015229982413632E+04,      /* I = 97 */
(PID.TID 0000.0001)                 1.333130744933864E+05,      /* I = 98 */
(PID.TID 0000.0001)                 1.691744868129062E+05,      /* I = 99 */
(PID.TID 0000.0001)      . . .
(PID.TID 0000.0001)                 2.962371870847826E+05,      /* I =142 */
(PID.TID 0000.0001)                 2.990534755671296E+05,      /* I =143 */
(PID.TID 0000.0001)                 3.007409169495504E+05,      /* I =144 */
(PID.TID 0000.0001)                 3.013031486919771E+05,      /* I =145 */
(PID.TID 0000.0001)                 3.007409169495504E+05,      /* I =146 */
(PID.TID 0000.0001)                 2.990534755671296E+05,      /* I =147 */
(PID.TID 0000.0001)      . . .
(PID.TID 0000.0001)                 1.937548202849060E+05,      /* I =190 */
(PID.TID 0000.0001)                 1.691744868129062E+05,      /* I =191 */
(PID.TID 0000.0001)                 1.333130744933864E+05       /* I =192 */
(PID.TID 0000.0001)     ;
(PID.TID 0000.0001) dxV =  /* dxV(1,:,1,:) ( units: m ) */
(PID.TID 0000.0001)                 8.015229982413632E+04,      /* J =  1 */
(PID.TID 0000.0001)                 1.362652340208229E+05,      /* J =  2 */
(PID.TID 0000.0001)                 1.701080315742101E+05,      /* J =  3 */
(PID.TID 0000.0001)                 1.942331448101592E+05,      /* J =  4 */
(PID.TID 0000.0001)                 2.133486626971531E+05,      /* J =  5 */
(PID.TID 0000.0001)                 2.292584591272880E+05,      /* J =  6 */
(PID.TID 0000.0001)                 2.428369969078989E+05,      /* J =  7 */
(PID.TID 0000.0001)                 2.545652950875683E+05,      /* J =  8 */
(PID.TID 0000.0001)                 2.647274964828301E+05,      /* J =  9 */
(PID.TID 0000.0001)                 2.734980225206389E+05,      /* J = 10 */
(PID.TID 0000.0001)                 2.809856491525217E+05,      /* J = 11 */
(PID.TID 0000.0001)                 2.872580915202295E+05,      /* J = 12 */
(PID.TID 0000.0001)                 2.923567890694162E+05,      /* J = 13 */
(PID.TID 0000.0001)                 2.963063101754721E+05,      /* J = 14 */
(PID.TID 0000.0001)                 2.991205495886625E+05,      /* J = 15 */
(PID.TID 0000.0001)                 3.008068453676764E+05,      /* J = 16 */
(PID.TID 0000.0001)                 3.013686170436881E+05,      /* J = 17 */
(PID.TID 0000.0001)                 3.008068453676764E+05,      /* J = 18 */
(PID.TID 0000.0001)                 2.991205495886625E+05,      /* J = 19 */
(PID.TID 0000.0001)                 2.963063101754721E+05,      /* J = 20 */
(PID.TID 0000.0001)                 2.923567890694162E+05,      /* J = 21 */
(PID.TID 0000.0001)                 2.872580915202295E+05,      /* J = 22 */
(PID.TID 0000.0001)                 2.809856491525217E+05,      /* J = 23 */
(PID.TID 0000.0001)                 2.734980225206389E+05,      /* J = 24 */
(PID.TID 0000.0001)                 2.647274964828301E+05,      /* J = 25 */
(PID.TID 0000.0001)                 2.545652950875683E+05,      /* J = 26 */
(PID.TID 0000.0001)                 2.428369969078989E+05,      /* J = 27 */
(PID.TID 0000.0001)                 2.292584591272880E+05,      /* J = 28 */
(PID.TID 0000.0001)                 2.133486626971531E+05,      /* J = 29 */
(PID.TID 0000.0001)                 1.942331448101592E+05,      /* J = 30 */
(PID.TID 0000.0001)                 1.701080315742101E+05,      /* J = 31 */
(PID.TID 0000.0001)                 1.362652340208229E+05       /* J = 32 */
(PID.TID 0000.0001)     ;
(PID.TID 0000.0001) dyU =  /* dyU(:,1,:,1) ( units: m ) */
(PID.TID 0000.0001)                 8.015229982413632E+04,      /* I =  1 */
(PID.TID 0000.0001)                 1.362652340208229E+05,      /* I =  2 */
(PID.TID 0000.0001)                 1.701080315742101E+05,      /* I =  3 */
(PID.TID 0000.0001)      . . .
(PID.TID 0000.0001)                 2.963063101754721E+05,      /* I = 46 */
(PID.TID 0000.0001)                 2.991205495886625E+05,      /* I = 47 */
(PID.TID 0000.0001)                 3.008068453676764E+05,      /* I = 48 */
(PID.TID 0000.0001)                 3.013686170436881E+05,      /* I = 49 */
(PID.TID 0000.0001)                 3.008068453676764E+05,      /* I = 50 */
(PID.TID 0000.0001)                 2.991205495886625E+05,      /* I = 51 */
(PID.TID 0000.0001)      . . .
(PID.TID 0000.0001)                 1.942331448101592E+05,      /* I = 94 */
(PID.TID 0000.0001)                 1.701080315742101E+05,      /* I = 95 */
(PID.TID 0000.0001)                 1.362652340208229E+05,      /* I = 96 */
(PID.TID 0000.0001)                 8.015229982413632E+04,      /* I = 97 */
(PID.TID 0000.0001)                 1.362652340208229E+05,      /* I = 98 */
(PID.TID 0000.0001)                 1.701080315742101E+05,      /* I = 99 */
(PID.TID 0000.0001)      . . .
(PID.TID 0000.0001)                 2.963063101754721E+05,      /* I =142 */
(PID.TID 0000.0001)                 2.991205495886625E+05,      /* I =143 */
(PID.TID 0000.0001)                 3.008068453676764E+05,      /* I =144 */
(PID.TID 0000.0001)                 3.013686170436881E+05,      /* I =145 */
(PID.TID 0000.0001)                 3.008068453676764E+05,      /* I =146 */
(PID.TID 0000.0001)                 2.991205495886625E+05,      /* I =147 */
(PID.TID 0000.0001)      . . .
(PID.TID 0000.0001)                 1.942331448101592E+05,      /* I =190 */
(PID.TID 0000.0001)                 1.701080315742101E+05,      /* I =191 */
(PID.TID 0000.0001)                 1.362652340208229E+05       /* I =192 */
(PID.TID 0000.0001)     ;
(PID.TID 0000.0001) dyU =  /* dyU(1,:,1,:) ( units: m ) */
(PID.TID 0000.0001)                 8.015229982413632E+04,      /* J =  1 */
(PID.TID 0000.0001)                 1.333130744933864E+05,      /* J =  2 */
(PID.TID 0000.0001)                 1.691744868129062E+05,      /* J =  3 */
(PID.TID 0000.0001)                 1.937548202849060E+05,      /* J =  4 */
(PID.TID 0000.0001)                 2.130490056267208E+05,      /* J =  5 */
(PID.TID 0000.0001)                 2.290479919481738E+05,      /* J =  6 */
(PID.TID 0000.0001)                 2.426774358027003E+05,      /* J =  7 */
(PID.TID 0000.0001)                 2.544372984215561E+05,      /* J =  8 */
(PID.TID 0000.0001)                 2.646201463834826E+05,      /* J =  9 */
(PID.TID 0000.0001)                 2.734046499619031E+05,      /* J = 10 */
(PID.TID 0000.0001)                 2.809019351693761E+05,      /* J = 11 */
(PID.TID 0000.0001)                 2.871811105274442E+05,      /* J = 12 */
(PID.TID 0000.0001)                 2.922844849381675E+05,      /* J = 13 */
(PID.TID 0000.0001)                 2.962371870847826E+05,      /* J = 14 */
(PID.TID 0000.0001)                 2.990534755671296E+05,      /* J = 15 */
(PID.TID 0000.0001)                 3.007409169495504E+05,      /* J = 16 */
(PID.TID 0000.0001)                 3.013031486919771E+05,      /* J = 17 */
(PID.TID 0000.0001)                 3.007409169495504E+05,      /* J = 18 */
(PID.TID 0000.0001)                 2.990534755671296E+05,      /* J = 19 */
(PID.TID 0000.0001)                 2.962371870847826E+05,      /* J = 20 */
(PID.TID 0000.0001)                 2.922844849381675E+05,      /* J = 21 */
(PID.TID 0000.0001)                 2.871811105274442E+05,      /* J = 22 */
(PID.TID 0000.0001)                 2.809019351693761E+05,      /* J = 23 */
(PID.TID 0000.0001)                 2.734046499619031E+05,      /* J = 24 */
(PID.TID 0000.0001)                 2.646201463834826E+05,      /* J = 25 */
(PID.TID 0000.0001)                 2.544372984215561E+05,      /* J = 26 */
(PID.TID 0000.0001)                 2.426774358027003E+05,      /* J = 27 */
(PID.TID 0000.0001)                 2.290479919481738E+05,      /* J = 28 */
(PID.TID 0000.0001)                 2.130490056267208E+05,      /* J = 29 */
(PID.TID 0000.0001)                 1.937548202849060E+05,      /* J = 30 */
(PID.TID 0000.0001)                 1.691744868129062E+05,      /* J = 31 */
(PID.TID 0000.0001)                 1.333130744933864E+05       /* J = 32 */
(PID.TID 0000.0001)     ;
(PID.TID 0000.0001) rA  =  /* rA (:,1,:,1) ( units: m^2 ) */
(PID.TID 0000.0001)                 1.401900702255611E+10,      /* I =  1 */
(PID.TID 0000.0001)                 2.459906945574446E+10,      /* I =  2 */
(PID.TID 0000.0001)                 3.378518544307869E+10,      /* I =  3 */
(PID.TID 0000.0001)      . . .
(PID.TID 0000.0001)                 8.874277443041928E+10,      /* I = 46 */
(PID.TID 0000.0001)                 9.008620045350865E+10,      /* I = 47 */
(PID.TID 0000.0001)                 9.076111290418457E+10,      /* I = 48 */
(PID.TID 0000.0001)                 9.076111290422060E+10,      /* I = 49 */
(PID.TID 0000.0001)                 9.008620045354469E+10,      /* I = 50 */
(PID.TID 0000.0001)                 8.874277443041928E+10,      /* I = 51 */
(PID.TID 0000.0001)      . . .
(PID.TID 0000.0001)                 3.378518544304265E+10,      /* I = 94 */
(PID.TID 0000.0001)                 2.459906945574446E+10,      /* I = 95 */
(PID.TID 0000.0001)                 1.401900702259215E+10,      /* I = 96 */
(PID.TID 0000.0001)                 1.401900702255611E+10,      /* I = 97 */
(PID.TID 0000.0001)                 2.459906945574446E+10,      /* I = 98 */
(PID.TID 0000.0001)                 3.378518544307869E+10,      /* I = 99 */
(PID.TID 0000.0001)      . . .
(PID.TID 0000.0001)                 8.874277443041928E+10,      /* I =142 */
(PID.TID 0000.0001)                 9.008620045350865E+10,      /* I =143 */
(PID.TID 0000.0001)                 9.076111290418457E+10,      /* I =144 */
(PID.TID 0000.0001)                 9.076111290422060E+10,      /* I =145 */
(PID.TID 0000.0001)                 9.008620045354469E+10,      /* I =146 */
(PID.TID 0000.0001)                 8.874277443041928E+10,      /* I =147 */
(PID.TID 0000.0001)      . . .
(PID.TID 0000.0001)                 3.378518544304265E+10,      /* I =190 */
(PID.TID 0000.0001)                 2.459906945574446E+10,      /* I =191 */
(PID.TID 0000.0001)                 1.401900702259215E+10       /* I =192 */
(PID.TID 0000.0001)     ;
(PID.TID 0000.0001) rA  =  /* rA (1,:,1,:) ( units: m^2 ) */
(PID.TID 0000.0001)                 1.401900702255611E+10,      /* J =  1 */
(PID.TID 0000.0001)                 2.459906945574446E+10,      /* J =  2 */
(PID.TID 0000.0001)                 3.378518544307869E+10,      /* J =  3 */
(PID.TID 0000.0001)                 4.192037169898667E+10,      /* J =  4 */
(PID.TID 0000.0001)                 4.925938996118163E+10,      /* J =  5 */
(PID.TID 0000.0001)                 5.594154126607553E+10,      /* J =  6 */
(PID.TID 0000.0001)                 6.203683527776127E+10,      /* J =  7 */
(PID.TID 0000.0001)                 6.757541173817516E+10,      /* J =  8 */
(PID.TID 0000.0001)                 7.256353271748119E+10,      /* J =  9 */
(PID.TID 0000.0001)                 7.699293007098555E+10,      /* J = 10 */
(PID.TID 0000.0001)                 8.084683449728902E+10,      /* J = 11 */
(PID.TID 0000.0001)                 8.410423102799828E+10,      /* J = 12 */
(PID.TID 0000.0001)                 8.674306976737517E+10,      /* J = 13 */
(PID.TID 0000.0001)                 8.874277443041928E+10,      /* J = 14 */
(PID.TID 0000.0001)                 9.008620045350865E+10,      /* J = 15 */
(PID.TID 0000.0001)                 9.076111290418457E+10,      /* J = 16 */
(PID.TID 0000.0001)                 9.076111290422060E+10,      /* J = 17 */
(PID.TID 0000.0001)                 9.008620045354469E+10,      /* J = 18 */
(PID.TID 0000.0001)                 8.874277443041928E+10,      /* J = 19 */
(PID.TID 0000.0001)                 8.674306976737517E+10,      /* J = 20 */
(PID.TID 0000.0001)                 8.410423102799828E+10,      /* J = 21 */
(PID.TID 0000.0001)                 8.084683449728902E+10,      /* J = 22 */
(PID.TID 0000.0001)                 7.699293007098555E+10,      /* J = 23 */
(PID.TID 0000.0001)                 7.256353271748119E+10,      /* J = 24 */
(PID.TID 0000.0001)                 6.757541173817516E+10,      /* J = 25 */
(PID.TID 0000.0001)                 6.203683527772523E+10,      /* J = 26 */
(PID.TID 0000.0001)                 5.594154126607553E+10,      /* J = 27 */
(PID.TID 0000.0001)                 4.925938996118163E+10,      /* J = 28 */
(PID.TID 0000.0001)                 4.192037169898667E+10,      /* J = 29 */
(PID.TID 0000.0001)                 3.378518544307869E+10,      /* J = 30 */
(PID.TID 0000.0001)                 2.459906945574446E+10,      /* J = 31 */
(PID.TID 0000.0001)                 1.401900702259215E+10       /* J = 32 */
(PID.TID 0000.0001)     ;
(PID.TID 0000.0001) rAw =  /* rAw(:,1,:,1) ( units: m^2 ) */
(PID.TID 0000.0001)                 1.216690346714270E+10,      /* I =  1 */
(PID.TID 0000.0001)                 1.974052138506315E+10,      /* I =  2 */
(PID.TID 0000.0001)                 2.943712825252015E+10,      /* I =  3 */
(PID.TID 0000.0001)      . . .
(PID.TID 0000.0001)                 8.781353403175085E+10,      /* I = 46 */
(PID.TID 0000.0001)                 8.948571540392021E+10,      /* I = 47 */
(PID.TID 0000.0001)                 9.049530583086168E+10,      /* I = 48 */
(PID.TID 0000.0001)                 9.083293515008307E+10,      /* I = 49 */
(PID.TID 0000.0001)                 9.049530583087070E+10,      /* I = 50 */
(PID.TID 0000.0001)                 8.948571540391121E+10,      /* I = 51 */
(PID.TID 0000.0001)      . . .
(PID.TID 0000.0001)                 3.801790263325260E+10,      /* I = 94 */
(PID.TID 0000.0001)                 2.943712825251114E+10,      /* I = 95 */
(PID.TID 0000.0001)                 1.974052138509018E+10,      /* I = 96 */
(PID.TID 0000.0001)                 1.216690346714270E+10,      /* I = 97 */
(PID.TID 0000.0001)                 1.974052138506315E+10,      /* I = 98 */
(PID.TID 0000.0001)                 2.943712825252015E+10,      /* I = 99 */
(PID.TID 0000.0001)      . . .
(PID.TID 0000.0001)                 8.781353403175085E+10,      /* I =142 */
(PID.TID 0000.0001)                 8.948571540392021E+10,      /* I =143 */
(PID.TID 0000.0001)                 9.049530583086168E+10,      /* I =144 */
(PID.TID 0000.0001)                 9.083293515008307E+10,      /* I =145 */
(PID.TID 0000.0001)                 9.049530583087070E+10,      /* I =146 */
(PID.TID 0000.0001)                 8.948571540391121E+10,      /* I =147 */
(PID.TID 0000.0001)      . . .
(PID.TID 0000.0001)                 3.801790263325260E+10,      /* I =190 */
(PID.TID 0000.0001)                 2.943712825251114E+10,      /* I =191 */
(PID.TID 0000.0001)                 1.974052138509018E+10       /* I =192 */
(PID.TID 0000.0001)     ;
(PID.TID 0000.0001) rAw =  /* rAw(1,:,1,:) ( units: m^2 ) */
(PID.TID 0000.0001)                 1.216690346714270E+10,      /* J =  1 */
(PID.TID 0000.0001)                 2.390126200743558E+10,      /* J =  2 */
(PID.TID 0000.0001)                 3.341968103208270E+10,      /* J =  3 */
(PID.TID 0000.0001)                 4.168532893152940E+10,      /* J =  4 */
(PID.TID 0000.0001)                 4.909074590409593E+10,      /* J =  5 */
(PID.TID 0000.0001)                 5.581203765722643E+10,      /* J =  6 */
(PID.TID 0000.0001)                 6.193257577506788E+10,      /* J =  7 */
(PID.TID 0000.0001)                 6.748840226738273E+10,      /* J =  8 */
(PID.TID 0000.0001)                 7.248875782324815E+10,      /* J =  9 */
(PID.TID 0000.0001)                 7.692702995909871E+10,      /* J = 10 */
(PID.TID 0000.0001)                 8.078743937057304E+10,      /* J = 11 */
(PID.TID 0000.0001)                 8.404959656062837E+10,      /* J = 12 */
(PID.TID 0000.0001)                 8.669186205742538E+10,      /* J = 13 */
(PID.TID 0000.0001)                 8.869393350723613E+10,      /* J = 14 */
(PID.TID 0000.0001)                 9.003884657168852E+10,      /* J = 15 */
(PID.TID 0000.0001)     2 @  9.071447638299399E+10,             /* J = 16: 17 */
(PID.TID 0000.0001)                 9.003884657168852E+10,      /* J = 18 */
(PID.TID 0000.0001)                 8.869393350723613E+10,      /* J = 19 */
(PID.TID 0000.0001)                 8.669186205742538E+10,      /* J = 20 */
(PID.TID 0000.0001)                 8.404959656062837E+10,      /* J = 21 */
(PID.TID 0000.0001)                 8.078743937057304E+10,      /* J = 22 */
(PID.TID 0000.0001)                 7.692702995909871E+10,      /* J = 23 */
(PID.TID 0000.0001)                 7.248875782324815E+10,      /* J = 24 */
(PID.TID 0000.0001)                 6.748840226738273E+10,      /* J = 25 */
(PID.TID 0000.0001)                 6.193257577506788E+10,      /* J = 26 */
(PID.TID 0000.0001)                 5.581203765722643E+10,      /* J = 27 */
(PID.TID 0000.0001)                 4.909074590409593E+10,      /* J = 28 */
(PID.TID 0000.0001)                 4.168532893152940E+10,      /* J = 29 */
(PID.TID 0000.0001)                 3.341968103208270E+10,      /* J = 30 */
(PID.TID 0000.0001)                 2.390126200743558E+10,      /* J = 31 */
(PID.TID 0000.0001)                 1.216690346714270E+10       /* J = 32 */
(PID.TID 0000.0001)     ;
(PID.TID 0000.0001) rAs =  /* rAs(:,1,:,1) ( units: m^2 ) */
(PID.TID 0000.0001)                 1.216690346714270E+10,      /* I =  1 */
(PID.TID 0000.0001)                 2.390126200743558E+10,      /* I =  2 */
(PID.TID 0000.0001)                 3.341968103208270E+10,      /* I =  3 */
(PID.TID 0000.0001)      . . .
(PID.TID 0000.0001)                 8.869393350723613E+10,      /* I = 46 */
(PID.TID 0000.0001)                 9.003884657168852E+10,      /* I = 47 */
(PID.TID 0000.0001)                 9.071447638299399E+10,      /* I = 48 */
(PID.TID 0000.0001)                 9.071447638299399E+10,      /* I = 49 */
(PID.TID 0000.0001)                 9.003884657168852E+10,      /* I = 50 */
(PID.TID 0000.0001)                 8.869393350723613E+10,      /* I = 51 */
(PID.TID 0000.0001)      . . .
(PID.TID 0000.0001)                 3.341968103208270E+10,      /* I = 94 */
(PID.TID 0000.0001)                 2.390126200743558E+10,      /* I = 95 */
(PID.TID 0000.0001)                 1.216690346714270E+10,      /* I = 96 */
(PID.TID 0000.0001)                 1.216690346714270E+10,      /* I = 97 */
(PID.TID 0000.0001)                 2.390126200743558E+10,      /* I = 98 */
(PID.TID 0000.0001)                 3.341968103208270E+10,      /* I = 99 */
(PID.TID 0000.0001)      . . .
(PID.TID 0000.0001)                 8.869393350723613E+10,      /* I =142 */
(PID.TID 0000.0001)                 9.003884657168852E+10,      /* I =143 */
(PID.TID 0000.0001)                 9.071447638299399E+10,      /* I =144 */
(PID.TID 0000.0001)                 9.071447638299399E+10,      /* I =145 */
(PID.TID 0000.0001)                 9.003884657168852E+10,      /* I =146 */
(PID.TID 0000.0001)                 8.869393350723613E+10,      /* I =147 */
(PID.TID 0000.0001)      . . .
(PID.TID 0000.0001)                 3.341968103208270E+10,      /* I =190 */
(PID.TID 0000.0001)                 2.390126200743558E+10,      /* I =191 */
(PID.TID 0000.0001)                 1.216690346714270E+10       /* I =192 */
(PID.TID 0000.0001)     ;
(PID.TID 0000.0001) rAs =  /* rAs(1,:,1,:) ( units: m^2 ) */
(PID.TID 0000.0001)                 1.216690346714270E+10,      /* J =  1 */
(PID.TID 0000.0001)                 1.974052138506315E+10,      /* J =  2 */
(PID.TID 0000.0001)                 2.943712825252015E+10,      /* J =  3 */
(PID.TID 0000.0001)                 3.801790263324359E+10,      /* J =  4 */
(PID.TID 0000.0001)                 4.571243814189866E+10,      /* J =  5 */
(PID.TID 0000.0001)                 5.269930713599979E+10,      /* J =  6 */
(PID.TID 0000.0001)                 5.907428494299063E+10,      /* J =  7 */
(PID.TID 0000.0001)                 6.488320895111514E+10,      /* J =  8 */
(PID.TID 0000.0001)                 7.014205907741882E+10,      /* J =  9 */
(PID.TID 0000.0001)                 7.484854821847499E+10,      /* J = 10 */
(PID.TID 0000.0001)                 7.898934631431560E+10,      /* J = 11 */
(PID.TID 0000.0001)                 8.254500894894537E+10,      /* J = 12 */
(PID.TID 0000.0001)                 8.549360686473492E+10,      /* J = 13 */
(PID.TID 0000.0001)                 8.781353403175085E+10,      /* J = 14 */
(PID.TID 0000.0001)                 8.948571540392021E+10,      /* J = 15 */
(PID.TID 0000.0001)                 9.049530583086168E+10,      /* J = 16 */
(PID.TID 0000.0001)                 9.083293515008307E+10,      /* J = 17 */
(PID.TID 0000.0001)                 9.049530583087070E+10,      /* J = 18 */
(PID.TID 0000.0001)                 8.948571540391121E+10,      /* J = 19 */
(PID.TID 0000.0001)                 8.781353403174185E+10,      /* J = 20 */
(PID.TID 0000.0001)                 8.549360686467184E+10,      /* J = 21 */
(PID.TID 0000.0001)                 8.254500894890933E+10,      /* J = 22 */
(PID.TID 0000.0001)                 7.898934631434262E+10,      /* J = 23 */
(PID.TID 0000.0001)                 7.484854821844795E+10,      /* J = 24 */
(PID.TID 0000.0001)                 7.014205907742783E+10,      /* J = 25 */
(PID.TID 0000.0001)                 6.488320895111514E+10,      /* J = 26 */
(PID.TID 0000.0001)                 5.907428494299063E+10,      /* J = 27 */
(PID.TID 0000.0001)                 5.269930713599078E+10,      /* J = 28 */
(PID.TID 0000.0001)                 4.571243814190767E+10,      /* J = 29 */
(PID.TID 0000.0001)                 3.801790263325260E+10,      /* J = 30 */
(PID.TID 0000.0001)                 2.943712825251114E+10,      /* J = 31 */
(PID.TID 0000.0001)                 1.974052138509018E+10       /* J = 32 */
(PID.TID 0000.0001)     ;
(PID.TID 0000.0001) globalArea = /* Integrated horizontal Area (m^2) */
(PID.TID 0000.0001)                 3.638867375081598E+14
(PID.TID 0000.0001)     ;
(PID.TID 0000.0001) // =======================================================
(PID.TID 0000.0001) // End of Model config. summary
(PID.TID 0000.0001) // =======================================================
(PID.TID 0000.0001) 
(PID.TID 0000.0001) == Packages configuration : Check & print summary ==
(PID.TID 0000.0001) 
(PID.TID 0000.0001) GAD_CHECK: #define ALLOW_GENERIC_ADVDIFF
(PID.TID 0000.0001) GMREDI_CHECK: #define GMREDI
(PID.TID 0000.0001) GM_AdvForm =     /* if FALSE => use SkewFlux Form */
(PID.TID 0000.0001)                   F
(PID.TID 0000.0001)     ;
(PID.TID 0000.0001) GM_InMomAsStress = /* if TRUE => apply as Eddy Stress */
(PID.TID 0000.0001)                   F
(PID.TID 0000.0001)     ;
(PID.TID 0000.0001) GM_AdvSeparate = /* Calc Bolus & Euler Adv. separately */
(PID.TID 0000.0001)                   F
(PID.TID 0000.0001)     ;
(PID.TID 0000.0001) GM_ExtraDiag =   /* Tensor Extra Diag (line 1&2) non 0 */
(PID.TID 0000.0001)                   F
(PID.TID 0000.0001)     ;
(PID.TID 0000.0001) GM_isopycK =    /* Background Isopyc. Diffusivity [m^2/s] */
(PID.TID 0000.0001)                 1.000000000000000E+03
(PID.TID 0000.0001)     ;
(PID.TID 0000.0001) GM_skewflx*K =  /* Background GM_SkewFlx Diffusivity [m^2/s] */
(PID.TID 0000.0001)                 1.000000000000000E+03
(PID.TID 0000.0001)     ;
(PID.TID 0000.0001) GM_advec*K =    /* Backg. GM-Advec(=Bolus) Diffusivity [m^2/s]*/
(PID.TID 0000.0001)                 0.000000000000000E+00
(PID.TID 0000.0001)     ;
(PID.TID 0000.0001) GM_Kmin_horiz = /* Minimum Horizontal Diffusivity [m^2/s] */
(PID.TID 0000.0001)                 5.000000000000000E+01
(PID.TID 0000.0001)     ;
(PID.TID 0000.0001) GM_Visbeck_alpha = /* Visbeck alpha coeff. [-] */
(PID.TID 0000.0001)                 0.000000000000000E+00
(PID.TID 0000.0001)     ;
(PID.TID 0000.0001) GM_Small_Number =  /* epsilon used in slope calc */
(PID.TID 0000.0001)                 9.999999999999999E-21
(PID.TID 0000.0001)     ;
(PID.TID 0000.0001) GM_slopeSqCutoff = /* Slope^2 cut-off value */
(PID.TID 0000.0001)                 1.000000000000000E+08
(PID.TID 0000.0001)     ;
(PID.TID 0000.0001) GM_taper_scheme =  /* Type of Tapering/Clipping scheme */
(PID.TID 0000.0001)               'dm95                                    '
(PID.TID 0000.0001)     ;
(PID.TID 0000.0001) GM_maxSlope =  /* Maximum Slope (Tapering/Clipping) */
(PID.TID 0000.0001)                 1.000000000000000E-02
(PID.TID 0000.0001)     ;
(PID.TID 0000.0001) GM_facTrL2dz = /* Minimum Trans.Layer Thick. (factor of dz) */
(PID.TID 0000.0001)                 1.000000000000000E+00
(PID.TID 0000.0001)     ;
(PID.TID 0000.0001) GM_facTrL2ML = /* Max.Trans.Layer Thick. (factor of MxL Depth)*/
(PID.TID 0000.0001)                 5.000000000000000E+00
(PID.TID 0000.0001)     ;
(PID.TID 0000.0001) GM_maxTransLay = /* Maximum Transition Layer Thickness [m] */
(PID.TID 0000.0001)                 5.000000000000000E+02
(PID.TID 0000.0001)     ;
(PID.TID 0000.0001) CTRL_CHECK: ctrl package
(PID.TID 0000.0001) COST_CHECK: cost package
(PID.TID 0000.0001) GRDCHK_CHECK: grdchk package
(PID.TID 0000.0001) // =======================================================
(PID.TID 0000.0001) // CONFIG_CHECK : Normal End
(PID.TID 0000.0001) // =======================================================
(PID.TID 0000.0001) 
(PID.TID 0000.0001)  MDS_READ_FIELD: opening global file: bathy_Hmin50.bin
(PID.TID 0000.0001) // =======================================================
(PID.TID 0000.0001) // Field Model R_low (ini_masks_etc) at iteration          1
(PID.TID 0000.0001) // CMIN =         -5.200000000000000E+03
(PID.TID 0000.0001) // CMAX =         -5.000000000000000E+01
(PID.TID 0000.0001) // CINT =          1.907407407407407E+02
(PID.TID 0000.0001) // SYMBOLS (CMIN->CMAX): -abcdefghijklmnopqrstuvwxyz+
(PID.TID 0000.0001) //                  0.0: .
(PID.TID 0000.0001) // RANGE I (Lo:Hi:Step):(    -3:   196:     1)
(PID.TID 0000.0001) // RANGE J (Lo:Hi:Step):(    36:    -3:    -1)
(PID.TID 0000.0001) // RANGE K (Lo:Hi:Step):(   1:   1:   1)
(PID.TID 0000.0001) // =======================================================
(PID.TID 0000.0001) K =   1
(PID.TID 0000.0001) //                I=6       I=16      I=26      I=36      I=38      I=48      I=58      I=68      I=70      I=80      I=90      I=100     I=102     I=112     I=122     I=132     I=134     I=144     I=154     I=164     I=166     I=176     I=186     I=196
(PID.TID 0000.0001) // |--J--|321012345|789012345|789012345|789012345|901234567|901234567|901234567|901234567|123456789|123456789|123456789|123456789|345678901|345678901|345678901|345678901|567890123|567890123|567890123|567890123|789012345|789012345|789012345|789012345|
(PID.TID 0000.0001) //     36 cbbc-ddcbcdehkhhmn..++..................................................okn.skko--a-fc----bba-cp.............tfeecccbbdeecccbbdeddedcdcccdddcddffggghiggfffdeeffijlihjlica---a--cgffel.+edfgeedflcbahgfllcbahgfllfhdffhkfffca-aady...llnabdoa--a
(PID.TID 0000.0001) //     35 dcac--cbbeefjkfefw+..........zpu........................................kqnzrqqk--b-da----bbbbfu..............fdddccaadcddccaadcdddcbbbbcdddcccdffffghgffffddefflligfiljfba---aafddehy...pwvlhfffcbagfccfcbagfcceeffffjlkjgaa---bfvheeln-aesaaab
(PID.TID 0000.0001) //     34 d--ba-abcehjnldcclz+........spps.......................................vkqn+xnnncabbcbba--aabfu+..............hcbaaaaaccbaaaaaccdccbaaabbddddccdffffghfeeeeedeffjiffefilhfcaaaacgceei.......zomggfcaecbbgfcaecbbccddefilihecbaacbaajfega-aesfeed
(PID.TID 0000.0001) //     33 --abbbccceiomkfdbbc+.......+s..........................................xsrxzz+z.fdcddb-----adu+...............hcbaa--accbaa--accddba--bbbddddccdfffhhgfeeddcceddhfeddfgikhfffdfgccffw........zohhgebbaaahgebbaaaaaccdfhlhfefdcccaabjefbaaafoosso
(PID.TID 0000.0001) //     32 --bddefhhkqqlgfaakqz..v.+..+.........................................++..u+....zigfdba----adu+................kdcaaa-acccaaa-accdcb---bbbcdddddefffggfeeedcccccbccbbdcdfgghhiihcbeiw.........+ynjgebaaaajgebaaaa-aacccfikkhecccbbbaaabaadfklnqpp
(PID.TID 0000.0001) //     31 abbcffijnpnqneaaat..umrr+s.z.........................................+++++.ztsvdlifeb--dfdfu+................+lkdca--abcdca--abcccb---bbbbddddeffflhfeeeecbbbbaaba-abbacbcdceffbbfw+..........++ujfbaaa-ujfbaaa----aacffiljgfffcca--adfikkiihhhf
(PID.TID 0000.0001) //     30 --adgillkkkifcadcx.ymmqzqikvnnps.....................................+++++wmegt-jlifcacdlqx+++...............mligea---abgea---abbbb---abaaddddeedkmeddefdbbbaaaabc---b--aaaaabaabm..............+viba---+viba-------acdefinmlgiieb-chnnnmlmlgffc
(PID.TID 0000.0001) //     29 --cfiljigfjd--efdozy...+ximpnnuz......................................+++yqddhp-iljhcbbchz+......++.........+mmhffc----affc----aaba------acdddcbcineddgdbaaa----cdd--a------aa-bfz...............+qe---a.+qe---aa---aedeegknmlgiigcdfhpokkimlfdb
(PID.TID 0000.0001) //     28 -abgkhfcccea-bdei........t............................................++zwgfcfk-gknhccbbhwwy.....+++........+njfeed-----eed-----aa-------abddcabcnfddegcaaa-----hlf------------dk+................+ja---..+ja------bffdddehfd--bedaacfhpnligiihd
(PID.TID 0000.0001) //     27 -acghfbaaaa-achmy......................+.......+++....................++vnbbbclefkpkeeecflmqxy....++........+lhfeecc----eecc------------aaadcbabcfhddccba-------zqd-----------irw.................++e---..++e-----mhmijddda--------ahhfiokhedegg
(PID.TID 0000.0001) //     26 -adhfca-----bfiv.......................+.......++sy...................+tq-fdbblcjknqiheddefhiksz++++........zkhfdccb----dccb------------aabdcaaaacfddbca-------a+xfa-abb-----vvv...................+wa--...+wa---mlmkijhc----------cjjffiheb-aad
(PID.TID 0000.0001) //     25 -achfa------ch+..................w.......w.......njo+................+x-----bcgidiqqojfefiiiijmy.++.........zkhfdbaa----dbaa-------daa---acccaaaacccca--------ac.+udaabbb----tei...................++qde...++qdeqnghiljcaaaaidaa----beedeeca--bb
(PID.TID 0000.0001) //     24 aaeifa--acbcei...................w.......w.......likn+.....++.....++znpa----bbdi-fnlmnjhinlksssw............qhfeca------ca--------addc--aeffaaaaaaccb-a----a--bd.++udbbaba---ven....................++xy....++xywnfgllcbbabegkecba----ddddcaacdc
(PID.TID 0000.0001) //     23 abfida-aabchjk...................zz......zz.....nhhijz....tqq.....+ujgzgd---abci-cegklkkknols..xuu..........zgfdba------ba--------bcd---affaaadffabbb-----aa-bcc.+.+ufb-----l.gx...........s.........++z.....++zzkfilfccccoz..ulkcd---bccnfddddd
(PID.TID 0000.0001) //     22 -afhfaa---bfgi....................zz..rn..zz..rnjffggm...nlmn+....+sffzya--aabcieaaffdfhimrmp...yuu.++.......zudba------ba--------adc---dda-adffe-aa--------aaac....+ufc-baaqvhh..........dcfeeh......++......++zggqvifefhz......zobbaccfwuffeee
(PID.TID 0000.0001) //     21 babcgca----abe.....................ysstl...ysstlgeeeeoz..ijklt+....lfjzzf---adfcfdaadcehllotq....yy+++zzs.....+zcba-----cba-------cdd--aaa----df------------aaac.....+upjdcy.vohq.......+idcdfeeefwz....efwz....+hhn.vklox.........gdccfjwrigffh
(PID.TID 0000.0001) //     20 fbbbcgfcaa-aae+.......................lc......lcgfdddhq.+hiilnz++.+oquxyz--adgkfdcaabcfmtooyxz......+yuiiy....++gb------gb--------ddcca-a-----acbaa------bbaaaab........ywxy.lulo.lv...kcdgddffefffilyx+fffilyx+fffk.+xyyy.........mgeimvskjklll
(PID.TID 0000.0001) //     19 zmfeccdghfeegcbt......................aa......aafifccgnrzgghjry.+++sr+lq.--edfkkoxtkblwnnsp.vv......skhggt...+++t-------t---------bdaf---------edd-------adlaaaa+..........vnhzy.tllqiedccdhggfggffiiggfgffiiggfcbdgy..yz..........xigqophijkkii
(PID.TID 0000.0001) //     18 ..wifedfkhfegbbcivlqfoz..............jaa.....jaacfihggokeeffgt..++++..hhlfdeddkez..qcz+.zwxtsttz..ysrkhot++++++zig------ig--------b--f---------egqqqaa----frb---+........+kkrhw.vqmlnieddcdehgggffgigedbffgigedbaaceiy.............zilrddefikkhh
(PID.TID 0000.0001) //     17 ..+wfeefikhgcbbccaaacgn.............icaa....icaaccfihfoedddeedy..++...nnqwgfeekeyy.z++..+zsjjllllljllpjos+++.+zhhi-----ehi-----e-----ea--------foqqoqqo--hlwgea-.........+nk+..xiioonhfefddegihhghigfdbaghigfdbaaabdgx..............nheddefiklhg
(PID.TID 0000.0001) //     16 ....wiheddeccdfhfbabdfl............jdbad...jdbaddddgifkccccdccd+.++..++ynvz.tkkq.mu....++zyslllllkhggkmpy++...ihhi-----ehi-----ea---feb-----a-acnoohfghknvmwnuca..........qhu..hhhkojgffgeefghihhiieedbahiieedbaaabcdy..............ygddeghiljgf
(PID.TID 0000.0001) //     15 ......ylea--acfihebcbbes..........sfcbbn..sfcbbngfffigcaaabdbcac+.+++++zgmpx...y.mm....++..zslwz.yhhhhnz+++...rhgc----abgc----ab----ige----acaaalllkddfiy..yswxb..........thk.xgghiligfghfefhhhhiiheedcdiiheedcdbbabdmz.............zfdeghikkifd
(PID.TID 0000.0001) //     14 ........c---acgkhdcc--di..........ofddch..ofddchohffikaaaaabaaa-aw+.+ysnggox++...qrv..........yzzzzrjil+++....qhgd-----agd-----a-----i---cccdeabkklldinqssy..xxv...........+y.uhghikihgfghefgihhhgeeeeedhgeeeeeddbaadhw.............nedeghjjhfed
(PID.TID 0000.0001) //     13 .......+b----cfkhec---afz.........nhfdff..nhfdffholghkaaaaaba-a---flkkuswyy++++y+zr...........zzzzz++ry++......yd-------d--------------aeecdeidfkkqnqlmqquukqqmf..............iihiijjhfefgefhjihiffgggffiffgggffecaabelx...........zjecehijhfecc
(PID.TID 0000.0001) //     12 .......ec----chjhec---ag..........skiqdd..skiqddeiiiifaaabae--a---dd--iu+++.+++sxq++..........+z+++++.+++....++.s-------s------------a-ceccdejhlllkqlkklssiccdee.............wjkkkjjjigeefffgjiiighiiihhighiiihhhdaabdffghtxx......mfccehjiffdb-
(PID.TID 0000.0001) //     11 ......pdca--achlheba--ai..........nkn.fd..nkn.fdemijidaaaabi-------a--q+....++.ziis...........+++++..........+yyza----b-za----b-----a--ccccddkhieekkossssfbbbbcd............njjijhhihijhgggggjjjjijkkkkjjijkkkkjjhcaacddeegpy.....xfdccdhjgfdda-
(PID.TID 0000.0001) //     10 ......wfdb--achlhea---an.........uos..dc.uos..dcemikkfdcaabi-------equ+.........mk...........................zyvuq----ccuq----cc----a---dcfhkopqjeissrnpfbbcccde..........zslihhigghgijjihhhhkllkkkkkkjkkkkkkkjkkkedccdeeeeipz..zwhccbcdhgfddcam
(PID.TID 0000.0001) //      9 ......vgec---bfikca--cjl+.......+nnv.+cc+nnv.+ccffhkkiddaadha-----as++..........pvz++........................zxuuk------uk------a---a----djmqrrnlllsoiddcccccdjf.........+zjijhfgfggffhjkkkiillljihhghgijihhghgihighdeeffgghimnnjgecbbcdgfeccbas
(PID.TID 0000.0001) //      8 .....zleca---afjfca--hdfz.......vkky.jcevkky.jceddefijffdddhb--a-afv............nn..ss.........................+yku-----yku--------------ejnpqqnninnritqdccchkmf+.......wihgghgeffffeefhijkjkljiigeeffefigeeffefffhjhhikkklljklmhffeeeggfdcbaay.
(PID.TID 0000.0001) //      7 ...+zohec--abcfkhecbchbdx.......qiht.faaqiht.faaaabdgijgfededcdcb-f+............nn...pz.........................+zu-----+zu--------------edefqgqddsz+......+yuddmm+....tiggfggfeeeefeeefiiiijkiihhedddddhheddddddddjjllliijhfkmmkkjjhijgdcba--q.
(PID.TID 0000.0001) //      6 ..+yomfddcaabefkifdchaadt......uqdeisc--qdeisc----dfefgifffkklldc--v............up...pp.........................v.x-----v.x---------a----fbbpqgzenx+........zdbcmllkhhfffffffgfeeeeeeeefhhhhijihhffddcbbhffddcbbbbdhhiihedddb-cfhhhjjjieca----+.
(PID.TID 0000.0001) //      5 ..+nhgffkghccfhkhffgdaackz....uoibcimlaaibcimlaaacfbddfjjhijeehf-a-c............zs...su.........................qk.yi---qk.yi-------gha-fjddqs+xkrz.........q-bchikdccdeeeeeeedddedddddgghhhhjhhgffcbbaagffcbbaaaaddfegecca----dfeefhfgdb-----+.
(PID.TID 0000.0001) //      4 .+ujhgfllfhdffhkfffca-aady...llnabdopfcbabdopfcbdgdbcdehlihgfddc--ms............................................okn.zd--okn.zd---eciiiicfkeeqy.ysz..........n-aafgdcbbdeddedcdcccdddcddffggghiggfffdbaa-fffdbaa---acdcccba--abvfedeffdcca----b+.
(PID.TID 0000.0001) //      3 +vjggfcceeffffjlkjgaa---bfvheeln-aesphfd-aesphfdhgabddeflihhgfecbaaayq+++++.....................................kqnz.vtpkqnz.vtpkllgdccfkkkkk..++..........+g---fecaaadcdddcbbbbcdddcccdffffghgffffdcaa-fffdcaa----abcaaaa-acxxmecdjmdbba----r+.
(PID.TID 0000.0001) //      2 qifeecbbccddefilihecbaacbaajfega-aesqhff-aesqhffiea-cdeflkkljifeddcba---bry+...................................vkqn+.sghkqn+.sghfcbcbbbdgfdek.++++.........+l---caaaaaccdccbaaabbddddccdffffghfeeeeecba-eeeecba------baaaa-euwxqdbcdkud-----sy+.
(PID.TID 0000.0001) //      1 ebbbbaaaaaccdfhlhfefdcccaabjefbaaafonhglaafonhglid--adfgkkkklkhffddca-----s++++................................xsrxz.tedsrxz.tedcbbbbaaadddet.++++.........+l------a-accddba--bbbddddccdfffhhgfeeddccba-eddccba-------aaaabgns.qcbcchyzqngll++..
(PID.TID 0000.0001) //      0 -aaaaaaa-aacccfikkhecccbbbaaabaadfkllilmdfkllilmgebaadfijjiiikjhffdcba-----lllgn.............................++..u+..zmd.u+..zmdfbd---a-aeef.xx+..........+++s-------accdcb---bbbcdddddefffggfeeedcccbbaedcccbba----aa--alrwwy.kcbccc+...++++...
(PID.TID 0000.0001) //     -1 --aaaaa----aacffiljgfffcca--adfikkiikimikkiikimiiheccfurkiffhijjigfecb-----l----.............................+++++.z+.wq++.z+.wqgbf-------dgzpoy+........+ys+yrb--aa-abcccb---bbbbddddeffflhfeeeecbbcbbaecbbcbbaa----a--bdflm.yuibbcc.......+...
(PID.TID 0000.0001) //     -2 --aaa-------acdefinmlgiieb-chnnnmlmlfklkmlmlfklklkhednwwsheeghhijjgfdca----g---a.............................+++++wmu++y++wmu++ywn--------fwvmgy+........+r-.+++-abc--abbbb---abaaddddeedkmeddefdbbbdcbadbbbdcbaa-------ba-hv.susfbcc.......+...
(PID.TID 0000.0001) //     -3 a--a---aa---aedeegknmlgiigcdfhpokkimdkmkkkimdkmknoiedcfjvpddegghhhhgfdcbaa-n---a..............................+++yqd.++++yqd.+++zvq--dafz.lqnggw+........+b-....abcc---aaba------acdddcbcineddgdbaaaeedbbaaaeedbaa----------nysqssfcd...........
(PID.TID 0000.0001) // =======================================================
(PID.TID 0000.0001) // END OF FIELD                                          =
(PID.TID 0000.0001) // =======================================================
(PID.TID 0000.0001) 
(PID.TID 0000.0001) // =======================================================
(PID.TID 0000.0001) // Field Model Ro_surf (ini_masks_etc) at iteration          1
(PID.TID 0000.0001) // CMIN =         -7.105427357601002E-15
(PID.TID 0000.0001) // CMAX =         -7.105427357601002E-15
(PID.TID 0000.0001) // CINT =          0.000000000000000E+00
(PID.TID 0000.0001) // SYMBOLS (CMIN->CMAX): -abcdefghijklmnopqrstuvwxyz+
(PID.TID 0000.0001) //                  0.0: .
(PID.TID 0000.0001) // RANGE I (Lo:Hi:Step):(    -3:   196:     1)
(PID.TID 0000.0001) // RANGE J (Lo:Hi:Step):(    36:    -3:    -1)
(PID.TID 0000.0001) // RANGE K (Lo:Hi:Step):(   1:   1:   1)
(PID.TID 0000.0001) // =======================================================
(PID.TID 0000.0001) // =======================================================
(PID.TID 0000.0001) // END OF FIELD                                          =
(PID.TID 0000.0001) // =======================================================
(PID.TID 0000.0001) 
(PID.TID 0000.0001) // =======================================================
(PID.TID 0000.0001) // Field hFacC at iteration          1
(PID.TID 0000.0001) // CMIN =          1.000000000000000E+00
(PID.TID 0000.0001) // CMAX =          1.000000000000000E+00
(PID.TID 0000.0001) // CINT =          0.000000000000000E+00
(PID.TID 0000.0001) // SYMBOLS (CMIN->CMAX): -abcdefghijklmnopqrstuvwxyz+
(PID.TID 0000.0001) //                  0.0: .
(PID.TID 0000.0001) // RANGE I (Lo:Hi:Step):(    -3:   196:     1)
(PID.TID 0000.0001) // RANGE J (Lo:Hi:Step):(    36:    -3:    -1)
(PID.TID 0000.0001) // RANGE K (Lo:Hi:Step):(   1:   1:   1)
(PID.TID 0000.0001) // =======================================================
(PID.TID 0000.0001) // =======================================================
(PID.TID 0000.0001) // END OF FIELD                                          =
(PID.TID 0000.0001) // =======================================================
(PID.TID 0000.0001) 
(PID.TID 0000.0001) // =======================================================
(PID.TID 0000.0001) // Field hFacW at iteration          1
(PID.TID 0000.0001) // CMIN =          1.000000000000000E+00
(PID.TID 0000.0001) // CMAX =          1.000000000000000E+00
(PID.TID 0000.0001) // CINT =          0.000000000000000E+00
(PID.TID 0000.0001) // SYMBOLS (CMIN->CMAX): -abcdefghijklmnopqrstuvwxyz+
(PID.TID 0000.0001) //                  0.0: .
(PID.TID 0000.0001) // RANGE I (Lo:Hi:Step):(    -3:   196:     1)
(PID.TID 0000.0001) // RANGE J (Lo:Hi:Step):(    36:    -3:    -1)
(PID.TID 0000.0001) // RANGE K (Lo:Hi:Step):(   1:   1:   1)
(PID.TID 0000.0001) // =======================================================
(PID.TID 0000.0001) // =======================================================
(PID.TID 0000.0001) // END OF FIELD                                          =
(PID.TID 0000.0001) // =======================================================
(PID.TID 0000.0001) 
(PID.TID 0000.0001) // =======================================================
(PID.TID 0000.0001) // Field hFacS at iteration          1
(PID.TID 0000.0001) // CMIN =          1.000000000000000E+00
(PID.TID 0000.0001) // CMAX =          1.000000000000000E+00
(PID.TID 0000.0001) // CINT =          0.000000000000000E+00
(PID.TID 0000.0001) // SYMBOLS (CMIN->CMAX): -abcdefghijklmnopqrstuvwxyz+
(PID.TID 0000.0001) //                  0.0: .
(PID.TID 0000.0001) // RANGE I (Lo:Hi:Step):(    -3:   196:     1)
(PID.TID 0000.0001) // RANGE J (Lo:Hi:Step):(    36:    -3:    -1)
(PID.TID 0000.0001) // RANGE K (Lo:Hi:Step):(   1:   1:   1)
(PID.TID 0000.0001) // =======================================================
(PID.TID 0000.0001) // =======================================================
(PID.TID 0000.0001) // END OF FIELD                                          =
(PID.TID 0000.0001) // =======================================================
(PID.TID 0000.0001) 
(PID.TID 0000.0001) INI_CG2D: CG2D normalisation factor =  1.9156564154949553E-04
(PID.TID 0000.0001) INI_CG2D: cg2dTolerance = 5.809016360175293E-07 (Area=3.6388673751E+14)
(PID.TID 0000.0001) 
(PID.TID 0000.0001)  MDS_READ_META: opening file: pickup.0000072000.meta
(PID.TID 0000.0001)  nRecords = 123 ; filePrec =  64 ; fileIter =     72000
(PID.TID 0000.0001)     nDims =   2 , dims:
(PID.TID 0000.0001)    1: 192   1 192
(PID.TID 0000.0001)    2:  32   1  32
(PID.TID 0000.0001)     nFlds =  11 , nFl3D =   8 , fields:
(PID.TID 0000.0001)  >Uvel    < >GuNm1   < >Vvel    < >GvNm1   < >Theta   < >GtNm1   < >Salt    < >GsNm1   < >EtaN    < >dEtaHdt < >EtaH    <
(PID.TID 0000.0001)   nTimRec =   0 , timeList:
(PID.TID 0000.0001) READ_MFLDS_3D_RL: read field: "Uvel    ", #   1 in fldList, rec=   1
(PID.TID 0000.0001)  MDS_READ_FIELD: opening global file: pickup.0000072000
(PID.TID 0000.0001) READ_MFLDS_3D_RL: read field: "Vvel    ", #   3 in fldList, rec=   3
(PID.TID 0000.0001)  MDS_READ_FIELD: opening global file: pickup.0000072000
(PID.TID 0000.0001) READ_MFLDS_3D_RL: read field: "Theta   ", #   5 in fldList, rec=   5
(PID.TID 0000.0001)  MDS_READ_FIELD: opening global file: pickup.0000072000
(PID.TID 0000.0001) READ_MFLDS_3D_RL: read field: "Salt    ", #   7 in fldList, rec=   7
(PID.TID 0000.0001)  MDS_READ_FIELD: opening global file: pickup.0000072000
(PID.TID 0000.0001) READ_MFLDS_3D_RL: read field: "GuNm1   ", #   2 in fldList, rec=   2
(PID.TID 0000.0001)  MDS_READ_FIELD: opening global file: pickup.0000072000
(PID.TID 0000.0001) READ_MFLDS_3D_RL: field: "GuNm2   " missing in file: pickup.0000072000
(PID.TID 0000.0001) READ_MFLDS_3D_RL: read field: "GvNm1   ", #   4 in fldList, rec=   4
(PID.TID 0000.0001)  MDS_READ_FIELD: opening global file: pickup.0000072000
(PID.TID 0000.0001) READ_MFLDS_3D_RL: field: "GvNm2   " missing in file: pickup.0000072000
(PID.TID 0000.0001) READ_MFLDS_3D_RL: read field: "EtaN    ", #   9 in fldList, rec= 121
(PID.TID 0000.0001)  MDS_READ_FIELD: opening global file: pickup.0000072000
(PID.TID 0000.0001) READ_MFLDS_3D_RL: read field: "dEtaHdt ", #  10 in fldList, rec= 122
(PID.TID 0000.0001)  MDS_READ_FIELD: opening global file: pickup.0000072000
(PID.TID 0000.0001) READ_MFLDS_3D_RL: read field: "EtaH    ", #  11 in fldList, rec= 123
(PID.TID 0000.0001)  MDS_READ_FIELD: opening global file: pickup.0000072000
(PID.TID 0000.0001)  MDS_READ_FIELD: opening global file: trenberth_taux.bin
(PID.TID 0000.0001)  MDS_READ_FIELD: opening global file: trenberth_tauy.bin
(PID.TID 0000.0001)  MDS_READ_FIELD: opening global file: shiQnet_cs32.bin
(PID.TID 0000.0001)  MDS_READ_FIELD: opening global file: shiEmPR_cs32.bin
(PID.TID 0000.0001)  MDS_READ_FIELD: opening global file: lev_surfT_cs_12m.bin
(PID.TID 0000.0001)  MDS_READ_FIELD: opening global file: lev_surfS_cs_12m.bin
(PID.TID 0000.0001)  MDS_READ_FIELD: opening file: xx_theta.0000000000.001.001.data
(PID.TID 0000.0001)  MDS_READ_FIELD: opening file: xx_theta.0000000000.002.001.data
(PID.TID 0000.0001)  MDS_READ_FIELD: opening file: xx_theta.0000000000.003.001.data
(PID.TID 0000.0001)  MDS_READ_FIELD: opening file: xx_theta.0000000000.004.001.data
(PID.TID 0000.0001)  MDS_READ_FIELD: opening file: xx_theta.0000000000.005.001.data
(PID.TID 0000.0001)  MDS_READ_FIELD: opening file: xx_theta.0000000000.006.001.data
(PID.TID 0000.0001)  MDS_READ_FIELD: opening file: xx_salt.0000000000.001.001.data
(PID.TID 0000.0001)  MDS_READ_FIELD: opening file: xx_salt.0000000000.002.001.data
(PID.TID 0000.0001)  MDS_READ_FIELD: opening file: xx_salt.0000000000.003.001.data
(PID.TID 0000.0001)  MDS_READ_FIELD: opening file: xx_salt.0000000000.004.001.data
(PID.TID 0000.0001)  MDS_READ_FIELD: opening file: xx_salt.0000000000.005.001.data
(PID.TID 0000.0001)  MDS_READ_FIELD: opening file: xx_salt.0000000000.006.001.data
(PID.TID 0000.0001)  MDS_READ_FIELD: opening file: xx_diffkr.0000000000.001.001.data
(PID.TID 0000.0001)  MDS_READ_FIELD: opening file: xx_diffkr.0000000000.002.001.data
(PID.TID 0000.0001)  MDS_READ_FIELD: opening file: xx_diffkr.0000000000.003.001.data
(PID.TID 0000.0001)  MDS_READ_FIELD: opening file: xx_diffkr.0000000000.004.001.data
(PID.TID 0000.0001)  MDS_READ_FIELD: opening file: xx_diffkr.0000000000.005.001.data
(PID.TID 0000.0001)  MDS_READ_FIELD: opening file: xx_diffkr.0000000000.006.001.data
(PID.TID 0000.0001) // =======================================================
(PID.TID 0000.0001) // Begin MONITOR dynamic field statistics
(PID.TID 0000.0001) // =======================================================
(PID.TID 0000.0001) %MON time_tsnumber                =                 72000
(PID.TID 0000.0001) %MON time_secondsf                =   6.2208000000000E+09
(PID.TID 0000.0001) %MON dynstat_eta_max              =   9.2249308874653E-01
(PID.TID 0000.0001) %MON dynstat_eta_min              =  -1.6181619580030E+00
(PID.TID 0000.0001) %MON dynstat_eta_mean             =   1.4427566214562E-14
(PID.TID 0000.0001) %MON dynstat_eta_sd               =   5.9907976973986E-01
(PID.TID 0000.0001) %MON dynstat_eta_del2             =   7.8581345364806E-04
(PID.TID 0000.0001) %MON dynstat_uvel_max             =   1.8639442347386E-01
(PID.TID 0000.0001) %MON dynstat_uvel_min             =  -2.8803502100767E-01
(PID.TID 0000.0001) %MON dynstat_uvel_mean            =  -4.8898745521464E-04
(PID.TID 0000.0001) %MON dynstat_uvel_sd              =   1.2020791678331E-02
(PID.TID 0000.0001) %MON dynstat_uvel_del2            =   5.1214215649781E-05
(PID.TID 0000.0001) %MON dynstat_vvel_max             =   1.7346247050018E-01
(PID.TID 0000.0001) %MON dynstat_vvel_min             =  -2.2519444280963E-01
(PID.TID 0000.0001) %MON dynstat_vvel_mean            =  -4.0506827061687E-04
(PID.TID 0000.0001) %MON dynstat_vvel_sd              =   1.2640840581320E-02
(PID.TID 0000.0001) %MON dynstat_vvel_del2            =   5.0639130168720E-05
(PID.TID 0000.0001) %MON dynstat_wvel_max             =   1.0318718393244E-04
(PID.TID 0000.0001) %MON dynstat_wvel_min             =  -2.0420736500850E-04
(PID.TID 0000.0001) %MON dynstat_wvel_mean            =  -2.7269546214978E-22
(PID.TID 0000.0001) %MON dynstat_wvel_sd              =   3.8381191222557E-06
(PID.TID 0000.0001) %MON dynstat_wvel_del2            =   2.6463369005902E-08
(PID.TID 0000.0001) %MON dynstat_theta_max            =   3.0925958904704E+01
(PID.TID 0000.0001) %MON dynstat_theta_min            =  -2.0000000000000E+00
(PID.TID 0000.0001) %MON dynstat_theta_mean           =   3.9102506401794E+00
(PID.TID 0000.0001) %MON dynstat_theta_sd             =   4.5738902974624E+00
(PID.TID 0000.0001) %MON dynstat_theta_del2           =   2.6589242567180E-03
(PID.TID 0000.0001) %MON dynstat_salt_max             =   4.1386265990462E+01
(PID.TID 0000.0001) %MON dynstat_salt_min             =   1.8383410676806E+01
(PID.TID 0000.0001) %MON dynstat_salt_mean            =   3.4772105230970E+01
(PID.TID 0000.0001) %MON dynstat_salt_sd              =   5.3143242788212E-01
(PID.TID 0000.0001) %MON dynstat_salt_del2            =   8.0693627005698E-04
(PID.TID 0000.0001) %MON forcing_qnet_max             =   4.6211611868841E+02
(PID.TID 0000.0001) %MON forcing_qnet_min             =  -2.0410376912710E+02
(PID.TID 0000.0001) %MON forcing_qnet_mean            =  -1.2329247921290E+01
(PID.TID 0000.0001) %MON forcing_qnet_sd              =   1.1327998988989E+02
(PID.TID 0000.0001) %MON forcing_qnet_del2            =   4.4323506322358E-01
(PID.TID 0000.0001) %MON forcing_qsw_max              =   0.0000000000000E+00
(PID.TID 0000.0001) %MON forcing_qsw_min              =   0.0000000000000E+00
(PID.TID 0000.0001) %MON forcing_qsw_mean             =   0.0000000000000E+00
(PID.TID 0000.0001) %MON forcing_qsw_sd               =   0.0000000000000E+00
(PID.TID 0000.0001) %MON forcing_qsw_del2             =   0.0000000000000E+00
(PID.TID 0000.0001) %MON forcing_empmr_max            =   0.0000000000000E+00
(PID.TID 0000.0001) %MON forcing_empmr_min            =   0.0000000000000E+00
(PID.TID 0000.0001) %MON forcing_empmr_mean           =   0.0000000000000E+00
(PID.TID 0000.0001) %MON forcing_empmr_sd             =   0.0000000000000E+00
(PID.TID 0000.0001) %MON forcing_empmr_del2           =   0.0000000000000E+00
(PID.TID 0000.0001) %MON forcing_fu_max               =   2.4892781143428E-01
(PID.TID 0000.0001) %MON forcing_fu_min               =  -2.5159107438040E-01
(PID.TID 0000.0001) %MON forcing_fu_mean              =  -3.8956966288612E-03
(PID.TID 0000.0001) %MON forcing_fu_sd                =   6.5480383395885E-02
(PID.TID 0000.0001) %MON forcing_fu_del2              =   2.3114393556995E-04
(PID.TID 0000.0001) %MON forcing_fv_max               =   2.9305960402537E-01
(PID.TID 0000.0001) %MON forcing_fv_min               =  -3.3950131228473E-01
(PID.TID 0000.0001) %MON forcing_fv_mean              =  -1.3743384707768E-02
(PID.TID 0000.0001) %MON forcing_fv_sd                =   7.6816469815204E-02
(PID.TID 0000.0001) %MON forcing_fv_del2              =   2.5671701728584E-04
(PID.TID 0000.0001) %MON advcfl_uvel_max              =   8.1692195603793E-02
(PID.TID 0000.0001) %MON advcfl_vvel_max              =   7.5609847114589E-02
(PID.TID 0000.0001) %MON advcfl_wvel_max              =   6.6579306931072E-02
(PID.TID 0000.0001) %MON advcfl_W_hf_max              =   7.3514651403059E-02
(PID.TID 0000.0001) %MON pe_b_mean                    =   4.7811655460464E-04
(PID.TID 0000.0001) %MON ke_max                       =   4.0693041105884E-02
(PID.TID 0000.0001) %MON ke_mean                      =   1.4070057050535E-04
(PID.TID 0000.0001) %MON ke_vol                       =   1.3398024453628E+18
(PID.TID 0000.0001) %MON vort_r_min                   =  -1.1843904755479E-06
(PID.TID 0000.0001) %MON vort_r_max                   =   1.2148454936551E-06
(PID.TID 0000.0001) %MON vort_a_mean                  =  -2.0493733748264E-05
(PID.TID 0000.0001) %MON vort_a_sd                    =   7.5053947910691E-05
(PID.TID 0000.0001) %MON vort_p_mean                  =  -2.4715941407046E-05
(PID.TID 0000.0001) %MON vort_p_sd                    =   1.2776245664365E-04
(PID.TID 0000.0001) %MON surfExpan_theta_mean         =   2.0466490014739E-08
(PID.TID 0000.0001) %MON surfExpan_salt_mean          =   1.6677328631451E-08
(PID.TID 0000.0001) // =======================================================
(PID.TID 0000.0001) // End MONITOR dynamic field statistics
(PID.TID 0000.0001) // =======================================================
S/R EXTERNAL_FIELDS_LOAD: Reading new data:   12    1     72000  6.220800000000E+09
(PID.TID 0000.0001)  MDS_READ_FIELD: opening global file: trenberth_taux.bin
(PID.TID 0000.0001)  MDS_READ_FIELD: opening global file: trenberth_taux.bin
(PID.TID 0000.0001)  MDS_READ_FIELD: opening global file: trenberth_tauy.bin
(PID.TID 0000.0001)  MDS_READ_FIELD: opening global file: trenberth_tauy.bin
(PID.TID 0000.0001)  MDS_READ_FIELD: opening global file: shiQnet_cs32.bin
(PID.TID 0000.0001)  MDS_READ_FIELD: opening global file: shiQnet_cs32.bin
(PID.TID 0000.0001)  MDS_READ_FIELD: opening global file: shiEmPR_cs32.bin
(PID.TID 0000.0001)  MDS_READ_FIELD: opening global file: shiEmPR_cs32.bin
(PID.TID 0000.0001)  MDS_READ_FIELD: opening global file: lev_surfT_cs_12m.bin
(PID.TID 0000.0001)  MDS_READ_FIELD: opening global file: lev_surfT_cs_12m.bin
(PID.TID 0000.0001)  MDS_READ_FIELD: opening global file: lev_surfS_cs_12m.bin
(PID.TID 0000.0001)  MDS_READ_FIELD: opening global file: lev_surfS_cs_12m.bin
(PID.TID 0000.0001)  MDS_READ_FIELD: opening file: xx_tauu.0000000000.001.001.data
(PID.TID 0000.0001)  MDS_READ_FIELD: opening file: xx_tauu.0000000000.002.001.data
(PID.TID 0000.0001)  MDS_READ_FIELD: opening file: xx_tauu.0000000000.003.001.data
(PID.TID 0000.0001)  MDS_READ_FIELD: opening file: xx_tauu.0000000000.004.001.data
(PID.TID 0000.0001)  MDS_READ_FIELD: opening file: xx_tauu.0000000000.005.001.data
(PID.TID 0000.0001)  MDS_READ_FIELD: opening file: xx_tauu.0000000000.006.001.data
(PID.TID 0000.0001)  MDS_READ_FIELD: opening file: xx_tauv.0000000000.001.001.data
(PID.TID 0000.0001)  MDS_READ_FIELD: opening file: xx_tauv.0000000000.002.001.data
(PID.TID 0000.0001)  MDS_READ_FIELD: opening file: xx_tauv.0000000000.003.001.data
(PID.TID 0000.0001)  MDS_READ_FIELD: opening file: xx_tauv.0000000000.004.001.data
(PID.TID 0000.0001)  MDS_READ_FIELD: opening file: xx_tauv.0000000000.005.001.data
(PID.TID 0000.0001)  MDS_READ_FIELD: opening file: xx_tauv.0000000000.006.001.data
(PID.TID 0000.0001)  MDS_READ_FIELD: opening file: xx_sfl.0000000000.001.001.data
(PID.TID 0000.0001)  MDS_READ_FIELD: opening file: xx_sfl.0000000000.002.001.data
(PID.TID 0000.0001)  MDS_READ_FIELD: opening file: xx_sfl.0000000000.003.001.data
(PID.TID 0000.0001)  MDS_READ_FIELD: opening file: xx_sfl.0000000000.004.001.data
(PID.TID 0000.0001)  MDS_READ_FIELD: opening file: xx_sfl.0000000000.005.001.data
(PID.TID 0000.0001)  MDS_READ_FIELD: opening file: xx_sfl.0000000000.006.001.data
(PID.TID 0000.0001)  MDS_READ_FIELD: opening file: xx_hfl.0000000000.001.001.data
(PID.TID 0000.0001)  MDS_READ_FIELD: opening file: xx_hfl.0000000000.002.001.data
(PID.TID 0000.0001)  MDS_READ_FIELD: opening file: xx_hfl.0000000000.003.001.data
(PID.TID 0000.0001)  MDS_READ_FIELD: opening file: xx_hfl.0000000000.004.001.data
(PID.TID 0000.0001)  MDS_READ_FIELD: opening file: xx_hfl.0000000000.005.001.data
(PID.TID 0000.0001)  MDS_READ_FIELD: opening file: xx_hfl.0000000000.006.001.data
(PID.TID 0000.0001) SOLVE_FOR_PRESSURE: putPmEinXvector =    F
 cg2d: Sum(rhs),rhsMax =  -9.43600753089413E-12  4.28440421776334E+00
(PID.TID 0000.0001)                    cg2d_init_res =    2.39472355148285E-01
(PID.TID 0000.0001)                       cg2d_iters =    64
(PID.TID 0000.0001)                         cg2d_res =    5.53950248930367E-07
(PID.TID 0000.0001) // =======================================================
(PID.TID 0000.0001) // Begin MONITOR dynamic field statistics
(PID.TID 0000.0001) // =======================================================
(PID.TID 0000.0001) %MON time_tsnumber                =                 72001
(PID.TID 0000.0001) %MON time_secondsf                =   6.2208864000000E+09
(PID.TID 0000.0001) %MON dynstat_eta_max              =   9.1902642867475E-01
(PID.TID 0000.0001) %MON dynstat_eta_min              =  -1.6192445233901E+00
(PID.TID 0000.0001) %MON dynstat_eta_mean             =   1.4262679743539E-14
(PID.TID 0000.0001) %MON dynstat_eta_sd               =   5.9877534968778E-01
(PID.TID 0000.0001) %MON dynstat_eta_del2             =   7.9003801083827E-04
(PID.TID 0000.0001) %MON dynstat_uvel_max             =   1.8673966950753E-01
(PID.TID 0000.0001) %MON dynstat_uvel_min             =  -2.8777196074090E-01
(PID.TID 0000.0001) %MON dynstat_uvel_mean            =  -4.8866750527989E-04
(PID.TID 0000.0001) %MON dynstat_uvel_sd              =   1.2021143829174E-02
(PID.TID 0000.0001) %MON dynstat_uvel_del2            =   5.1200925996837E-05
(PID.TID 0000.0001) %MON dynstat_vvel_max             =   1.7374962584681E-01
(PID.TID 0000.0001) %MON dynstat_vvel_min             =  -2.2516714897329E-01
(PID.TID 0000.0001) %MON dynstat_vvel_mean            =  -4.0590652856645E-04
(PID.TID 0000.0001) %MON dynstat_vvel_sd              =   1.2643735904539E-02
(PID.TID 0000.0001) %MON dynstat_vvel_del2            =   5.0605411123984E-05
(PID.TID 0000.0001) %MON dynstat_wvel_max             =   1.0342582246191E-04
(PID.TID 0000.0001) %MON dynstat_wvel_min             =  -2.0441149532324E-04
(PID.TID 0000.0001) %MON dynstat_wvel_mean            =   8.4129451088761E-23
(PID.TID 0000.0001) %MON dynstat_wvel_sd              =   3.8352318280941E-06
(PID.TID 0000.0001) %MON dynstat_wvel_del2            =   2.6428874328361E-08
(PID.TID 0000.0001) %MON dynstat_theta_max            =   3.0936923904111E+01
(PID.TID 0000.0001) %MON dynstat_theta_min            =  -2.0035745073322E+00
(PID.TID 0000.0001) %MON dynstat_theta_mean           =   3.9103093427448E+00
(PID.TID 0000.0001) %MON dynstat_theta_sd             =   4.5738475414628E+00
(PID.TID 0000.0001) %MON dynstat_theta_del2           =   2.6414140295362E-03
(PID.TID 0000.0001) %MON dynstat_salt_max             =   4.1386317721018E+01
(PID.TID 0000.0001) %MON dynstat_salt_min             =   1.8383870420301E+01
(PID.TID 0000.0001) %MON dynstat_salt_mean            =   3.4772105446502E+01
(PID.TID 0000.0001) %MON dynstat_salt_sd              =   5.3141583550428E-01
(PID.TID 0000.0001) %MON dynstat_salt_del2            =   8.0250691442666E-04
(PID.TID 0000.0001) %MON forcing_qnet_max             =   4.5344826813507E+02
(PID.TID 0000.0001) %MON forcing_qnet_min             =  -2.1502574251756E+02
(PID.TID 0000.0001) %MON forcing_qnet_mean            =  -1.2145822391644E+01
(PID.TID 0000.0001) %MON forcing_qnet_sd              =   1.1565376981455E+02
(PID.TID 0000.0001) %MON forcing_qnet_del2            =   4.1640148928199E-01
(PID.TID 0000.0001) %MON forcing_qsw_max              =   0.0000000000000E+00
(PID.TID 0000.0001) %MON forcing_qsw_min              =   0.0000000000000E+00
(PID.TID 0000.0001) %MON forcing_qsw_mean             =   0.0000000000000E+00
(PID.TID 0000.0001) %MON forcing_qsw_sd               =   0.0000000000000E+00
(PID.TID 0000.0001) %MON forcing_qsw_del2             =   0.0000000000000E+00
(PID.TID 0000.0001) %MON forcing_empmr_max            =   7.6494447208479E-05
(PID.TID 0000.0001) %MON forcing_empmr_min            =  -1.5362614137596E-04
(PID.TID 0000.0001) %MON forcing_empmr_mean           =   4.1932798010144E-22
(PID.TID 0000.0001) %MON forcing_empmr_sd             =   2.4051723601802E-05
(PID.TID 0000.0001) %MON forcing_empmr_del2           =   1.2276157049243E-07
(PID.TID 0000.0001) %MON forcing_fu_max               =   2.4760613571392E-01
(PID.TID 0000.0001) %MON forcing_fu_min               =  -2.0293190974520E-01
(PID.TID 0000.0001) %MON forcing_fu_mean              =  -4.5478806648627E-03
(PID.TID 0000.0001) %MON forcing_fu_sd                =   6.3937396831278E-02
(PID.TID 0000.0001) %MON forcing_fu_del2              =   2.0509729664672E-04
(PID.TID 0000.0001) %MON forcing_fv_max               =   2.5281098043587E-01
(PID.TID 0000.0001) %MON forcing_fv_min               =  -3.2691992401999E-01
(PID.TID 0000.0001) %MON forcing_fv_mean              =  -1.3684501518858E-02
(PID.TID 0000.0001) %MON forcing_fv_sd                =   7.5153512230531E-02
(PID.TID 0000.0001) %MON forcing_fv_del2              =   2.3373863441584E-04
(PID.TID 0000.0001) %MON advcfl_uvel_max              =   8.1617586722231E-02
(PID.TID 0000.0001) %MON advcfl_vvel_max              =   7.5735014084681E-02
(PID.TID 0000.0001) %MON advcfl_wvel_max              =   6.6645861116710E-02
(PID.TID 0000.0001) %MON advcfl_W_hf_max              =   7.3588138316368E-02
(PID.TID 0000.0001) %MON pe_b_mean                    =   4.7763077192957E-04
(PID.TID 0000.0001) %MON ke_max                       =   4.0592415067345E-02
(PID.TID 0000.0001) %MON ke_mean                      =   1.4073858566867E-04
(PID.TID 0000.0001) %MON ke_vol                       =   1.3398024453628E+18
(PID.TID 0000.0001) %MON vort_r_min                   =  -1.1881482610490E-06
(PID.TID 0000.0001) %MON vort_r_max                   =   1.2160765809936E-06
(PID.TID 0000.0001) %MON vort_a_mean                  =  -2.0493733748264E-05
(PID.TID 0000.0001) %MON vort_a_sd                    =   7.5053947717523E-05
(PID.TID 0000.0001) %MON vort_p_mean                  =  -2.4715941369676E-05
(PID.TID 0000.0001) %MON vort_p_sd                    =   1.2776245392165E-04
(PID.TID 0000.0001) %MON surfExpan_theta_mean         =  -1.4668258101242E-08
(PID.TID 0000.0001) %MON surfExpan_salt_mean          =   5.9280525604218E-09
(PID.TID 0000.0001) // =======================================================
(PID.TID 0000.0001) // End MONITOR dynamic field statistics
(PID.TID 0000.0001) // =======================================================
 cg2d: Sum(rhs),rhsMax =  -9.37916411203332E-12  4.27982545051953E+00
(PID.TID 0000.0001)                    cg2d_init_res =    4.87326105904737E-01
(PID.TID 0000.0001)                       cg2d_iters =    64
(PID.TID 0000.0001)                         cg2d_res =    5.42734819577186E-07
(PID.TID 0000.0001) // =======================================================
(PID.TID 0000.0001) // Begin MONITOR dynamic field statistics
(PID.TID 0000.0001) // =======================================================
(PID.TID 0000.0001) %MON time_tsnumber                =                 72002
(PID.TID 0000.0001) %MON time_secondsf                =   6.2209728000000E+09
(PID.TID 0000.0001) %MON dynstat_eta_max              =   9.1568001099151E-01
(PID.TID 0000.0001) %MON dynstat_eta_min              =  -1.6179974250868E+00
(PID.TID 0000.0001) %MON dynstat_eta_mean             =   1.4537490528578E-14
(PID.TID 0000.0001) %MON dynstat_eta_sd               =   5.9829968527964E-01
(PID.TID 0000.0001) %MON dynstat_eta_del2             =   7.8943975000531E-04
(PID.TID 0000.0001) %MON dynstat_uvel_max             =   1.8706445150319E-01
(PID.TID 0000.0001) %MON dynstat_uvel_min             =  -2.8746967464011E-01
(PID.TID 0000.0001) %MON dynstat_uvel_mean            =  -4.8838933906199E-04
(PID.TID 0000.0001) %MON dynstat_uvel_sd              =   1.2022212063056E-02
(PID.TID 0000.0001) %MON dynstat_uvel_del2            =   5.1186773831980E-05
(PID.TID 0000.0001) %MON dynstat_vvel_max             =   1.7401643881388E-01
(PID.TID 0000.0001) %MON dynstat_vvel_min             =  -2.2513634585019E-01
(PID.TID 0000.0001) %MON dynstat_vvel_mean            =  -4.0696124071965E-04
(PID.TID 0000.0001) %MON dynstat_vvel_sd              =   1.2647801198087E-02
(PID.TID 0000.0001) %MON dynstat_vvel_del2            =   5.0572850835390E-05
(PID.TID 0000.0001) %MON dynstat_wvel_max             =   1.0363159977851E-04
(PID.TID 0000.0001) %MON dynstat_wvel_min             =  -2.0472896481575E-04
(PID.TID 0000.0001) %MON dynstat_wvel_mean            =  -4.0614217766988E-23
(PID.TID 0000.0001) %MON dynstat_wvel_sd              =   3.8333519747209E-06
(PID.TID 0000.0001) %MON dynstat_wvel_del2            =   2.6437466217860E-08
(PID.TID 0000.0001) %MON dynstat_theta_max            =   3.0947456232047E+01
(PID.TID 0000.0001) %MON dynstat_theta_min            =  -2.0074543866031E+00
(PID.TID 0000.0001) %MON dynstat_theta_mean           =   3.9103685879437E+00
(PID.TID 0000.0001) %MON dynstat_theta_sd             =   4.5738121280378E+00
(PID.TID 0000.0001) %MON dynstat_theta_del2           =   2.6295944689297E-03
(PID.TID 0000.0001) %MON dynstat_salt_max             =   4.1386361375866E+01
(PID.TID 0000.0001) %MON dynstat_salt_min             =   1.8384336047557E+01
(PID.TID 0000.0001) %MON dynstat_salt_mean            =   3.4772105938863E+01
(PID.TID 0000.0001) %MON dynstat_salt_sd              =   5.3139808946229E-01
(PID.TID 0000.0001) %MON dynstat_salt_del2            =   7.9901056498656E-04
(PID.TID 0000.0001) %MON forcing_qnet_max             =   4.5335380716717E+02
(PID.TID 0000.0001) %MON forcing_qnet_min             =  -2.1405338853096E+02
(PID.TID 0000.0001) %MON forcing_qnet_mean            =  -1.2158050760287E+01
(PID.TID 0000.0001) %MON forcing_qnet_sd              =   1.1544877109799E+02
(PID.TID 0000.0001) %MON forcing_qnet_del2            =   4.1737635676168E-01
(PID.TID 0000.0001) %MON forcing_qsw_max              =   0.0000000000000E+00
(PID.TID 0000.0001) %MON forcing_qsw_min              =   0.0000000000000E+00
(PID.TID 0000.0001) %MON forcing_qsw_mean             =   0.0000000000000E+00
(PID.TID 0000.0001) %MON forcing_qsw_sd               =   0.0000000000000E+00
(PID.TID 0000.0001) %MON forcing_qsw_del2             =   0.0000000000000E+00
(PID.TID 0000.0001) %MON forcing_empmr_max            =   7.6494447208479E-05
(PID.TID 0000.0001) %MON forcing_empmr_min            =  -1.5362614137596E-04
(PID.TID 0000.0001) %MON forcing_empmr_mean           =   4.1932798010144E-22
(PID.TID 0000.0001) %MON forcing_empmr_sd             =   2.4051723601802E-05
(PID.TID 0000.0001) %MON forcing_empmr_del2           =   1.2276157049243E-07
(PID.TID 0000.0001) %MON forcing_fu_max               =   2.4755808644372E-01
(PID.TID 0000.0001) %MON forcing_fu_min               =  -2.0607770640355E-01
(PID.TID 0000.0001) %MON forcing_fu_mean              =  -4.5044017291293E-03
(PID.TID 0000.0001) %MON forcing_fu_sd                =   6.3947166868600E-02
(PID.TID 0000.0001) %MON forcing_fu_del2              =   2.0524826999043E-04
(PID.TID 0000.0001) %MON forcing_fv_max               =   2.5549422200851E-01
(PID.TID 0000.0001) %MON forcing_fv_min               =  -3.2770782795392E-01
(PID.TID 0000.0001) %MON forcing_fv_mean              =  -1.3688427064785E-02
(PID.TID 0000.0001) %MON forcing_fv_sd                =   7.5192943168452E-02
(PID.TID 0000.0001) %MON forcing_fv_del2              =   2.3392164091250E-04
(PID.TID 0000.0001) %MON advcfl_uvel_max              =   8.1531852650076E-02
(PID.TID 0000.0001) %MON advcfl_vvel_max              =   7.5851314098109E-02
(PID.TID 0000.0001) %MON advcfl_wvel_max              =   6.6749368151249E-02
(PID.TID 0000.0001) %MON advcfl_W_hf_max              =   7.3702427333671E-02
(PID.TID 0000.0001) %MON pe_b_mean                    =   4.7687221792954E-04
(PID.TID 0000.0001) %MON ke_max                       =   4.0485751539527E-02
(PID.TID 0000.0001) %MON ke_mean                      =   1.4079835024545E-04
(PID.TID 0000.0001) %MON ke_vol                       =   1.3398024453628E+18
(PID.TID 0000.0001) %MON vort_r_min                   =  -1.1922751222937E-06
(PID.TID 0000.0001) %MON vort_r_max                   =   1.2176476799181E-06
(PID.TID 0000.0001) %MON vort_a_mean                  =  -2.0493733748264E-05
(PID.TID 0000.0001) %MON vort_a_sd                    =   7.5053947471215E-05
(PID.TID 0000.0001) %MON vort_p_mean                  =  -2.4715941373434E-05
(PID.TID 0000.0001) %MON vort_p_sd                    =   1.2776245297244E-04
(PID.TID 0000.0001) %MON surfExpan_theta_mean         =  -3.1916081120248E-08
(PID.TID 0000.0001) %MON surfExpan_salt_mean          =   1.9343773917106E-09
(PID.TID 0000.0001) // =======================================================
(PID.TID 0000.0001) // End MONITOR dynamic field statistics
(PID.TID 0000.0001) // =======================================================
 cg2d: Sum(rhs),rhsMax =  -9.97602001007181E-12  4.27358143086832E+00
(PID.TID 0000.0001)                    cg2d_init_res =    5.02126161566471E-01
(PID.TID 0000.0001)                       cg2d_iters =    65
(PID.TID 0000.0001)                         cg2d_res =    4.56168215398756E-07
(PID.TID 0000.0001) // =======================================================
(PID.TID 0000.0001) // Begin MONITOR dynamic field statistics
(PID.TID 0000.0001) // =======================================================
(PID.TID 0000.0001) %MON time_tsnumber                =                 72003
(PID.TID 0000.0001) %MON time_secondsf                =   6.2210592000000E+09
(PID.TID 0000.0001) %MON dynstat_eta_max              =   9.1311537150663E-01
(PID.TID 0000.0001) %MON dynstat_eta_min              =  -1.6165798316008E+00
(PID.TID 0000.0001) %MON dynstat_eta_mean             =   1.4729858078105E-14
(PID.TID 0000.0001) %MON dynstat_eta_sd               =   5.9782599300285E-01
(PID.TID 0000.0001) %MON dynstat_eta_del2             =   7.8841044596082E-04
(PID.TID 0000.0001) %MON dynstat_uvel_max             =   1.8734565472974E-01
(PID.TID 0000.0001) %MON dynstat_uvel_min             =  -2.8713454242949E-01
(PID.TID 0000.0001) %MON dynstat_uvel_mean            =  -4.8822243085859E-04
(PID.TID 0000.0001) %MON dynstat_uvel_sd              =   1.2023543490009E-02
(PID.TID 0000.0001) %MON dynstat_uvel_del2            =   5.1170211480744E-05
(PID.TID 0000.0001) %MON dynstat_vvel_max             =   1.7424529119861E-01
(PID.TID 0000.0001) %MON dynstat_vvel_min             =  -2.2509294412755E-01
(PID.TID 0000.0001) %MON dynstat_vvel_mean            =  -4.0808609718654E-04
(PID.TID 0000.0001) %MON dynstat_vvel_sd              =   1.2652217094182E-02
(PID.TID 0000.0001) %MON dynstat_vvel_del2            =   5.0541039036064E-05
(PID.TID 0000.0001) %MON dynstat_wvel_max             =   1.0391564421480E-04
(PID.TID 0000.0001) %MON dynstat_wvel_min             =  -2.0498285634235E-04
(PID.TID 0000.0001) %MON dynstat_wvel_mean            =   9.5733513307901E-23
(PID.TID 0000.0001) %MON dynstat_wvel_sd              =   3.8323942195558E-06
(PID.TID 0000.0001) %MON dynstat_wvel_del2            =   2.6461370549988E-08
(PID.TID 0000.0001) %MON dynstat_theta_max            =   3.0957531462957E+01
(PID.TID 0000.0001) %MON dynstat_theta_min            =  -2.0116458623260E+00
(PID.TID 0000.0001) %MON dynstat_theta_mean           =   3.9104276322162E+00
(PID.TID 0000.0001) %MON dynstat_theta_sd             =   4.5737841764017E+00
(PID.TID 0000.0001) %MON dynstat_theta_del2           =   2.6159923473865E-03
(PID.TID 0000.0001) %MON dynstat_salt_max             =   4.1386403552128E+01
(PID.TID 0000.0001) %MON dynstat_salt_min             =   1.8384807552473E+01
(PID.TID 0000.0001) %MON dynstat_salt_mean            =   3.4772106372279E+01
(PID.TID 0000.0001) %MON dynstat_salt_sd              =   5.3138011582432E-01
(PID.TID 0000.0001) %MON dynstat_salt_del2            =   7.9537122750898E-04
(PID.TID 0000.0001) %MON forcing_qnet_max             =   4.5325934619927E+02
(PID.TID 0000.0001) %MON forcing_qnet_min             =  -2.1308103454435E+02
(PID.TID 0000.0001) %MON forcing_qnet_mean            =  -1.2170279128930E+01
(PID.TID 0000.0001) %MON forcing_qnet_sd              =   1.1525031618572E+02
(PID.TID 0000.0001) %MON forcing_qnet_del2            =   4.1847271762860E-01
(PID.TID 0000.0001) %MON forcing_qsw_max              =   0.0000000000000E+00
(PID.TID 0000.0001) %MON forcing_qsw_min              =   0.0000000000000E+00
(PID.TID 0000.0001) %MON forcing_qsw_mean             =   0.0000000000000E+00
(PID.TID 0000.0001) %MON forcing_qsw_sd               =   0.0000000000000E+00
(PID.TID 0000.0001) %MON forcing_qsw_del2             =   0.0000000000000E+00
(PID.TID 0000.0001) %MON forcing_empmr_max            =   7.6494447208479E-05
(PID.TID 0000.0001) %MON forcing_empmr_min            =  -1.5362614137596E-04
(PID.TID 0000.0001) %MON forcing_empmr_mean           =   4.1932798010144E-22
(PID.TID 0000.0001) %MON forcing_empmr_sd             =   2.4051723601802E-05
(PID.TID 0000.0001) %MON forcing_empmr_del2           =   1.2276157049243E-07
(PID.TID 0000.0001) %MON forcing_fu_max               =   2.4751003717351E-01
(PID.TID 0000.0001) %MON forcing_fu_min               =  -2.0922350306190E-01
(PID.TID 0000.0001) %MON forcing_fu_mean              =  -4.4609227933959E-03
(PID.TID 0000.0001) %MON forcing_fu_sd                =   6.3970406478471E-02
(PID.TID 0000.0001) %MON forcing_fu_del2              =   2.0564087338622E-04
(PID.TID 0000.0001) %MON forcing_fv_max               =   2.5817746358114E-01
(PID.TID 0000.0001) %MON forcing_fv_min               =  -3.2849573188785E-01
(PID.TID 0000.0001) %MON forcing_fv_mean              =  -1.3692352610712E-02
(PID.TID 0000.0001) %MON forcing_fv_sd                =   7.5242720295677E-02
(PID.TID 0000.0001) %MON forcing_fv_del2              =   2.3430754301775E-04
(PID.TID 0000.0001) %MON advcfl_uvel_max              =   8.1436802798126E-02
(PID.TID 0000.0001) %MON advcfl_vvel_max              =   7.5951067628488E-02
(PID.TID 0000.0001) %MON advcfl_wvel_max              =   6.6832146369732E-02
(PID.TID 0000.0001) %MON advcfl_W_hf_max              =   7.3793828283246E-02
(PID.TID 0000.0001) %MON pe_b_mean                    =   4.7611740802440E-04
(PID.TID 0000.0001) %MON ke_max                       =   4.0373637155737E-02
(PID.TID 0000.0001) %MON ke_mean                      =   1.4086523533294E-04
(PID.TID 0000.0001) %MON ke_vol                       =   1.3398024453628E+18
(PID.TID 0000.0001) %MON vort_r_min                   =  -1.1966642695090E-06
(PID.TID 0000.0001) %MON vort_r_max                   =   1.2197075632694E-06
(PID.TID 0000.0001) %MON vort_a_mean                  =  -2.0493733748264E-05
(PID.TID 0000.0001) %MON vort_a_sd                    =   7.5053947230174E-05
(PID.TID 0000.0001) %MON vort_p_mean                  =  -2.4715941295622E-05
(PID.TID 0000.0001) %MON vort_p_sd                    =   1.2776245049460E-04
(PID.TID 0000.0001) %MON surfExpan_theta_mean         =  -3.3875417432856E-08
(PID.TID 0000.0001) %MON surfExpan_salt_mean          =   1.0214724008321E-09
(PID.TID 0000.0001) // =======================================================
(PID.TID 0000.0001) // End MONITOR dynamic field statistics
(PID.TID 0000.0001) // =======================================================
 cg2d: Sum(rhs),rhsMax =  -9.63495949690696E-12  4.26757584348471E+00
(PID.TID 0000.0001)                    cg2d_init_res =    4.92585200321668E-01
(PID.TID 0000.0001)                       cg2d_iters =    64
(PID.TID 0000.0001)                         cg2d_res =    5.67640088082480E-07
(PID.TID 0000.0001) // =======================================================
(PID.TID 0000.0001) // Begin MONITOR dynamic field statistics
(PID.TID 0000.0001) // =======================================================
(PID.TID 0000.0001) %MON time_tsnumber                =                 72004
(PID.TID 0000.0001) %MON time_secondsf                =   6.2211456000000E+09
(PID.TID 0000.0001) %MON dynstat_eta_max              =   9.1107973080456E-01
(PID.TID 0000.0001) %MON dynstat_eta_min              =  -1.6156299921282E+00
(PID.TID 0000.0001) %MON dynstat_eta_mean             =   1.4345122979050E-14
(PID.TID 0000.0001) %MON dynstat_eta_sd               =   5.9743928374051E-01
(PID.TID 0000.0001) %MON dynstat_eta_del2             =   7.8750971802023E-04
(PID.TID 0000.0001) %MON dynstat_uvel_max             =   1.8758488774483E-01
(PID.TID 0000.0001) %MON dynstat_uvel_min             =  -2.8677219285926E-01
(PID.TID 0000.0001) %MON dynstat_uvel_mean            =  -4.8817937018110E-04
(PID.TID 0000.0001) %MON dynstat_uvel_sd              =   1.2025252368094E-02
(PID.TID 0000.0001) %MON dynstat_uvel_del2            =   5.1151799771113E-05
(PID.TID 0000.0001) %MON dynstat_vvel_max             =   1.7444014653656E-01
(PID.TID 0000.0001) %MON dynstat_vvel_min             =  -2.2504059190687E-01
(PID.TID 0000.0001) %MON dynstat_vvel_mean            =  -4.0909107499257E-04
(PID.TID 0000.0001) %MON dynstat_vvel_sd              =   1.2657057491485E-02
(PID.TID 0000.0001) %MON dynstat_vvel_del2            =   5.0509904313335E-05
(PID.TID 0000.0001) %MON dynstat_wvel_max             =   1.0427502501801E-04
(PID.TID 0000.0001) %MON dynstat_wvel_min             =  -2.0517598744287E-04
(PID.TID 0000.0001) %MON dynstat_wvel_mean            =  -6.0921326650482E-23
(PID.TID 0000.0001) %MON dynstat_wvel_sd              =   3.8320528317858E-06
(PID.TID 0000.0001) %MON dynstat_wvel_del2            =   2.6495563512854E-08
(PID.TID 0000.0001) %MON dynstat_theta_max            =   3.0967143708631E+01
(PID.TID 0000.0001) %MON dynstat_theta_min            =  -2.0161067331279E+00
(PID.TID 0000.0001) %MON dynstat_theta_mean           =   3.9104868462440E+00
(PID.TID 0000.0001) %MON dynstat_theta_sd             =   4.5737621128559E+00
(PID.TID 0000.0001) %MON dynstat_theta_del2           =   2.6092526501937E-03
(PID.TID 0000.0001) %MON dynstat_salt_max             =   4.1386446869754E+01
(PID.TID 0000.0001) %MON dynstat_salt_min             =   1.8385284839236E+01
(PID.TID 0000.0001) %MON dynstat_salt_mean            =   3.4772106803285E+01
(PID.TID 0000.0001) %MON dynstat_salt_sd              =   5.3136147515586E-01
(PID.TID 0000.0001) %MON dynstat_salt_del2            =   7.9372961282754E-04
(PID.TID 0000.0001) %MON forcing_qnet_max             =   4.5316488523137E+02
(PID.TID 0000.0001) %MON forcing_qnet_min             =  -2.1210868055774E+02
(PID.TID 0000.0001) %MON forcing_qnet_mean            =  -1.2182507497573E+01
(PID.TID 0000.0001) %MON forcing_qnet_sd              =   1.1505843893838E+02
(PID.TID 0000.0001) %MON forcing_qnet_del2            =   4.1968961974738E-01
(PID.TID 0000.0001) %MON forcing_qsw_max              =   0.0000000000000E+00
(PID.TID 0000.0001) %MON forcing_qsw_min              =   0.0000000000000E+00
(PID.TID 0000.0001) %MON forcing_qsw_mean             =   0.0000000000000E+00
(PID.TID 0000.0001) %MON forcing_qsw_sd               =   0.0000000000000E+00
(PID.TID 0000.0001) %MON forcing_qsw_del2             =   0.0000000000000E+00
(PID.TID 0000.0001) %MON forcing_empmr_max            =   7.6494447208479E-05
(PID.TID 0000.0001) %MON forcing_empmr_min            =  -1.5362614137596E-04
(PID.TID 0000.0001) %MON forcing_empmr_mean           =   4.1932798010144E-22
(PID.TID 0000.0001) %MON forcing_empmr_sd             =   2.4051723601802E-05
(PID.TID 0000.0001) %MON forcing_empmr_del2           =   1.2276157049243E-07
(PID.TID 0000.0001) %MON forcing_fu_max               =   2.4746198790331E-01
(PID.TID 0000.0001) %MON forcing_fu_min               =  -2.1236929972025E-01
(PID.TID 0000.0001) %MON forcing_fu_mean              =  -4.4174438576624E-03
(PID.TID 0000.0001) %MON forcing_fu_sd                =   6.4007100989353E-02
(PID.TID 0000.0001) %MON forcing_fu_del2              =   2.0627372714610E-04
(PID.TID 0000.0001) %MON forcing_fv_max               =   2.6086070515377E-01
(PID.TID 0000.0001) %MON forcing_fv_min               =  -3.2928363582178E-01
(PID.TID 0000.0001) %MON forcing_fv_mean              =  -1.3696278156640E-02
(PID.TID 0000.0001) %MON forcing_fv_sd                =   7.5302823094907E-02
(PID.TID 0000.0001) %MON forcing_fv_del2              =   2.3489534074143E-04
(PID.TID 0000.0001) %MON advcfl_uvel_max              =   8.1334033586713E-02
(PID.TID 0000.0001) %MON advcfl_vvel_max              =   7.6036002325138E-02
(PID.TID 0000.0001) %MON advcfl_wvel_max              =   6.6895114396469E-02
(PID.TID 0000.0001) %MON advcfl_W_hf_max              =   7.3863355479434E-02
(PID.TID 0000.0001) %MON pe_b_mean                    =   4.7550164536350E-04
(PID.TID 0000.0001) %MON ke_max                       =   4.0257743990618E-02
(PID.TID 0000.0001) %MON ke_mean                      =   1.4094130856298E-04
(PID.TID 0000.0001) %MON ke_vol                       =   1.3398024453628E+18
(PID.TID 0000.0001) %MON vort_r_min                   =  -1.2013156269796E-06
(PID.TID 0000.0001) %MON vort_r_max                   =   1.2222077107171E-06
(PID.TID 0000.0001) %MON vort_a_mean                  =  -2.0493733748264E-05
(PID.TID 0000.0001) %MON vort_a_sd                    =   7.5053947047526E-05
(PID.TID 0000.0001) %MON vort_p_mean                  =  -2.4715941228765E-05
(PID.TID 0000.0001) %MON vort_p_sd                    =   1.2776244882282E-04
(PID.TID 0000.0001) %MON surfExpan_theta_mean         =  -2.8411304081335E-08
(PID.TID 0000.0001) %MON surfExpan_salt_mean          =   8.9952603699715E-10
(PID.TID 0000.0001) // =======================================================
(PID.TID 0000.0001) // End MONITOR dynamic field statistics
(PID.TID 0000.0001) // =======================================================
 cg2d: Sum(rhs),rhsMax =  -9.63495949690696E-12  4.26162662718429E+00
(PID.TID 0000.0001)                    cg2d_init_res =    4.95098950504696E-01
(PID.TID 0000.0001)                       cg2d_iters =    64
(PID.TID 0000.0001)                         cg2d_res =    5.57971658452552E-07
(PID.TID 0000.0001) // =======================================================
(PID.TID 0000.0001) // Begin MONITOR dynamic field statistics
(PID.TID 0000.0001) // =======================================================
(PID.TID 0000.0001) %MON time_tsnumber                =                 72005
(PID.TID 0000.0001) %MON time_secondsf                =   6.2212320000000E+09
(PID.TID 0000.0001) %MON dynstat_eta_max              =   9.0929192476042E-01
(PID.TID 0000.0001) %MON dynstat_eta_min              =  -1.6150576867131E+00
(PID.TID 0000.0001) %MON dynstat_eta_mean             =   1.4510009450074E-14
(PID.TID 0000.0001) %MON dynstat_eta_sd               =   5.9715330286643E-01
(PID.TID 0000.0001) %MON dynstat_eta_del2             =   7.8667432581346E-04
(PID.TID 0000.0001) %MON dynstat_uvel_max             =   1.8777815847734E-01
(PID.TID 0000.0001) %MON dynstat_uvel_min             =  -2.8638658468881E-01
(PID.TID 0000.0001) %MON dynstat_uvel_mean            =  -4.8829380631879E-04
(PID.TID 0000.0001) %MON dynstat_uvel_sd              =   1.2027320899637E-02
(PID.TID 0000.0001) %MON dynstat_uvel_del2            =   5.1131625568203E-05
(PID.TID 0000.0001) %MON dynstat_vvel_max             =   1.7459572937430E-01
(PID.TID 0000.0001) %MON dynstat_vvel_min             =  -2.2497968609078E-01
(PID.TID 0000.0001) %MON dynstat_vvel_mean            =  -4.0986745391379E-04
(PID.TID 0000.0001) %MON dynstat_vvel_sd              =   1.2662253318115E-02
(PID.TID 0000.0001) %MON dynstat_vvel_del2            =   5.0479448995838E-05
(PID.TID 0000.0001) %MON dynstat_wvel_max             =   1.0470380313776E-04
(PID.TID 0000.0001) %MON dynstat_wvel_min             =  -2.0530761657887E-04
(PID.TID 0000.0001) %MON dynstat_wvel_mean            =   6.5272849982660E-23
(PID.TID 0000.0001) %MON dynstat_wvel_sd              =   3.8320612515454E-06
(PID.TID 0000.0001) %MON dynstat_wvel_del2            =   2.6535547621625E-08
(PID.TID 0000.0001) %MON dynstat_theta_max            =   3.0976307800705E+01
(PID.TID 0000.0001) %MON dynstat_theta_min            =  -2.0208097334379E+00
(PID.TID 0000.0001) %MON dynstat_theta_mean           =   3.9105461906222E+00
(PID.TID 0000.0001) %MON dynstat_theta_sd             =   4.5737514192218E+00
(PID.TID 0000.0001) %MON dynstat_theta_del2           =   2.5984488047416E-03
(PID.TID 0000.0001) %MON dynstat_salt_max             =   4.1386490498963E+01
(PID.TID 0000.0001) %MON dynstat_salt_min             =   1.8385767788341E+01
(PID.TID 0000.0001) %MON dynstat_salt_mean            =   3.4772107247266E+01
(PID.TID 0000.0001) %MON dynstat_salt_sd              =   5.3134514128897E-01
(PID.TID 0000.0001) %MON dynstat_salt_del2            =   7.9028333374668E-04
(PID.TID 0000.0001) %MON forcing_qnet_max             =   4.5307042426348E+02
(PID.TID 0000.0001) %MON forcing_qnet_min             =  -2.1113632657113E+02
(PID.TID 0000.0001) %MON forcing_qnet_mean            =  -1.2194735866216E+01
(PID.TID 0000.0001) %MON forcing_qnet_sd              =   1.1487317231679E+02
(PID.TID 0000.0001) %MON forcing_qnet_del2            =   4.2102601790904E-01
(PID.TID 0000.0001) %MON forcing_qsw_max              =   0.0000000000000E+00
(PID.TID 0000.0001) %MON forcing_qsw_min              =   0.0000000000000E+00
(PID.TID 0000.0001) %MON forcing_qsw_mean             =   0.0000000000000E+00
(PID.TID 0000.0001) %MON forcing_qsw_sd               =   0.0000000000000E+00
(PID.TID 0000.0001) %MON forcing_qsw_del2             =   0.0000000000000E+00
(PID.TID 0000.0001) %MON forcing_empmr_max            =   7.6494447208479E-05
(PID.TID 0000.0001) %MON forcing_empmr_min            =  -1.5362614137596E-04
(PID.TID 0000.0001) %MON forcing_empmr_mean           =   4.1932798010144E-22
(PID.TID 0000.0001) %MON forcing_empmr_sd             =   2.4051723601802E-05
(PID.TID 0000.0001) %MON forcing_empmr_del2           =   1.2276157049243E-07
(PID.TID 0000.0001) %MON forcing_fu_max               =   2.4741393863310E-01
(PID.TID 0000.0001) %MON forcing_fu_min               =  -2.1551509637860E-01
(PID.TID 0000.0001) %MON forcing_fu_mean              =  -4.3739649219290E-03
(PID.TID 0000.0001) %MON forcing_fu_sd                =   6.4057227278753E-02
(PID.TID 0000.0001) %MON forcing_fu_del2              =   2.0714462929353E-04
(PID.TID 0000.0001) %MON forcing_fv_max               =   2.6354394672640E-01
(PID.TID 0000.0001) %MON forcing_fv_min               =  -3.3007153975572E-01
(PID.TID 0000.0001) %MON forcing_fv_mean              =  -1.3700203702567E-02
(PID.TID 0000.0001) %MON forcing_fv_sd                =   7.5373226864996E-02
(PID.TID 0000.0001) %MON forcing_fv_del2              =   2.3568352349763E-04
(PID.TID 0000.0001) %MON advcfl_uvel_max              =   8.1224667795095E-02
(PID.TID 0000.0001) %MON advcfl_vvel_max              =   7.6103818692224E-02
(PID.TID 0000.0001) %MON advcfl_wvel_max              =   6.6938030461942E-02
(PID.TID 0000.0001) %MON advcfl_W_hf_max              =   7.3910741968395E-02
(PID.TID 0000.0001) %MON pe_b_mean                    =   4.7504653022956E-04
(PID.TID 0000.0001) %MON ke_max                       =   4.0138735944087E-02
(PID.TID 0000.0001) %MON ke_mean                      =   1.4102554246549E-04
(PID.TID 0000.0001) %MON ke_vol                       =   1.3398024453628E+18
(PID.TID 0000.0001) %MON vort_r_min                   =  -1.2061841880097E-06
(PID.TID 0000.0001) %MON vort_r_max                   =   1.2250462761025E-06
(PID.TID 0000.0001) %MON vort_a_mean                  =  -2.0493733748264E-05
(PID.TID 0000.0001) %MON vort_a_sd                    =   7.5053946935435E-05
(PID.TID 0000.0001) %MON vort_p_mean                  =  -2.4715941187022E-05
(PID.TID 0000.0001) %MON vort_p_sd                    =   1.2776244856588E-04
(PID.TID 0000.0001) %MON surfExpan_theta_mean         =  -2.1030228162043E-08
(PID.TID 0000.0001) %MON surfExpan_salt_mean          =   7.5648343598245E-10
(PID.TID 0000.0001) // =======================================================
(PID.TID 0000.0001) // End MONITOR dynamic field statistics
(PID.TID 0000.0001) // =======================================================
 cg2d: Sum(rhs),rhsMax =  -9.77706804405898E-12  4.25572412780547E+00
(PID.TID 0000.0001)                    cg2d_init_res =    4.80472463279978E-01
(PID.TID 0000.0001)                       cg2d_iters =    64
(PID.TID 0000.0001)                         cg2d_res =    5.34609847032730E-07
(PID.TID 0000.0001) // =======================================================
(PID.TID 0000.0001) // Begin MONITOR dynamic field statistics
(PID.TID 0000.0001) // =======================================================
(PID.TID 0000.0001) %MON time_tsnumber                =                 72006
(PID.TID 0000.0001) %MON time_secondsf                =   6.2213184000000E+09
(PID.TID 0000.0001) %MON dynstat_eta_max              =   9.0760355032322E-01
(PID.TID 0000.0001) %MON dynstat_eta_min              =  -1.6146694797999E+00
(PID.TID 0000.0001) %MON dynstat_eta_mean             =   1.4345122979050E-14
(PID.TID 0000.0001) %MON dynstat_eta_sd               =   5.9694994780693E-01
(PID.TID 0000.0001) %MON dynstat_eta_del2             =   7.8584812954355E-04
(PID.TID 0000.0001) %MON dynstat_uvel_max             =   1.8792208213444E-01
(PID.TID 0000.0001) %MON dynstat_uvel_min             =  -2.8598030482465E-01
(PID.TID 0000.0001) %MON dynstat_uvel_mean            =  -4.8852978655020E-04
(PID.TID 0000.0001) %MON dynstat_uvel_sd              =   1.2029737685721E-02
(PID.TID 0000.0001) %MON dynstat_uvel_del2            =   5.1110248126944E-05
(PID.TID 0000.0001) %MON dynstat_vvel_max             =   1.7470792249046E-01
(PID.TID 0000.0001) %MON dynstat_vvel_min             =  -2.2491051808803E-01
(PID.TID 0000.0001) %MON dynstat_vvel_mean            =  -4.1043573367219E-04
(PID.TID 0000.0001) %MON dynstat_vvel_sd              =   1.2667697542759E-02
(PID.TID 0000.0001) %MON dynstat_vvel_del2            =   5.0449574230972E-05
(PID.TID 0000.0001) %MON dynstat_wvel_max             =   1.0519289524686E-04
(PID.TID 0000.0001) %MON dynstat_wvel_min             =  -2.0537574462461E-04
(PID.TID 0000.0001) %MON dynstat_wvel_mean            =   5.8020311095697E-23
(PID.TID 0000.0001) %MON dynstat_wvel_sd              =   3.8322272703447E-06
(PID.TID 0000.0001) %MON dynstat_wvel_del2            =   2.6578971013624E-08
(PID.TID 0000.0001) %MON dynstat_theta_max            =   3.0985053158797E+01
(PID.TID 0000.0001) %MON dynstat_theta_min            =  -2.0257283668828E+00
(PID.TID 0000.0001) %MON dynstat_theta_mean           =   3.9106058184233E+00
(PID.TID 0000.0001) %MON dynstat_theta_sd             =   4.5737480138041E+00
(PID.TID 0000.0001) %MON dynstat_theta_del2           =   2.5898027999932E-03
(PID.TID 0000.0001) %MON dynstat_salt_max             =   4.1386531036937E+01
(PID.TID 0000.0001) %MON dynstat_salt_min             =   1.8386256306801E+01
(PID.TID 0000.0001) %MON dynstat_salt_mean            =   3.4772107711049E+01
(PID.TID 0000.0001) %MON dynstat_salt_sd              =   5.3132864925804E-01
(PID.TID 0000.0001) %MON dynstat_salt_del2            =   7.8735465698497E-04
(PID.TID 0000.0001) %MON forcing_qnet_max             =   4.5297596329558E+02
(PID.TID 0000.0001) %MON forcing_qnet_min             =  -2.1016397258453E+02
(PID.TID 0000.0001) %MON forcing_qnet_mean            =  -1.2206964234860E+01
(PID.TID 0000.0001) %MON forcing_qnet_sd              =   1.1469454835547E+02
(PID.TID 0000.0001) %MON forcing_qnet_del2            =   4.2248077813955E-01
(PID.TID 0000.0001) %MON forcing_qsw_max              =   0.0000000000000E+00
(PID.TID 0000.0001) %MON forcing_qsw_min              =   0.0000000000000E+00
(PID.TID 0000.0001) %MON forcing_qsw_mean             =   0.0000000000000E+00
(PID.TID 0000.0001) %MON forcing_qsw_sd               =   0.0000000000000E+00
(PID.TID 0000.0001) %MON forcing_qsw_del2             =   0.0000000000000E+00
(PID.TID 0000.0001) %MON forcing_empmr_max            =   7.6494447208479E-05
(PID.TID 0000.0001) %MON forcing_empmr_min            =  -1.5362614137596E-04
(PID.TID 0000.0001) %MON forcing_empmr_mean           =   4.1932798010144E-22
(PID.TID 0000.0001) %MON forcing_empmr_sd             =   2.4051723601802E-05
(PID.TID 0000.0001) %MON forcing_empmr_del2           =   1.2276157049243E-07
(PID.TID 0000.0001) %MON forcing_fu_max               =   2.4736588936290E-01
(PID.TID 0000.0001) %MON forcing_fu_min               =  -2.1866089303695E-01
(PID.TID 0000.0001) %MON forcing_fu_mean              =  -4.3304859861956E-03
(PID.TID 0000.0001) %MON forcing_fu_sd                =   6.4120753845867E-02
(PID.TID 0000.0001) %MON forcing_fu_del2              =   2.0825059330114E-04
(PID.TID 0000.0001) %MON forcing_fv_max               =   2.6622718829904E-01
(PID.TID 0000.0001) %MON forcing_fv_min               =  -3.3085944368965E-01
(PID.TID 0000.0001) %MON forcing_fv_mean              =  -1.3704129248494E-02
(PID.TID 0000.0001) %MON forcing_fv_sd                =   7.5453902771370E-02
(PID.TID 0000.0001) %MON forcing_fv_del2              =   2.3667008926707E-04
(PID.TID 0000.0001) %MON advcfl_uvel_max              =   8.1109439119023E-02
(PID.TID 0000.0001) %MON advcfl_vvel_max              =   7.6152722090960E-02
(PID.TID 0000.0001) %MON advcfl_wvel_max              =   6.6960242775722E-02
(PID.TID 0000.0001) %MON advcfl_W_hf_max              =   7.3935268064860E-02
(PID.TID 0000.0001) %MON pe_b_mean                    =   4.7472303987522E-04
(PID.TID 0000.0001) %MON ke_max                       =   4.0016820000370E-02
(PID.TID 0000.0001) %MON ke_mean                      =   1.4111655153423E-04
(PID.TID 0000.0001) %MON ke_vol                       =   1.3398024453628E+18
(PID.TID 0000.0001) %MON vort_r_min                   =  -1.2112240513571E-06
(PID.TID 0000.0001) %MON vort_r_max                   =   1.2281441255042E-06
(PID.TID 0000.0001) %MON vort_a_mean                  =  -2.0493733748264E-05
(PID.TID 0000.0001) %MON vort_a_sd                    =   7.5053946883137E-05
(PID.TID 0000.0001) %MON vort_p_mean                  =  -2.4715941151131E-05
(PID.TID 0000.0001) %MON vort_p_sd                    =   1.2776244980490E-04
(PID.TID 0000.0001) %MON surfExpan_theta_mean         =  -1.5114236124205E-08
(PID.TID 0000.0001) %MON surfExpan_salt_mean          =   3.6639564162390E-10
(PID.TID 0000.0001) // =======================================================
(PID.TID 0000.0001) // End MONITOR dynamic field statistics
(PID.TID 0000.0001) // =======================================================
 cg2d: Sum(rhs),rhsMax =  -9.49285094975494E-12  4.24991959387360E+00
(PID.TID 0000.0001)                    cg2d_init_res =    4.75169719177172E-01
(PID.TID 0000.0001)                       cg2d_iters =    64
(PID.TID 0000.0001)                         cg2d_res =    5.03955503180510E-07
(PID.TID 0000.0001) // =======================================================
(PID.TID 0000.0001) // Begin MONITOR dynamic field statistics
(PID.TID 0000.0001) // =======================================================
(PID.TID 0000.0001) %MON time_tsnumber                =                 72007
(PID.TID 0000.0001) %MON time_secondsf                =   6.2214048000000E+09
(PID.TID 0000.0001) %MON dynstat_eta_max              =   9.0601287400222E-01
(PID.TID 0000.0001) %MON dynstat_eta_min              =  -1.6143398449878E+00
(PID.TID 0000.0001) %MON dynstat_eta_mean             =   1.4510009450074E-14
(PID.TID 0000.0001) %MON dynstat_eta_sd               =   5.9680638981923E-01
(PID.TID 0000.0001) %MON dynstat_eta_del2             =   7.8504831125765E-04
(PID.TID 0000.0001) %MON dynstat_uvel_max             =   1.8801440122608E-01
(PID.TID 0000.0001) %MON dynstat_uvel_min             =  -2.8555530394990E-01
(PID.TID 0000.0001) %MON dynstat_uvel_mean            =  -4.8877860803495E-04
(PID.TID 0000.0001) %MON dynstat_uvel_sd              =   1.2032499169036E-02
(PID.TID 0000.0001) %MON dynstat_uvel_del2            =   5.1087895098804E-05
(PID.TID 0000.0001) %MON dynstat_vvel_max             =   1.7477439541009E-01
(PID.TID 0000.0001) %MON dynstat_vvel_min             =  -2.2483360369430E-01
(PID.TID 0000.0001) %MON dynstat_vvel_mean            =  -4.1086492632174E-04
(PID.TID 0000.0001) %MON dynstat_vvel_sd              =   1.2673281649479E-02
(PID.TID 0000.0001) %MON dynstat_vvel_del2            =   5.0420320897460E-05
(PID.TID 0000.0001) %MON dynstat_wvel_max             =   1.0572397892122E-04
(PID.TID 0000.0001) %MON dynstat_wvel_min             =  -2.0537633520460E-04
(PID.TID 0000.0001) %MON dynstat_wvel_mean            =   7.2525388869622E-23
(PID.TID 0000.0001) %MON dynstat_wvel_sd              =   3.8323847225735E-06
(PID.TID 0000.0001) %MON dynstat_wvel_del2            =   2.6623120233134E-08
(PID.TID 0000.0001) %MON dynstat_theta_max            =   3.0993412156027E+01
(PID.TID 0000.0001) %MON dynstat_theta_min            =  -2.0308386992848E+00
(PID.TID 0000.0001) %MON dynstat_theta_mean           =   3.9106657079545E+00
(PID.TID 0000.0001) %MON dynstat_theta_sd             =   4.5737518866880E+00
(PID.TID 0000.0001) %MON dynstat_theta_del2           =   2.5810000910541E-03
(PID.TID 0000.0001) %MON dynstat_salt_max             =   4.1386563378208E+01
(PID.TID 0000.0001) %MON dynstat_salt_min             =   1.8386750324697E+01
(PID.TID 0000.0001) %MON dynstat_salt_mean            =   3.4772108191929E+01
(PID.TID 0000.0001) %MON dynstat_salt_sd              =   5.3131167974554E-01
(PID.TID 0000.0001) %MON dynstat_salt_del2            =   7.8443291292517E-04
(PID.TID 0000.0001) %MON forcing_qnet_max             =   4.5288150232768E+02
(PID.TID 0000.0001) %MON forcing_qnet_min             =  -2.0919161859792E+02
(PID.TID 0000.0001) %MON forcing_qnet_mean            =  -1.2219192603503E+01
(PID.TID 0000.0001) %MON forcing_qnet_sd              =   1.1452259813662E+02
(PID.TID 0000.0001) %MON forcing_qnet_del2            =   4.2405268227766E-01
(PID.TID 0000.0001) %MON forcing_qsw_max              =   0.0000000000000E+00
(PID.TID 0000.0001) %MON forcing_qsw_min              =   0.0000000000000E+00
(PID.TID 0000.0001) %MON forcing_qsw_mean             =   0.0000000000000E+00
(PID.TID 0000.0001) %MON forcing_qsw_sd               =   0.0000000000000E+00
(PID.TID 0000.0001) %MON forcing_qsw_del2             =   0.0000000000000E+00
(PID.TID 0000.0001) %MON forcing_empmr_max            =   7.6494447208479E-05
(PID.TID 0000.0001) %MON forcing_empmr_min            =  -1.5362614137596E-04
(PID.TID 0000.0001) %MON forcing_empmr_mean           =   4.1932798010144E-22
(PID.TID 0000.0001) %MON forcing_empmr_sd             =   2.4051723601802E-05
(PID.TID 0000.0001) %MON forcing_empmr_del2           =   1.2276157049243E-07
(PID.TID 0000.0001) %MON forcing_fu_max               =   2.4731784009269E-01
(PID.TID 0000.0001) %MON forcing_fu_min               =  -2.2180668969530E-01
(PID.TID 0000.0001) %MON forcing_fu_mean              =  -4.2870070504621E-03
(PID.TID 0000.0001) %MON forcing_fu_sd                =   6.4197640910106E-02
(PID.TID 0000.0001) %MON forcing_fu_del2              =   2.0958789804308E-04
(PID.TID 0000.0001) %MON forcing_fv_max               =   2.6891042987167E-01
(PID.TID 0000.0001) %MON forcing_fv_min               =  -3.3164734762358E-01
(PID.TID 0000.0001) %MON forcing_fv_mean              =  -1.3708054794422E-02
(PID.TID 0000.0001) %MON forcing_fv_sd                =   7.5544817904543E-02
(PID.TID 0000.0001) %MON forcing_fv_del2              =   2.3785256950118E-04
(PID.TID 0000.0001) %MON advcfl_uvel_max              =   8.0988900809234E-02
(PID.TID 0000.0001) %MON advcfl_vvel_max              =   7.6181696700139E-02
(PID.TID 0000.0001) %MON advcfl_wvel_max              =   6.6960435327085E-02
(PID.TID 0000.0001) %MON advcfl_W_hf_max              =   7.3935480673656E-02
(PID.TID 0000.0001) %MON pe_b_mean                    =   4.7449473902695E-04
(PID.TID 0000.0001) %MON ke_max                       =   3.9892063512167E-02
(PID.TID 0000.0001) %MON ke_mean                      =   1.4121300370610E-04
(PID.TID 0000.0001) %MON ke_vol                       =   1.3398024453628E+18
(PID.TID 0000.0001) %MON vort_r_min                   =  -1.2163925922160E-06
(PID.TID 0000.0001) %MON vort_r_max                   =   1.2314416411516E-06
(PID.TID 0000.0001) %MON vort_a_mean                  =  -2.0493733748264E-05
(PID.TID 0000.0001) %MON vort_a_sd                    =   7.5053946874123E-05
(PID.TID 0000.0001) %MON vort_p_mean                  =  -2.4715941107934E-05
(PID.TID 0000.0001) %MON vort_p_sd                    =   1.2776245224239E-04
(PID.TID 0000.0001) %MON surfExpan_theta_mean         =  -1.1613704967002E-08
(PID.TID 0000.0001) %MON surfExpan_salt_mean          =  -2.0093784754479E-10
(PID.TID 0000.0001) // =======================================================
(PID.TID 0000.0001) // End MONITOR dynamic field statistics
(PID.TID 0000.0001) // =======================================================
 cg2d: Sum(rhs),rhsMax =  -9.66338120633736E-12  4.24428631923664E+00
(PID.TID 0000.0001)                    cg2d_init_res =    4.70981811765105E-01
(PID.TID 0000.0001)                       cg2d_iters =    64
(PID.TID 0000.0001)                         cg2d_res =    4.64861886441475E-07
(PID.TID 0000.0001) // =======================================================
(PID.TID 0000.0001) // Begin MONITOR dynamic field statistics
(PID.TID 0000.0001) // =======================================================
(PID.TID 0000.0001) %MON time_tsnumber                =                 72008
(PID.TID 0000.0001) %MON time_secondsf                =   6.2214912000000E+09
(PID.TID 0000.0001) %MON dynstat_eta_max              =   9.0451345196683E-01
(PID.TID 0000.0001) %MON dynstat_eta_min              =  -1.6140260084874E+00
(PID.TID 0000.0001) %MON dynstat_eta_mean             =   1.4372604057554E-14
(PID.TID 0000.0001) %MON dynstat_eta_sd               =   5.9670468438995E-01
(PID.TID 0000.0001) %MON dynstat_eta_del2             =   7.8427698796227E-04
(PID.TID 0000.0001) %MON dynstat_uvel_max             =   1.8805335852102E-01
(PID.TID 0000.0001) %MON dynstat_uvel_min             =  -2.8511315921808E-01
(PID.TID 0000.0001) %MON dynstat_uvel_mean            =  -4.8892025184925E-04
(PID.TID 0000.0001) %MON dynstat_uvel_sd              =   1.2035591710078E-02
(PID.TID 0000.0001) %MON dynstat_uvel_del2            =   5.1064867401649E-05
(PID.TID 0000.0001) %MON dynstat_vvel_max             =   1.7479430206473E-01
(PID.TID 0000.0001) %MON dynstat_vvel_min             =  -2.2474971351315E-01
(PID.TID 0000.0001) %MON dynstat_vvel_mean            =  -4.1122018695678E-04
(PID.TID 0000.0001) %MON dynstat_vvel_sd              =   1.2678891132044E-02
(PID.TID 0000.0001) %MON dynstat_vvel_del2            =   5.0391656080747E-05
(PID.TID 0000.0001) %MON dynstat_wvel_max             =   1.0630673859465E-04
(PID.TID 0000.0001) %MON dynstat_wvel_min             =  -2.0534565600227E-04
(PID.TID 0000.0001) %MON dynstat_wvel_mean            =   5.1493026097431E-23
(PID.TID 0000.0001) %MON dynstat_wvel_sd              =   3.8325438244108E-06
(PID.TID 0000.0001) %MON dynstat_wvel_del2            =   2.6668680277402E-08
(PID.TID 0000.0001) %MON dynstat_theta_max            =   3.1001413920808E+01
(PID.TID 0000.0001) %MON dynstat_theta_min            =  -2.0361180563535E+00
(PID.TID 0000.0001) %MON dynstat_theta_mean           =   3.9107259626712E+00
(PID.TID 0000.0001) %MON dynstat_theta_sd             =   4.5737639836567E+00
(PID.TID 0000.0001) %MON dynstat_theta_del2           =   2.5722388701832E-03
(PID.TID 0000.0001) %MON dynstat_salt_max             =   4.1386581775959E+01
(PID.TID 0000.0001) %MON dynstat_salt_min             =   1.8387249788099E+01
(PID.TID 0000.0001) %MON dynstat_salt_mean            =   3.4772108690767E+01
(PID.TID 0000.0001) %MON dynstat_salt_sd              =   5.3129500997908E-01
(PID.TID 0000.0001) %MON dynstat_salt_del2            =   7.8150428297818E-04
(PID.TID 0000.0001) %MON forcing_qnet_max             =   4.5278704135979E+02
(PID.TID 0000.0001) %MON forcing_qnet_min             =  -2.0821926461131E+02
(PID.TID 0000.0001) %MON forcing_qnet_mean            =  -1.2231420972146E+01
(PID.TID 0000.0001) %MON forcing_qnet_sd              =   1.1435735176461E+02
(PID.TID 0000.0001) %MON forcing_qnet_del2            =   4.2574043278125E-01
(PID.TID 0000.0001) %MON forcing_qsw_max              =   0.0000000000000E+00
(PID.TID 0000.0001) %MON forcing_qsw_min              =   0.0000000000000E+00
(PID.TID 0000.0001) %MON forcing_qsw_mean             =   0.0000000000000E+00
(PID.TID 0000.0001) %MON forcing_qsw_sd               =   0.0000000000000E+00
(PID.TID 0000.0001) %MON forcing_qsw_del2             =   0.0000000000000E+00
(PID.TID 0000.0001) %MON forcing_empmr_max            =   7.6494447208479E-05
(PID.TID 0000.0001) %MON forcing_empmr_min            =  -1.5362614137596E-04
(PID.TID 0000.0001) %MON forcing_empmr_mean           =   0.0000000000000E+00
(PID.TID 0000.0001) %MON forcing_empmr_sd             =   2.4051723601802E-05
(PID.TID 0000.0001) %MON forcing_empmr_del2           =   1.2276157049243E-07
(PID.TID 0000.0001) %MON forcing_fu_max               =   2.4726979082249E-01
(PID.TID 0000.0001) %MON forcing_fu_min               =  -2.2495248635365E-01
(PID.TID 0000.0001) %MON forcing_fu_mean              =  -4.2435281147287E-03
(PID.TID 0000.0001) %MON forcing_fu_sd                =   6.4287840534767E-02
(PID.TID 0000.0001) %MON forcing_fu_del2              =   2.1115214806548E-04
(PID.TID 0000.0001) %MON forcing_fv_max               =   2.7159367144430E-01
(PID.TID 0000.0001) %MON forcing_fv_min               =  -3.3243525155752E-01
(PID.TID 0000.0001) %MON forcing_fv_mean              =  -1.3711980340349E-02
(PID.TID 0000.0001) %MON forcing_fv_sd                =   7.5645935346452E-02
(PID.TID 0000.0001) %MON forcing_fv_del2              =   2.3922805906111E-04
(PID.TID 0000.0001) %MON advcfl_uvel_max              =   8.0863500176386E-02
(PID.TID 0000.0001) %MON advcfl_vvel_max              =   7.6190373730449E-02
(PID.TID 0000.0001) %MON advcfl_wvel_max              =   6.6950432749419E-02
(PID.TID 0000.0001) %MON advcfl_W_hf_max              =   7.3924436160817E-02
(PID.TID 0000.0001) %MON pe_b_mean                    =   4.7433302970239E-04
(PID.TID 0000.0001) %MON ke_max                       =   3.9764472031185E-02
(PID.TID 0000.0001) %MON ke_mean                      =   1.4131337657786E-04
(PID.TID 0000.0001) %MON ke_vol                       =   1.3398024453628E+18
(PID.TID 0000.0001) %MON vort_r_min                   =  -1.2216506944822E-06
(PID.TID 0000.0001) %MON vort_r_max                   =   1.2348820975686E-06
(PID.TID 0000.0001) %MON vort_a_mean                  =  -2.0493733748264E-05
(PID.TID 0000.0001) %MON vort_a_sd                    =   7.5053946891592E-05
(PID.TID 0000.0001) %MON vort_p_mean                  =  -2.4715941058144E-05
(PID.TID 0000.0001) %MON vort_p_sd                    =   1.2776245549475E-04
(PID.TID 0000.0001) %MON surfExpan_theta_mean         =  -1.0207104367994E-08
(PID.TID 0000.0001) %MON surfExpan_salt_mean          =  -8.2821034688318E-10
(PID.TID 0000.0001) // =======================================================
(PID.TID 0000.0001) // End MONITOR dynamic field statistics
(PID.TID 0000.0001) // =======================================================
 cg2d: Sum(rhs),rhsMax =  -9.52127265918534E-12  4.23890091275048E+00
(PID.TID 0000.0001)                    cg2d_init_res =    4.66781022426738E-01
(PID.TID 0000.0001)                       cg2d_iters =    63
(PID.TID 0000.0001)                         cg2d_res =    5.71284780810144E-07
(PID.TID 0000.0001) // =======================================================
(PID.TID 0000.0001) // Begin MONITOR dynamic field statistics
(PID.TID 0000.0001) // =======================================================
(PID.TID 0000.0001) %MON time_tsnumber                =                 72009
(PID.TID 0000.0001) %MON time_secondsf                =   6.2215776000000E+09
(PID.TID 0000.0001) %MON dynstat_eta_max              =   9.0311268058725E-01
(PID.TID 0000.0001) %MON dynstat_eta_min              =  -1.6137253950934E+00
(PID.TID 0000.0001) %MON dynstat_eta_mean             =   1.4180236508027E-14
(PID.TID 0000.0001) %MON dynstat_eta_sd               =   5.9663337923483E-01
(PID.TID 0000.0001) %MON dynstat_eta_del2             =   7.8354909882930E-04
(PID.TID 0000.0001) %MON dynstat_uvel_max             =   1.8803786991990E-01
(PID.TID 0000.0001) %MON dynstat_uvel_min             =  -2.8465516302375E-01
(PID.TID 0000.0001) %MON dynstat_uvel_mean            =  -4.8886663887499E-04
(PID.TID 0000.0001) %MON dynstat_uvel_sd              =   1.2038988183769E-02
(PID.TID 0000.0001) %MON dynstat_uvel_del2            =   5.1041424818307E-05
(PID.TID 0000.0001) %MON dynstat_vvel_max             =   1.7476795174790E-01
(PID.TID 0000.0001) %MON dynstat_vvel_min             =  -2.2465969641020E-01
(PID.TID 0000.0001) %MON dynstat_vvel_mean            =  -4.1153861424204E-04
(PID.TID 0000.0001) %MON dynstat_vvel_sd              =   1.2684412955917E-02
(PID.TID 0000.0001) %MON dynstat_vvel_del2            =   5.0363500270414E-05
(PID.TID 0000.0001) %MON dynstat_wvel_max             =   1.0691411786352E-04
(PID.TID 0000.0001) %MON dynstat_wvel_min             =  -2.0524730860515E-04
(PID.TID 0000.0001) %MON dynstat_wvel_mean            =  -7.6151658313103E-24
(PID.TID 0000.0001) %MON dynstat_wvel_sd              =   3.8325495613229E-06
(PID.TID 0000.0001) %MON dynstat_wvel_del2            =   2.6713370486701E-08
(PID.TID 0000.0001) %MON dynstat_theta_max            =   3.1009083496343E+01
(PID.TID 0000.0001) %MON dynstat_theta_min            =  -2.0415452319070E+00
(PID.TID 0000.0001) %MON dynstat_theta_mean           =   3.9107864930113E+00
(PID.TID 0000.0001) %MON dynstat_theta_sd             =   4.5737822372835E+00
(PID.TID 0000.0001) %MON dynstat_theta_del2           =   2.5649899233311E-03
(PID.TID 0000.0001) %MON dynstat_salt_max             =   4.1386580896398E+01
(PID.TID 0000.0001) %MON dynstat_salt_min             =   1.8387754654796E+01
(PID.TID 0000.0001) %MON dynstat_salt_mean            =   3.4772109203414E+01
(PID.TID 0000.0001) %MON dynstat_salt_sd              =   5.3127798378033E-01
(PID.TID 0000.0001) %MON dynstat_salt_del2            =   7.7940970801570E-04
(PID.TID 0000.0001) %MON forcing_qnet_max             =   4.5269258039189E+02
(PID.TID 0000.0001) %MON forcing_qnet_min             =  -2.0724691062470E+02
(PID.TID 0000.0001) %MON forcing_qnet_mean            =  -1.2243649340789E+01
(PID.TID 0000.0001) %MON forcing_qnet_sd              =   1.1419883834096E+02
(PID.TID 0000.0001) %MON forcing_qnet_del2            =   4.2754265772092E-01
(PID.TID 0000.0001) %MON forcing_qsw_max              =   0.0000000000000E+00
(PID.TID 0000.0001) %MON forcing_qsw_min              =   0.0000000000000E+00
(PID.TID 0000.0001) %MON forcing_qsw_mean             =   0.0000000000000E+00
(PID.TID 0000.0001) %MON forcing_qsw_sd               =   0.0000000000000E+00
(PID.TID 0000.0001) %MON forcing_qsw_del2             =   0.0000000000000E+00
(PID.TID 0000.0001) %MON forcing_empmr_max            =   7.6494447208479E-05
(PID.TID 0000.0001) %MON forcing_empmr_min            =  -1.5362614137596E-04
(PID.TID 0000.0001) %MON forcing_empmr_mean           =   0.0000000000000E+00
(PID.TID 0000.0001) %MON forcing_empmr_sd             =   2.4051723601802E-05
(PID.TID 0000.0001) %MON forcing_empmr_del2           =   1.2276157049243E-07
(PID.TID 0000.0001) %MON forcing_fu_max               =   2.4722174155228E-01
(PID.TID 0000.0001) %MON forcing_fu_min               =  -2.2809828301201E-01
(PID.TID 0000.0001) %MON forcing_fu_mean              =  -4.2000491789953E-03
(PID.TID 0000.0001) %MON forcing_fu_sd                =   6.4391296774987E-02
(PID.TID 0000.0001) %MON forcing_fu_del2              =   2.1293834199113E-04
(PID.TID 0000.0001) %MON forcing_fv_max               =   2.7427691301694E-01
(PID.TID 0000.0001) %MON forcing_fv_min               =  -3.3322315549145E-01
(PID.TID 0000.0001) %MON forcing_fv_mean              =  -1.3715905886277E-02
(PID.TID 0000.0001) %MON forcing_fv_sd                =   7.5757214244312E-02
(PID.TID 0000.0001) %MON forcing_fv_del2              =   2.4079325037298E-04
(PID.TID 0000.0001) %MON advcfl_uvel_max              =   8.0733603768087E-02
(PID.TID 0000.0001) %MON advcfl_vvel_max              =   7.6178887998570E-02
(PID.TID 0000.0001) %MON advcfl_wvel_max              =   6.6918367786736E-02
(PID.TID 0000.0001) %MON advcfl_W_hf_max              =   7.3889031097854E-02
(PID.TID 0000.0001) %MON pe_b_mean                    =   4.7421967255844E-04
(PID.TID 0000.0001) %MON ke_max                       =   3.9634016450339E-02
(PID.TID 0000.0001) %MON ke_mean                      =   1.4141601740199E-04
(PID.TID 0000.0001) %MON ke_vol                       =   1.3398024453628E+18
(PID.TID 0000.0001) %MON vort_r_min                   =  -1.2269625781899E-06
(PID.TID 0000.0001) %MON vort_r_max                   =   1.2384102129583E-06
(PID.TID 0000.0001) %MON vort_a_mean                  =  -2.0493733748264E-05
(PID.TID 0000.0001) %MON vort_a_sd                    =   7.5053946922915E-05
(PID.TID 0000.0001) %MON vort_p_mean                  =  -2.4715941004978E-05
(PID.TID 0000.0001) %MON vort_p_sd                    =   1.2776245920169E-04
(PID.TID 0000.0001) %MON surfExpan_theta_mean         =  -1.0114331502034E-08
(PID.TID 0000.0001) %MON surfExpan_salt_mean          =  -1.4238320196588E-09
(PID.TID 0000.0001) // =======================================================
(PID.TID 0000.0001) // End MONITOR dynamic field statistics
(PID.TID 0000.0001) // =======================================================
 cg2d: Sum(rhs),rhsMax =  -9.37916411203332E-12  4.23383241322175E+00
(PID.TID 0000.0001)                    cg2d_init_res =    4.63771796825982E-01
(PID.TID 0000.0001)                       cg2d_iters =    63
(PID.TID 0000.0001)                         cg2d_res =    5.39835738281273E-07
(PID.TID 0000.0001) // =======================================================
(PID.TID 0000.0001) // Begin MONITOR dynamic field statistics
(PID.TID 0000.0001) // =======================================================
(PID.TID 0000.0001) %MON time_tsnumber                =                 72010
(PID.TID 0000.0001) %MON time_secondsf                =   6.2216640000000E+09
(PID.TID 0000.0001) %MON dynstat_eta_max              =   9.0180412471340E-01
(PID.TID 0000.0001) %MON dynstat_eta_min              =  -1.6134436302394E+00
(PID.TID 0000.0001) %MON dynstat_eta_mean             =   1.4647414842594E-14
(PID.TID 0000.0001) %MON dynstat_eta_sd               =   5.9658566867429E-01
(PID.TID 0000.0001) %MON dynstat_eta_del2             =   7.8289435184913E-04
(PID.TID 0000.0001) %MON dynstat_uvel_max             =   1.8796758430243E-01
(PID.TID 0000.0001) %MON dynstat_uvel_min             =  -2.8418240918545E-01
(PID.TID 0000.0001) %MON dynstat_uvel_mean            =  -4.8858587428307E-04
(PID.TID 0000.0001) %MON dynstat_uvel_sd              =   1.2042646250927E-02
(PID.TID 0000.0001) %MON dynstat_uvel_del2            =   5.1017680193310E-05
(PID.TID 0000.0001) %MON dynstat_vvel_max             =   1.7469644887439E-01
(PID.TID 0000.0001) %MON dynstat_vvel_min             =  -2.2456431219741E-01
(PID.TID 0000.0001) %MON dynstat_vvel_mean            =  -4.1182686859361E-04
(PID.TID 0000.0001) %MON dynstat_vvel_sd              =   1.2689743856161E-02
(PID.TID 0000.0001) %MON dynstat_vvel_del2            =   5.0335849171706E-05
(PID.TID 0000.0001) %MON dynstat_wvel_max             =   1.0753448902636E-04
(PID.TID 0000.0001) %MON dynstat_wvel_min             =  -2.0508863741718E-04
(PID.TID 0000.0001) %MON dynstat_wvel_mean            =   7.6151658313103E-24
(PID.TID 0000.0001) %MON dynstat_wvel_sd              =   3.8323708673206E-06
(PID.TID 0000.0001) %MON dynstat_wvel_del2            =   2.6756238147663E-08
(PID.TID 0000.0001) %MON dynstat_theta_max            =   3.1016443028818E+01
(PID.TID 0000.0001) %MON dynstat_theta_min            =  -2.0470997150359E+00
(PID.TID 0000.0001) %MON dynstat_theta_mean           =   3.9108472588567E+00
(PID.TID 0000.0001) %MON dynstat_theta_sd             =   4.5738082686136E+00
(PID.TID 0000.0001) %MON dynstat_theta_del2           =   2.5568642370658E-03
(PID.TID 0000.0001) %MON dynstat_salt_max             =   4.1386556497941E+01
(PID.TID 0000.0001) %MON dynstat_salt_min             =   1.8388264893970E+01
(PID.TID 0000.0001) %MON dynstat_salt_mean            =   3.4772109727903E+01
(PID.TID 0000.0001) %MON dynstat_salt_sd              =   5.3126087050886E-01
(PID.TID 0000.0001) %MON dynstat_salt_del2            =   7.7677937646084E-04
(PID.TID 0000.0001) %MON forcing_qnet_max             =   4.5259811942399E+02
(PID.TID 0000.0001) %MON forcing_qnet_min             =  -2.0627455663810E+02
(PID.TID 0000.0001) %MON forcing_qnet_mean            =  -1.2255877709432E+01
(PID.TID 0000.0001) %MON forcing_qnet_sd              =   1.1404708593992E+02
(PID.TID 0000.0001) %MON forcing_qnet_del2            =   4.2945791591934E-01
(PID.TID 0000.0001) %MON forcing_qsw_max              =   0.0000000000000E+00
(PID.TID 0000.0001) %MON forcing_qsw_min              =   0.0000000000000E+00
(PID.TID 0000.0001) %MON forcing_qsw_mean             =   0.0000000000000E+00
(PID.TID 0000.0001) %MON forcing_qsw_sd               =   0.0000000000000E+00
(PID.TID 0000.0001) %MON forcing_qsw_del2             =   0.0000000000000E+00
(PID.TID 0000.0001) %MON forcing_empmr_max            =   7.6494447208479E-05
(PID.TID 0000.0001) %MON forcing_empmr_min            =  -1.5362614137596E-04
(PID.TID 0000.0001) %MON forcing_empmr_mean           =   4.1932798010144E-22
(PID.TID 0000.0001) %MON forcing_empmr_sd             =   2.4051723601802E-05
(PID.TID 0000.0001) %MON forcing_empmr_del2           =   1.2276157049243E-07
(PID.TID 0000.0001) %MON forcing_fu_max               =   2.4734156444157E-01
(PID.TID 0000.0001) %MON forcing_fu_min               =  -2.3124407967036E-01
(PID.TID 0000.0001) %MON forcing_fu_mean              =  -4.1565702432618E-03
(PID.TID 0000.0001) %MON forcing_fu_sd                =   6.4507945848906E-02
(PID.TID 0000.0001) %MON forcing_fu_del2              =   2.1494094672237E-04
(PID.TID 0000.0001) %MON forcing_fv_max               =   2.7696015458957E-01
(PID.TID 0000.0001) %MON forcing_fv_min               =  -3.3401105942538E-01
(PID.TID 0000.0001) %MON forcing_fv_mean              =  -1.3719831432204E-02
(PID.TID 0000.0001) %MON forcing_fv_sd                =   7.5878609891640E-02
(PID.TID 0000.0001) %MON forcing_fv_del2              =   2.4254447090673E-04
(PID.TID 0000.0001) %MON advcfl_uvel_max              =   8.0599521812027E-02
(PID.TID 0000.0001) %MON advcfl_vvel_max              =   7.6147720903355E-02
(PID.TID 0000.0001) %MON advcfl_wvel_max              =   6.6866634991865E-02
(PID.TID 0000.0001) %MON advcfl_W_hf_max              =   7.3831909470184E-02
(PID.TID 0000.0001) %MON pe_b_mean                    =   4.7414383241085E-04
(PID.TID 0000.0001) %MON ke_max                       =   3.9500661889578E-02
(PID.TID 0000.0001) %MON ke_mean                      =   1.4151923139317E-04
(PID.TID 0000.0001) %MON ke_vol                       =   1.3398024453628E+18
(PID.TID 0000.0001) %MON vort_r_min                   =  -1.2322949128646E-06
(PID.TID 0000.0001) %MON vort_r_max                   =   1.2419723722151E-06
(PID.TID 0000.0001) %MON vort_a_mean                  =  -2.0493733748264E-05
(PID.TID 0000.0001) %MON vort_a_sd                    =   7.5053946959696E-05
(PID.TID 0000.0001) %MON vort_p_mean                  =  -2.4715940956276E-05
(PID.TID 0000.0001) %MON vort_p_sd                    =   1.2776246315072E-04
(PID.TID 0000.0001) %MON surfExpan_theta_mean         =  -1.0521073493617E-08
(PID.TID 0000.0001) %MON surfExpan_salt_mean          =  -1.9253282269885E-09
(PID.TID 0000.0001) // =======================================================
(PID.TID 0000.0001) // End MONITOR dynamic field statistics
(PID.TID 0000.0001) // =======================================================
 cg2d: Sum(rhs),rhsMax =  -9.86233317235019E-12  4.22913459911249E+00
(PID.TID 0000.0001)                    cg2d_init_res =    4.59966922910947E-01
(PID.TID 0000.0001)                       cg2d_iters =    63
(PID.TID 0000.0001)                         cg2d_res =    4.93449279773624E-07
(PID.TID 0000.0001) // =======================================================
(PID.TID 0000.0001) // Begin MONITOR dynamic field statistics
(PID.TID 0000.0001) // =======================================================
(PID.TID 0000.0001) %MON time_tsnumber                =                 72011
(PID.TID 0000.0001) %MON time_secondsf                =   6.2217504000000E+09
(PID.TID 0000.0001) %MON dynstat_eta_max              =   9.0056942135195E-01
(PID.TID 0000.0001) %MON dynstat_eta_min              =  -1.6131795942231E+00
(PID.TID 0000.0001) %MON dynstat_eta_mean             =   1.4317641900547E-14
(PID.TID 0000.0001) %MON dynstat_eta_sd               =   5.9655705807552E-01
(PID.TID 0000.0001) %MON dynstat_eta_del2             =   7.8229027923866E-04
(PID.TID 0000.0001) %MON dynstat_uvel_max             =   1.8784292595481E-01
(PID.TID 0000.0001) %MON dynstat_uvel_min             =  -2.8369586931157E-01
(PID.TID 0000.0001) %MON dynstat_uvel_mean            =  -4.8810014476271E-04
(PID.TID 0000.0001) %MON dynstat_uvel_sd              =   1.2046511515189E-02
(PID.TID 0000.0001) %MON dynstat_uvel_del2            =   5.0993971268392E-05
(PID.TID 0000.0001) %MON dynstat_vvel_max             =   1.7458133204842E-01
(PID.TID 0000.0001) %MON dynstat_vvel_min             =  -2.2446416684303E-01
(PID.TID 0000.0001) %MON dynstat_vvel_mean            =  -4.1207091400402E-04
(PID.TID 0000.0001) %MON dynstat_vvel_sd              =   1.2694789899127E-02
(PID.TID 0000.0001) %MON dynstat_vvel_del2            =   5.0308642582832E-05
(PID.TID 0000.0001) %MON dynstat_wvel_max             =   1.0815492425712E-04
(PID.TID 0000.0001) %MON dynstat_wvel_min             =  -2.0486920313682E-04
(PID.TID 0000.0001) %MON dynstat_wvel_mean            =   9.5098916155291E-23
(PID.TID 0000.0001) %MON dynstat_wvel_sd              =   3.8320076860101E-06
(PID.TID 0000.0001) %MON dynstat_wvel_del2            =   2.6797866048774E-08
(PID.TID 0000.0001) %MON dynstat_theta_max            =   3.1023512925209E+01
(PID.TID 0000.0001) %MON dynstat_theta_min            =  -2.0527618192616E+00
(PID.TID 0000.0001) %MON dynstat_theta_mean           =   3.9109083468433E+00
(PID.TID 0000.0001) %MON dynstat_theta_sd             =   4.5738416354941E+00
(PID.TID 0000.0001) %MON dynstat_theta_del2           =   2.5485339795640E-03
(PID.TID 0000.0001) %MON dynstat_salt_max             =   4.1386506806964E+01
(PID.TID 0000.0001) %MON dynstat_salt_min             =   1.8388780487084E+01
(PID.TID 0000.0001) %MON dynstat_salt_mean            =   3.4772110266444E+01
(PID.TID 0000.0001) %MON dynstat_salt_sd              =   5.3124392576225E-01
(PID.TID 0000.0001) %MON dynstat_salt_del2            =   7.7422415687502E-04
(PID.TID 0000.0001) %MON forcing_qnet_max             =   4.5250365845610E+02
(PID.TID 0000.0001) %MON forcing_qnet_min             =  -2.0572520854632E+02
(PID.TID 0000.0001) %MON forcing_qnet_mean            =  -1.2268106078075E+01
(PID.TID 0000.0001) %MON forcing_qnet_sd              =   1.1390212158476E+02
(PID.TID 0000.0001) %MON forcing_qnet_del2            =   4.3148470219571E-01
(PID.TID 0000.0001) %MON forcing_qsw_max              =   0.0000000000000E+00
(PID.TID 0000.0001) %MON forcing_qsw_min              =   0.0000000000000E+00
(PID.TID 0000.0001) %MON forcing_qsw_mean             =   0.0000000000000E+00
(PID.TID 0000.0001) %MON forcing_qsw_sd               =   0.0000000000000E+00
(PID.TID 0000.0001) %MON forcing_qsw_del2             =   0.0000000000000E+00
(PID.TID 0000.0001) %MON forcing_empmr_max            =   7.6494447208479E-05
(PID.TID 0000.0001) %MON forcing_empmr_min            =  -1.5362614137596E-04
(PID.TID 0000.0001) %MON forcing_empmr_mean           =   4.1932798010144E-22
(PID.TID 0000.0001) %MON forcing_empmr_sd             =   2.4051723601802E-05
(PID.TID 0000.0001) %MON forcing_empmr_del2           =   1.2276157049243E-07
(PID.TID 0000.0001) %MON forcing_fu_max               =   2.4760593894036E-01
(PID.TID 0000.0001) %MON forcing_fu_min               =  -2.3438987632871E-01
(PID.TID 0000.0001) %MON forcing_fu_mean              =  -4.1130913075284E-03
(PID.TID 0000.0001) %MON forcing_fu_sd                =   6.4637716330841E-02
(PID.TID 0000.0001) %MON forcing_fu_del2              =   2.1715397508819E-04
(PID.TID 0000.0001) %MON forcing_fv_max               =   2.7964339616220E-01
(PID.TID 0000.0001) %MON forcing_fv_min               =  -3.3479896335931E-01
(PID.TID 0000.0001) %MON forcing_fv_mean              =  -1.3723756978131E-02
(PID.TID 0000.0001) %MON forcing_fv_sd                =   7.6010073816084E-02
(PID.TID 0000.0001) %MON forcing_fv_del2              =   2.4447772305236E-04
(PID.TID 0000.0001) %MON advcfl_uvel_max              =   8.0461529874773E-02
(PID.TID 0000.0001) %MON advcfl_vvel_max              =   7.6097543100705E-02
(PID.TID 0000.0001) %MON advcfl_wvel_max              =   6.6795091135929E-02
(PID.TID 0000.0001) %MON advcfl_W_hf_max              =   7.3752913129254E-02
(PID.TID 0000.0001) %MON pe_b_mean                    =   4.7409835624749E-04
(PID.TID 0000.0001) %MON ke_max                       =   3.9364393502715E-02
(PID.TID 0000.0001) %MON ke_mean                      =   1.4162131445391E-04
(PID.TID 0000.0001) %MON ke_vol                       =   1.3398024453628E+18
(PID.TID 0000.0001) %MON vort_r_min                   =  -1.2376161711252E-06
(PID.TID 0000.0001) %MON vort_r_max                   =   1.2455165502751E-06
(PID.TID 0000.0001) %MON vort_a_mean                  =  -2.0493733748264E-05
(PID.TID 0000.0001) %MON vort_a_sd                    =   7.5053946996955E-05
(PID.TID 0000.0001) %MON vort_p_mean                  =  -2.4715940915007E-05
(PID.TID 0000.0001) %MON vort_p_sd                    =   1.2776246715559E-04
(PID.TID 0000.0001) %MON surfExpan_theta_mean         =  -1.0895806128842E-08
(PID.TID 0000.0001) %MON surfExpan_salt_mean          =  -2.3045545700889E-09
(PID.TID 0000.0001) // =======================================================
(PID.TID 0000.0001) // End MONITOR dynamic field statistics
(PID.TID 0000.0001) // =======================================================
 cg2d: Sum(rhs),rhsMax =  -9.83391146291979E-12  4.22484531074521E+00
(PID.TID 0000.0001)                    cg2d_init_res =    4.57493209617918E-01
(PID.TID 0000.0001)                       cg2d_iters =    62
(PID.TID 0000.0001)                         cg2d_res =    5.25143873341828E-07
(PID.TID 0000.0001) // =======================================================
(PID.TID 0000.0001) // Begin MONITOR dynamic field statistics
(PID.TID 0000.0001) // =======================================================
(PID.TID 0000.0001) %MON time_tsnumber                =                 72012
(PID.TID 0000.0001) %MON time_secondsf                =   6.2218368000000E+09
(PID.TID 0000.0001) %MON dynstat_eta_max              =   8.9939259198332E-01
(PID.TID 0000.0001) %MON dynstat_eta_min              =  -1.6129253901215E+00
(PID.TID 0000.0001) %MON dynstat_eta_mean             =   1.4372604057554E-14
(PID.TID 0000.0001) %MON dynstat_eta_sd               =   5.9654427489477E-01
(PID.TID 0000.0001) %MON dynstat_eta_del2             =   7.8175449242108E-04
(PID.TID 0000.0001) %MON dynstat_uvel_max             =   1.8766511790638E-01
(PID.TID 0000.0001) %MON dynstat_uvel_min             =  -2.8319643875256E-01
(PID.TID 0000.0001) %MON dynstat_uvel_mean            =  -4.8746443628476E-04
(PID.TID 0000.0001) %MON dynstat_uvel_sd              =   1.2050516452168E-02
(PID.TID 0000.0001) %MON dynstat_uvel_del2            =   5.0970529213353E-05
(PID.TID 0000.0001) %MON dynstat_vvel_max             =   1.7442436518496E-01
(PID.TID 0000.0001) %MON dynstat_vvel_min             =  -2.2435972453928E-01
(PID.TID 0000.0001) %MON dynstat_vvel_mean            =  -4.1224705897727E-04
(PID.TID 0000.0001) %MON dynstat_vvel_sd              =   1.2699469374932E-02
(PID.TID 0000.0001) %MON dynstat_vvel_del2            =   5.0281786562290E-05
(PID.TID 0000.0001) %MON dynstat_wvel_max             =   1.0876317154538E-04
(PID.TID 0000.0001) %MON dynstat_wvel_min             =  -2.0459031656435E-04
(PID.TID 0000.0001) %MON dynstat_wvel_mean            =  -3.3180365407852E-23
(PID.TID 0000.0001) %MON dynstat_wvel_sd              =   3.8314535334257E-06
(PID.TID 0000.0001) %MON dynstat_wvel_del2            =   2.6837213018133E-08
(PID.TID 0000.0001) %MON dynstat_theta_max            =   3.1030312357041E+01
(PID.TID 0000.0001) %MON dynstat_theta_min            =  -2.0585125524280E+00
(PID.TID 0000.0001) %MON dynstat_theta_mean           =   3.9109696667832E+00
(PID.TID 0000.0001) %MON dynstat_theta_sd             =   4.5738786441956E+00
(PID.TID 0000.0001) %MON dynstat_theta_del2           =   2.5425535577271E-03
(PID.TID 0000.0001) %MON dynstat_salt_max             =   4.1386431983182E+01
(PID.TID 0000.0001) %MON dynstat_salt_min             =   1.8389301427993E+01
(PID.TID 0000.0001) %MON dynstat_salt_mean            =   3.4772110817568E+01
(PID.TID 0000.0001) %MON dynstat_salt_sd              =   5.3122608135798E-01
(PID.TID 0000.0001) %MON dynstat_salt_del2            =   7.7209596068190E-04
(PID.TID 0000.0001) %MON forcing_qnet_max             =   4.5240919748820E+02
(PID.TID 0000.0001) %MON forcing_qnet_min             =  -2.0540092066247E+02
(PID.TID 0000.0001) %MON forcing_qnet_mean            =  -1.2280334446718E+01
(PID.TID 0000.0001) %MON forcing_qnet_sd              =   1.1376397122458E+02
(PID.TID 0000.0001) %MON forcing_qnet_del2            =   4.3362145267556E-01
(PID.TID 0000.0001) %MON forcing_qsw_max              =   0.0000000000000E+00
(PID.TID 0000.0001) %MON forcing_qsw_min              =   0.0000000000000E+00
(PID.TID 0000.0001) %MON forcing_qsw_mean             =   0.0000000000000E+00
(PID.TID 0000.0001) %MON forcing_qsw_sd               =   0.0000000000000E+00
(PID.TID 0000.0001) %MON forcing_qsw_del2             =   0.0000000000000E+00
(PID.TID 0000.0001) %MON forcing_empmr_max            =   7.6494447208479E-05
(PID.TID 0000.0001) %MON forcing_empmr_min            =  -1.5362614137596E-04
(PID.TID 0000.0001) %MON forcing_empmr_mean           =   4.1932798010144E-22
(PID.TID 0000.0001) %MON forcing_empmr_sd             =   2.4051723601802E-05
(PID.TID 0000.0001) %MON forcing_empmr_del2           =   1.2276157049243E-07
(PID.TID 0000.0001) %MON forcing_fu_max               =   2.4787031343914E-01
(PID.TID 0000.0001) %MON forcing_fu_min               =  -2.3765894517478E-01
(PID.TID 0000.0001) %MON forcing_fu_mean              =  -4.0696123717949E-03
(PID.TID 0000.0001) %MON forcing_fu_sd                =   6.4780529365136E-02
(PID.TID 0000.0001) %MON forcing_fu_del2              =   2.1957106468296E-04
(PID.TID 0000.0001) %MON forcing_fv_max               =   2.8232663773484E-01
(PID.TID 0000.0001) %MON forcing_fv_min               =  -3.3558686729325E-01
(PID.TID 0000.0001) %MON forcing_fv_mean              =  -1.3727682524059E-02
(PID.TID 0000.0001) %MON forcing_fv_sd                =   7.6151553873676E-02
(PID.TID 0000.0001) %MON forcing_fv_del2              =   2.4658872547121E-04
(PID.TID 0000.0001) %MON advcfl_uvel_max              =   8.0319881894694E-02
(PID.TID 0000.0001) %MON advcfl_vvel_max              =   7.6029123456305E-02
(PID.TID 0000.0001) %MON advcfl_wvel_max              =   6.6704163589282E-02
(PID.TID 0000.0001) %MON advcfl_W_hf_max              =   7.3652513963166E-02
(PID.TID 0000.0001) %MON pe_b_mean                    =   4.7407803825790E-04
(PID.TID 0000.0001) %MON ke_max                       =   3.9225230741817E-02
(PID.TID 0000.0001) %MON ke_mean                      =   1.4172056998333E-04
(PID.TID 0000.0001) %MON ke_vol                       =   1.3398024453628E+18
(PID.TID 0000.0001) %MON vort_r_min                   =  -1.2428961976509E-06
(PID.TID 0000.0001) %MON vort_r_max                   =   1.2489925448995E-06
(PID.TID 0000.0001) %MON vort_a_mean                  =  -2.0493733748264E-05
(PID.TID 0000.0001) %MON vort_a_sd                    =   7.5053947031625E-05
(PID.TID 0000.0001) %MON vort_p_mean                  =  -2.4715940881717E-05
(PID.TID 0000.0001) %MON vort_p_sd                    =   1.2776247113853E-04
(PID.TID 0000.0001) %MON surfExpan_theta_mean         =  -1.0970545807864E-08
(PID.TID 0000.0001) %MON surfExpan_salt_mean          =  -2.5655583017604E-09
(PID.TID 0000.0001) // =======================================================
(PID.TID 0000.0001) // End MONITOR dynamic field statistics
(PID.TID 0000.0001) // =======================================================
 cg2d: Sum(rhs),rhsMax =  -9.83391146291979E-12  4.22098691684109E+00
(PID.TID 0000.0001)                    cg2d_init_res =    4.56063143170265E-01
(PID.TID 0000.0001)                       cg2d_iters =    62
(PID.TID 0000.0001)                         cg2d_res =    5.02674947021220E-07
(PID.TID 0000.0001) // =======================================================
(PID.TID 0000.0001) // Begin MONITOR dynamic field statistics
(PID.TID 0000.0001) // =======================================================
(PID.TID 0000.0001) %MON time_tsnumber                =                 72013
(PID.TID 0000.0001) %MON time_secondsf                =   6.2219232000000E+09
(PID.TID 0000.0001) %MON dynstat_eta_max              =   8.9826704702892E-01
(PID.TID 0000.0001) %MON dynstat_eta_min              =  -1.6126697334844E+00
(PID.TID 0000.0001) %MON dynstat_eta_mean             =   1.4262679743539E-14
(PID.TID 0000.0001) %MON dynstat_eta_sd               =   5.9654456509025E-01
(PID.TID 0000.0001) %MON dynstat_eta_del2             =   7.8135596485058E-04
(PID.TID 0000.0001) %MON dynstat_uvel_max             =   1.8743616944607E-01
(PID.TID 0000.0001) %MON dynstat_uvel_min             =  -2.8268494324112E-01
(PID.TID 0000.0001) %MON dynstat_uvel_mean            =  -4.8675139998466E-04
(PID.TID 0000.0001) %MON dynstat_uvel_sd              =   1.2054585639508E-02
(PID.TID 0000.0001) %MON dynstat_uvel_del2            =   5.0947783656868E-05
(PID.TID 0000.0001) %MON dynstat_vvel_max             =   1.7422741450329E-01
(PID.TID 0000.0001) %MON dynstat_vvel_min             =  -2.2425136779061E-01
(PID.TID 0000.0001) %MON dynstat_vvel_mean            =  -4.1233235268204E-04
(PID.TID 0000.0001) %MON dynstat_vvel_sd              =   1.2703714238256E-02
(PID.TID 0000.0001) %MON dynstat_vvel_del2            =   5.0255241254593E-05
(PID.TID 0000.0001) %MON dynstat_wvel_max             =   1.0934669990040E-04
(PID.TID 0000.0001) %MON dynstat_wvel_min             =  -2.0425337638499E-04
(PID.TID 0000.0001) %MON dynstat_wvel_mean            =  -1.0552444080530E-22
(PID.TID 0000.0001) %MON dynstat_wvel_sd              =   3.8307402718936E-06
(PID.TID 0000.0001) %MON dynstat_wvel_del2            =   2.6873759902591E-08
(PID.TID 0000.0001) %MON dynstat_theta_max            =   3.1036859309819E+01
(PID.TID 0000.0001) %MON dynstat_theta_min            =  -2.0643334592458E+00
(PID.TID 0000.0001) %MON dynstat_theta_mean           =   3.9110311673770E+00
(PID.TID 0000.0001) %MON dynstat_theta_sd             =   4.5739251739135E+00
(PID.TID 0000.0001) %MON dynstat_theta_del2           =   2.5335071880862E-03
(PID.TID 0000.0001) %MON dynstat_salt_max             =   4.1386333731360E+01
(PID.TID 0000.0001) %MON dynstat_salt_min             =   1.8389827724560E+01
(PID.TID 0000.0001) %MON dynstat_salt_mean            =   3.4772111380415E+01
(PID.TID 0000.0001) %MON dynstat_salt_sd              =   5.3120847240878E-01
(PID.TID 0000.0001) %MON dynstat_salt_del2            =   7.6947993517620E-04
(PID.TID 0000.0001) %MON forcing_qnet_max             =   4.5231473652030E+02
(PID.TID 0000.0001) %MON forcing_qnet_min             =  -2.0507663277863E+02
(PID.TID 0000.0001) %MON forcing_qnet_mean            =  -1.2292562815361E+01
(PID.TID 0000.0001) %MON forcing_qnet_sd              =   1.1363265971198E+02
(PID.TID 0000.0001) %MON forcing_qnet_del2            =   4.3586655012794E-01
(PID.TID 0000.0001) %MON forcing_qsw_max              =   0.0000000000000E+00
(PID.TID 0000.0001) %MON forcing_qsw_min              =   0.0000000000000E+00
(PID.TID 0000.0001) %MON forcing_qsw_mean             =   0.0000000000000E+00
(PID.TID 0000.0001) %MON forcing_qsw_sd               =   0.0000000000000E+00
(PID.TID 0000.0001) %MON forcing_qsw_del2             =   0.0000000000000E+00
(PID.TID 0000.0001) %MON forcing_empmr_max            =   7.6494447208479E-05
(PID.TID 0000.0001) %MON forcing_empmr_min            =  -1.5362614137596E-04
(PID.TID 0000.0001) %MON forcing_empmr_mean           =   4.1932798010144E-22
(PID.TID 0000.0001) %MON forcing_empmr_sd             =   2.4051723601802E-05
(PID.TID 0000.0001) %MON forcing_empmr_del2           =   1.2276157049243E-07
(PID.TID 0000.0001) %MON forcing_fu_max               =   2.4813468793793E-01
(PID.TID 0000.0001) %MON forcing_fu_min               =  -2.4114197747619E-01
(PID.TID 0000.0001) %MON forcing_fu_mean              =  -4.0261334360615E-03
(PID.TID 0000.0001) %MON forcing_fu_sd                =   6.4936298899217E-02
(PID.TID 0000.0001) %MON forcing_fu_del2              =   2.2218555584494E-04
(PID.TID 0000.0001) %MON forcing_fv_max               =   2.8500987930747E-01
(PID.TID 0000.0001) %MON forcing_fv_min               =  -3.3637477122718E-01
(PID.TID 0000.0001) %MON forcing_fv_mean              =  -1.3731608069986E-02
(PID.TID 0000.0001) %MON forcing_fv_sd                =   7.6302994349070E-02
(PID.TID 0000.0001) %MON forcing_fv_del2              =   2.4887295503804E-04
(PID.TID 0000.0001) %MON advcfl_uvel_max              =   8.0174812065254E-02
(PID.TID 0000.0001) %MON advcfl_vvel_max              =   7.5943275428852E-02
(PID.TID 0000.0001) %MON advcfl_wvel_max              =   6.6594308376086E-02
(PID.TID 0000.0001) %MON advcfl_W_hf_max              =   7.3531215498595E-02
(PID.TID 0000.0001) %MON pe_b_mean                    =   4.7407849949889E-04
(PID.TID 0000.0001) %MON ke_max                       =   3.9083226897314E-02
(PID.TID 0000.0001) %MON ke_mean                      =   1.4181538114784E-04
(PID.TID 0000.0001) %MON ke_vol                       =   1.3398024453628E+18
(PID.TID 0000.0001) %MON vort_r_min                   =  -1.2481061465560E-06
(PID.TID 0000.0001) %MON vort_r_max                   =   1.2523520689183E-06
(PID.TID 0000.0001) %MON vort_a_mean                  =  -2.0493733748264E-05
(PID.TID 0000.0001) %MON vort_a_sd                    =   7.5053947061448E-05
(PID.TID 0000.0001) %MON vort_p_mean                  =  -2.4715940852627E-05
(PID.TID 0000.0001) %MON vort_p_sd                    =   1.2776247502958E-04
(PID.TID 0000.0001) %MON surfExpan_theta_mean         =  -1.0673763578684E-08
(PID.TID 0000.0001) %MON surfExpan_salt_mean          =  -2.7200501406451E-09
(PID.TID 0000.0001) // =======================================================
(PID.TID 0000.0001) // End MONITOR dynamic field statistics
(PID.TID 0000.0001) // =======================================================
 cg2d: Sum(rhs),rhsMax =  -9.40758582146373E-12  4.21756851154969E+00
(PID.TID 0000.0001)                    cg2d_init_res =    4.54387847526292E-01
(PID.TID 0000.0001)                       cg2d_iters =    62
(PID.TID 0000.0001)                         cg2d_res =    5.21706621392822E-07
(PID.TID 0000.0001) // =======================================================
(PID.TID 0000.0001) // Begin MONITOR dynamic field statistics
(PID.TID 0000.0001) // =======================================================
(PID.TID 0000.0001) %MON time_tsnumber                =                 72014
(PID.TID 0000.0001) %MON time_secondsf                =   6.2220096000000E+09
(PID.TID 0000.0001) %MON dynstat_eta_max              =   8.9718914208780E-01
(PID.TID 0000.0001) %MON dynstat_eta_min              =  -1.6124008339300E+00
(PID.TID 0000.0001) %MON dynstat_eta_mean             =   1.4400085136058E-14
(PID.TID 0000.0001) %MON dynstat_eta_sd               =   5.9655516254118E-01
(PID.TID 0000.0001) %MON dynstat_eta_del2             =   7.8095037321421E-04
(PID.TID 0000.0001) %MON dynstat_uvel_max             =   1.8715883712903E-01
(PID.TID 0000.0001) %MON dynstat_uvel_min             =  -2.8216212841373E-01
(PID.TID 0000.0001) %MON dynstat_uvel_mean            =  -4.8600988306725E-04
(PID.TID 0000.0001) %MON dynstat_uvel_sd              =   1.2058631190322E-02
(PID.TID 0000.0001) %MON dynstat_uvel_del2            =   5.0925647985991E-05
(PID.TID 0000.0001) %MON dynstat_vvel_max             =   1.7399229676056E-01
(PID.TID 0000.0001) %MON dynstat_vvel_min             =  -2.2413944542003E-01
(PID.TID 0000.0001) %MON dynstat_vvel_mean            =  -4.1231053923827E-04
(PID.TID 0000.0001) %MON dynstat_vvel_sd              =   1.2707470328339E-02
(PID.TID 0000.0001) %MON dynstat_vvel_del2            =   5.0228912076785E-05
(PID.TID 0000.0001) %MON dynstat_wvel_max             =   1.0989431986169E-04
(PID.TID 0000.0001) %MON dynstat_wvel_min             =  -2.0386315063028E-04
(PID.TID 0000.0001) %MON dynstat_wvel_mean            =   2.9191469020023E-23
(PID.TID 0000.0001) %MON dynstat_wvel_sd              =   3.8298789616135E-06
(PID.TID 0000.0001) %MON dynstat_wvel_del2            =   2.6907000305942E-08
(PID.TID 0000.0001) %MON dynstat_theta_max            =   3.1043170249444E+01
(PID.TID 0000.0001) %MON dynstat_theta_min            =  -2.0702065555586E+00
(PID.TID 0000.0001) %MON dynstat_theta_mean           =   3.9110928986968E+00
(PID.TID 0000.0001) %MON dynstat_theta_sd             =   4.5739770702042E+00
(PID.TID 0000.0001) %MON dynstat_theta_del2           =   2.5292088884697E-03
(PID.TID 0000.0001) %MON dynstat_salt_max             =   4.1386214745261E+01
(PID.TID 0000.0001) %MON dynstat_salt_min             =   1.8390359400913E+01
(PID.TID 0000.0001) %MON dynstat_salt_mean            =   3.4772111956912E+01
(PID.TID 0000.0001) %MON dynstat_salt_sd              =   5.3119019293666E-01
(PID.TID 0000.0001) %MON dynstat_salt_del2            =   7.6803172130258E-04
(PID.TID 0000.0001) %MON forcing_qnet_max             =   4.5222027555240E+02
(PID.TID 0000.0001) %MON forcing_qnet_min             =  -2.0475234489479E+02
(PID.TID 0000.0001) %MON forcing_qnet_mean            =  -1.2304791184004E+01
(PID.TID 0000.0001) %MON forcing_qnet_sd              =   1.1350821078146E+02
(PID.TID 0000.0001) %MON forcing_qnet_del2            =   4.3821832929352E-01
(PID.TID 0000.0001) %MON forcing_qsw_max              =   0.0000000000000E+00
(PID.TID 0000.0001) %MON forcing_qsw_min              =   0.0000000000000E+00
(PID.TID 0000.0001) %MON forcing_qsw_mean             =   0.0000000000000E+00
(PID.TID 0000.0001) %MON forcing_qsw_sd               =   0.0000000000000E+00
(PID.TID 0000.0001) %MON forcing_qsw_del2             =   0.0000000000000E+00
(PID.TID 0000.0001) %MON forcing_empmr_max            =   7.6494447208479E-05
(PID.TID 0000.0001) %MON forcing_empmr_min            =  -1.5362614137596E-04
(PID.TID 0000.0001) %MON forcing_empmr_mean           =   4.1932798010144E-22
(PID.TID 0000.0001) %MON forcing_empmr_sd             =   2.4051723601802E-05
(PID.TID 0000.0001) %MON forcing_empmr_del2           =   1.2276157049243E-07
(PID.TID 0000.0001) %MON forcing_fu_max               =   2.4839906243671E-01
(PID.TID 0000.0001) %MON forcing_fu_min               =  -2.4462500977759E-01
(PID.TID 0000.0001) %MON forcing_fu_mean              =  -3.9826545003281E-03
(PID.TID 0000.0001) %MON forcing_fu_sd                =   6.5104931934298E-02
(PID.TID 0000.0001) %MON forcing_fu_del2              =   2.2499056699550E-04
(PID.TID 0000.0001) %MON forcing_fv_max               =   2.8769312088010E-01
(PID.TID 0000.0001) %MON forcing_fv_min               =  -3.3716267516111E-01
(PID.TID 0000.0001) %MON forcing_fv_mean              =  -1.3735533615913E-02
(PID.TID 0000.0001) %MON forcing_fv_sd                =   7.6464336061349E-02
(PID.TID 0000.0001) %MON forcing_fv_del2              =   2.5132568855654E-04
(PID.TID 0000.0001) %MON advcfl_uvel_max              =   8.0026531863093E-02
(PID.TID 0000.0001) %MON advcfl_vvel_max              =   7.5840790917182E-02
(PID.TID 0000.0001) %MON advcfl_wvel_max              =   6.6467080054551E-02
(PID.TID 0000.0001) %MON advcfl_W_hf_max              =   7.3390734226901E-02
(PID.TID 0000.0001) %MON pe_b_mean                    =   4.7409534339808E-04
(PID.TID 0000.0001) %MON ke_max                       =   3.8938461939695E-02
(PID.TID 0000.0001) %MON ke_mean                      =   1.4190414697244E-04
(PID.TID 0000.0001) %MON ke_vol                       =   1.3398024453628E+18
(PID.TID 0000.0001) %MON vort_r_min                   =  -1.2532185938799E-06
(PID.TID 0000.0001) %MON vort_r_max                   =   1.2555484023672E-06
(PID.TID 0000.0001) %MON vort_a_mean                  =  -2.0493733748264E-05
(PID.TID 0000.0001) %MON vort_a_sd                    =   7.5053947083141E-05
(PID.TID 0000.0001) %MON vort_p_mean                  =  -2.4715940824343E-05
(PID.TID 0000.0001) %MON vort_p_sd                    =   1.2776247883899E-04
(PID.TID 0000.0001) %MON surfExpan_theta_mean         =  -1.0044508587944E-08
(PID.TID 0000.0001) %MON surfExpan_salt_mean          =  -2.7730063250414E-09
(PID.TID 0000.0001) // =======================================================
(PID.TID 0000.0001) // End MONITOR dynamic field statistics
(PID.TID 0000.0001) // =======================================================
 cg2d: Sum(rhs),rhsMax =  -9.80548975348938E-12  4.21458764401480E+00
(PID.TID 0000.0001)                    cg2d_init_res =    4.53768373975542E-01
(PID.TID 0000.0001)                       cg2d_iters =    62
(PID.TID 0000.0001)                         cg2d_res =    5.64046434900429E-07
(PID.TID 0000.0001) // =======================================================
(PID.TID 0000.0001) // Begin MONITOR dynamic field statistics
(PID.TID 0000.0001) // =======================================================
(PID.TID 0000.0001) %MON time_tsnumber                =                 72015
(PID.TID 0000.0001) %MON time_secondsf                =   6.2220960000000E+09
(PID.TID 0000.0001) %MON dynstat_eta_max              =   8.9616578809657E-01
(PID.TID 0000.0001) %MON dynstat_eta_min              =  -1.6121084248823E+00
(PID.TID 0000.0001) %MON dynstat_eta_mean             =   1.4345122979050E-14
(PID.TID 0000.0001) %MON dynstat_eta_sd               =   5.9657367076292E-01
(PID.TID 0000.0001) %MON dynstat_eta_del2             =   7.8062424104471E-04
(PID.TID 0000.0001) %MON dynstat_uvel_max             =   1.8683656256944E-01
(PID.TID 0000.0001) %MON dynstat_uvel_min             =  -2.8162865635902E-01
(PID.TID 0000.0001) %MON dynstat_uvel_mean            =  -4.8527466258166E-04
(PID.TID 0000.0001) %MON dynstat_uvel_sd              =   1.2062562944531E-02
(PID.TID 0000.0001) %MON dynstat_uvel_del2            =   5.0904333972851E-05
(PID.TID 0000.0001) %MON dynstat_vvel_max             =   1.7372072337541E-01
(PID.TID 0000.0001) %MON dynstat_vvel_min             =  -2.2402428493606E-01
(PID.TID 0000.0001) %MON dynstat_vvel_mean            =  -4.1216955138629E-04
(PID.TID 0000.0001) %MON dynstat_vvel_sd              =   1.2710695894786E-02
(PID.TID 0000.0001) %MON dynstat_vvel_del2            =   5.0202678597860E-05
(PID.TID 0000.0001) %MON dynstat_wvel_max             =   1.1039965645466E-04
(PID.TID 0000.0001) %MON dynstat_wvel_min             =  -2.0342375176392E-04
(PID.TID 0000.0001) %MON dynstat_wvel_mean            =   2.0488422355668E-23
(PID.TID 0000.0001) %MON dynstat_wvel_sd              =   3.8288957961076E-06
(PID.TID 0000.0001) %MON dynstat_wvel_del2            =   2.6935358398321E-08
(PID.TID 0000.0001) %MON dynstat_theta_max            =   3.1049259798494E+01
(PID.TID 0000.0001) %MON dynstat_theta_min            =  -2.0761142885872E+00
(PID.TID 0000.0001) %MON dynstat_theta_mean           =   3.9111548624706E+00
(PID.TID 0000.0001) %MON dynstat_theta_sd             =   4.5740361207199E+00
(PID.TID 0000.0001) %MON dynstat_theta_del2           =   2.5226751434249E-03
(PID.TID 0000.0001) %MON dynstat_salt_max             =   4.1386078082672E+01
(PID.TID 0000.0001) %MON dynstat_salt_min             =   1.8390896500273E+01
(PID.TID 0000.0001) %MON dynstat_salt_mean            =   3.4772112548185E+01
(PID.TID 0000.0001) %MON dynstat_salt_sd              =   5.3117221969552E-01
(PID.TID 0000.0001) %MON dynstat_salt_del2            =   7.6567538255396E-04
(PID.TID 0000.0001) %MON forcing_qnet_max             =   4.5655909646370E+02
(PID.TID 0000.0001) %MON forcing_qnet_min             =  -2.0442805701094E+02
(PID.TID 0000.0001) %MON forcing_qnet_mean            =  -1.2317019552647E+01
(PID.TID 0000.0001) %MON forcing_qnet_sd              =   1.1339064702855E+02
(PID.TID 0000.0001) %MON forcing_qnet_del2            =   4.4067508217007E-01
(PID.TID 0000.0001) %MON forcing_qsw_max              =   0.0000000000000E+00
(PID.TID 0000.0001) %MON forcing_qsw_min              =   0.0000000000000E+00
(PID.TID 0000.0001) %MON forcing_qsw_mean             =   0.0000000000000E+00
(PID.TID 0000.0001) %MON forcing_qsw_sd               =   0.0000000000000E+00
(PID.TID 0000.0001) %MON forcing_qsw_del2             =   0.0000000000000E+00
(PID.TID 0000.0001) %MON forcing_empmr_max            =   7.6494447208479E-05
(PID.TID 0000.0001) %MON forcing_empmr_min            =  -1.5362614137596E-04
(PID.TID 0000.0001) %MON forcing_empmr_mean           =   4.1932798010144E-22
(PID.TID 0000.0001) %MON forcing_empmr_sd             =   2.4051723601802E-05
(PID.TID 0000.0001) %MON forcing_empmr_del2           =   1.2276157049243E-07
(PID.TID 0000.0001) %MON forcing_fu_max               =   2.4866343693550E-01
(PID.TID 0000.0001) %MON forcing_fu_min               =  -2.4810804207900E-01
(PID.TID 0000.0001) %MON forcing_fu_mean              =  -3.9391755645946E-03
(PID.TID 0000.0001) %MON forcing_fu_sd                =   6.5286328792105E-02
(PID.TID 0000.0001) %MON forcing_fu_del2              =   2.2797906587778E-04
(PID.TID 0000.0001) %MON forcing_fv_max               =   2.9037636245273E-01
(PID.TID 0000.0001) %MON forcing_fv_min               =  -3.3795057909504E-01
(PID.TID 0000.0001) %MON forcing_fv_mean              =  -1.3739459161841E-02
(PID.TID 0000.0001) %MON forcing_fv_sd                =   7.6635516474945E-02
(PID.TID 0000.0001) %MON forcing_fv_del2              =   2.5394204351914E-04
(PID.TID 0000.0001) %MON advcfl_uvel_max              =   7.9875229069115E-02
(PID.TID 0000.0001) %MON advcfl_vvel_max              =   7.5722415904580E-02
(PID.TID 0000.0001) %MON advcfl_wvel_max              =   6.6323819443028E-02
(PID.TID 0000.0001) %MON advcfl_W_hf_max              =   7.3232550635010E-02
(PID.TID 0000.0001) %MON pe_b_mean                    =   4.7412476162597E-04
(PID.TID 0000.0001) %MON ke_max                       =   3.8791037091955E-02
(PID.TID 0000.0001) %MON ke_mean                      =   1.4198538111229E-04
(PID.TID 0000.0001) %MON ke_vol                       =   1.3398024453628E+18
(PID.TID 0000.0001) %MON vort_r_min                   =  -1.2582077600613E-06
(PID.TID 0000.0001) %MON vort_r_max                   =   1.2585363849293E-06
(PID.TID 0000.0001) %MON vort_a_mean                  =  -2.0493733748264E-05
(PID.TID 0000.0001) %MON vort_a_sd                    =   7.5053947094072E-05
(PID.TID 0000.0001) %MON vort_p_mean                  =  -2.4715940792878E-05
(PID.TID 0000.0001) %MON vort_p_sd                    =   1.2776248242310E-04
(PID.TID 0000.0001) %MON surfExpan_theta_mean         =  -9.2486069081726E-09
(PID.TID 0000.0001) %MON surfExpan_salt_mean          =  -2.7696866056249E-09
(PID.TID 0000.0001) // =======================================================
(PID.TID 0000.0001) // End MONITOR dynamic field statistics
(PID.TID 0000.0001) // =======================================================
S/R EXTERNAL_FIELDS_LOAD: Reading new data:    1    2     72015  6.222096000000E+09
(PID.TID 0000.0001)  MDS_READ_FIELD: opening global file: trenberth_taux.bin
(PID.TID 0000.0001)  MDS_READ_FIELD: opening global file: trenberth_taux.bin
(PID.TID 0000.0001)  MDS_READ_FIELD: opening global file: trenberth_tauy.bin
(PID.TID 0000.0001)  MDS_READ_FIELD: opening global file: trenberth_tauy.bin
(PID.TID 0000.0001)  MDS_READ_FIELD: opening global file: shiQnet_cs32.bin
(PID.TID 0000.0001)  MDS_READ_FIELD: opening global file: shiQnet_cs32.bin
(PID.TID 0000.0001)  MDS_READ_FIELD: opening global file: shiEmPR_cs32.bin
(PID.TID 0000.0001)  MDS_READ_FIELD: opening global file: shiEmPR_cs32.bin
(PID.TID 0000.0001)  MDS_READ_FIELD: opening global file: lev_surfT_cs_12m.bin
(PID.TID 0000.0001)  MDS_READ_FIELD: opening global file: lev_surfT_cs_12m.bin
(PID.TID 0000.0001)  MDS_READ_FIELD: opening global file: lev_surfS_cs_12m.bin
(PID.TID 0000.0001)  MDS_READ_FIELD: opening global file: lev_surfS_cs_12m.bin
 cg2d: Sum(rhs),rhsMax =  -9.94759830064140E-12  4.21203169271721E+00
(PID.TID 0000.0001)                    cg2d_init_res =    4.53511635217141E-01
(PID.TID 0000.0001)                       cg2d_iters =    63
(PID.TID 0000.0001)                         cg2d_res =    5.02204068132611E-07
(PID.TID 0000.0001) // =======================================================
(PID.TID 0000.0001) // Begin MONITOR dynamic field statistics
(PID.TID 0000.0001) // =======================================================
(PID.TID 0000.0001) %MON time_tsnumber                =                 72016
(PID.TID 0000.0001) %MON time_secondsf                =   6.2221824000000E+09
(PID.TID 0000.0001) %MON dynstat_eta_max              =   8.9519218661181E-01
(PID.TID 0000.0001) %MON dynstat_eta_min              =  -1.6117848341003E+00
(PID.TID 0000.0001) %MON dynstat_eta_mean             =   1.4427566214562E-14
(PID.TID 0000.0001) %MON dynstat_eta_sd               =   5.9659802503023E-01
(PID.TID 0000.0001) %MON dynstat_eta_del2             =   7.8035395360526E-04
(PID.TID 0000.0001) %MON dynstat_uvel_max             =   1.8647339518972E-01
(PID.TID 0000.0001) %MON dynstat_uvel_min             =  -2.8108509727755E-01
(PID.TID 0000.0001) %MON dynstat_uvel_mean            =  -4.8455555381087E-04
(PID.TID 0000.0001) %MON dynstat_uvel_sd              =   1.2066288804038E-02
(PID.TID 0000.0001) %MON dynstat_uvel_del2            =   5.0883903866536E-05
(PID.TID 0000.0001) %MON dynstat_vvel_max             =   1.7341427703730E-01
(PID.TID 0000.0001) %MON dynstat_vvel_min             =  -2.2390618825400E-01
(PID.TID 0000.0001) %MON dynstat_vvel_mean            =  -4.1190655695199E-04
(PID.TID 0000.0001) %MON dynstat_vvel_sd              =   1.2713363823477E-02
(PID.TID 0000.0001) %MON dynstat_vvel_del2            =   5.0176408914554E-05
(PID.TID 0000.0001) %MON dynstat_wvel_max             =   1.1084764829928E-04
(PID.TID 0000.0001) %MON dynstat_wvel_min             =  -2.0293706018118E-04
(PID.TID 0000.0001) %MON dynstat_wvel_mean            =  -2.9916722908719E-24
(PID.TID 0000.0001) %MON dynstat_wvel_sd              =   3.8278546818076E-06
(PID.TID 0000.0001) %MON dynstat_wvel_del2            =   2.6960264098898E-08
(PID.TID 0000.0001) %MON dynstat_theta_max            =   3.1055140422662E+01
(PID.TID 0000.0001) %MON dynstat_theta_min            =  -2.0820395181595E+00
(PID.TID 0000.0001) %MON dynstat_theta_mean           =   3.9112170321568E+00
(PID.TID 0000.0001) %MON dynstat_theta_sd             =   4.5741031850914E+00
(PID.TID 0000.0001) %MON dynstat_theta_del2           =   2.5161223534361E-03
(PID.TID 0000.0001) %MON dynstat_salt_max             =   4.1385926562947E+01
(PID.TID 0000.0001) %MON dynstat_salt_min             =   1.8391439088626E+01
(PID.TID 0000.0001) %MON dynstat_salt_mean            =   3.4772113153936E+01
(PID.TID 0000.0001) %MON dynstat_salt_sd              =   5.3115422111103E-01
(PID.TID 0000.0001) %MON dynstat_salt_del2            =   7.6310042913508E-04
(PID.TID 0000.0001) %MON forcing_qnet_max             =   4.6211611868841E+02
(PID.TID 0000.0001) %MON forcing_qnet_min             =  -2.0410376912710E+02
(PID.TID 0000.0001) %MON forcing_qnet_mean            =  -1.2329247921290E+01
(PID.TID 0000.0001) %MON forcing_qnet_sd              =   1.1327998988989E+02
(PID.TID 0000.0001) %MON forcing_qnet_del2            =   4.4323506322358E-01
(PID.TID 0000.0001) %MON forcing_qsw_max              =   0.0000000000000E+00
(PID.TID 0000.0001) %MON forcing_qsw_min              =   0.0000000000000E+00
(PID.TID 0000.0001) %MON forcing_qsw_mean             =   0.0000000000000E+00
(PID.TID 0000.0001) %MON forcing_qsw_sd               =   0.0000000000000E+00
(PID.TID 0000.0001) %MON forcing_qsw_del2             =   0.0000000000000E+00
(PID.TID 0000.0001) %MON forcing_empmr_max            =   7.6494447208479E-05
(PID.TID 0000.0001) %MON forcing_empmr_min            =  -1.5362614137596E-04
(PID.TID 0000.0001) %MON forcing_empmr_mean           =   4.1932798010144E-22
(PID.TID 0000.0001) %MON forcing_empmr_sd             =   2.4051723601802E-05
(PID.TID 0000.0001) %MON forcing_empmr_del2           =   1.2276157049243E-07
(PID.TID 0000.0001) %MON forcing_fu_max               =   2.4892781143428E-01
(PID.TID 0000.0001) %MON forcing_fu_min               =  -2.5159107438040E-01
(PID.TID 0000.0001) %MON forcing_fu_mean              =  -3.8956966288612E-03
(PID.TID 0000.0001) %MON forcing_fu_sd                =   6.5480383395885E-02
(PID.TID 0000.0001) %MON forcing_fu_del2              =   2.3114393556995E-04
(PID.TID 0000.0001) %MON forcing_fv_max               =   2.9305960402537E-01
(PID.TID 0000.0001) %MON forcing_fv_min               =  -3.3950131228473E-01
(PID.TID 0000.0001) %MON forcing_fv_mean              =  -1.3743384707768E-02
(PID.TID 0000.0001) %MON forcing_fv_sd                =   7.6816469815204E-02
(PID.TID 0000.0001) %MON forcing_fv_del2              =   2.5671701728584E-04
(PID.TID 0000.0001) %MON advcfl_uvel_max              =   7.9721065403009E-02
(PID.TID 0000.0001) %MON advcfl_vvel_max              =   7.5588840263082E-02
(PID.TID 0000.0001) %MON advcfl_wvel_max              =   6.6165139621335E-02
(PID.TID 0000.0001) %MON advcfl_W_hf_max              =   7.3057341665224E-02
(PID.TID 0000.0001) %MON pe_b_mean                    =   4.7416347334740E-04
(PID.TID 0000.0001) %MON ke_max                       =   3.8641066422723E-02
(PID.TID 0000.0001) %MON ke_mean                      =   1.4205773985652E-04
(PID.TID 0000.0001) %MON ke_vol                       =   1.3398024453628E+18
(PID.TID 0000.0001) %MON vort_r_min                   =  -1.2630497656241E-06
(PID.TID 0000.0001) %MON vort_r_max                   =   1.2612721786449E-06
(PID.TID 0000.0001) %MON vort_a_mean                  =  -2.0493733748264E-05
(PID.TID 0000.0001) %MON vort_a_sd                    =   7.5053947091985E-05
(PID.TID 0000.0001) %MON vort_p_mean                  =  -2.4715940756841E-05
(PID.TID 0000.0001) %MON vort_p_sd                    =   1.2776248580990E-04
(PID.TID 0000.0001) %MON surfExpan_theta_mean         =  -8.2472660511335E-09
(PID.TID 0000.0001) %MON surfExpan_salt_mean          =  -2.6886082959983E-09
(PID.TID 0000.0001) // =======================================================
(PID.TID 0000.0001) // End MONITOR dynamic field statistics
(PID.TID 0000.0001) // =======================================================
 cg2d: Sum(rhs),rhsMax =  -9.57811607804615E-12  4.20976597710753E+00
(PID.TID 0000.0001)                    cg2d_init_res =    4.49956695921841E-01
(PID.TID 0000.0001)                       cg2d_iters =    63
(PID.TID 0000.0001)                         cg2d_res =    5.16027744468841E-07
(PID.TID 0000.0001) // =======================================================
(PID.TID 0000.0001) // Begin MONITOR dynamic field statistics
(PID.TID 0000.0001) // =======================================================
(PID.TID 0000.0001) %MON time_tsnumber                =                 72017
(PID.TID 0000.0001) %MON time_secondsf                =   6.2222688000000E+09
(PID.TID 0000.0001) %MON dynstat_eta_max              =   8.9429719186728E-01
(PID.TID 0000.0001) %MON dynstat_eta_min              =  -1.6113580107268E+00
(PID.TID 0000.0001) %MON dynstat_eta_mean             =   1.4455047293066E-14
(PID.TID 0000.0001) %MON dynstat_eta_sd               =   5.9662242963923E-01
(PID.TID 0000.0001) %MON dynstat_eta_del2             =   7.8012117483271E-04
(PID.TID 0000.0001) %MON dynstat_uvel_max             =   1.8633657524123E-01
(PID.TID 0000.0001) %MON dynstat_uvel_min             =  -2.8053716992134E-01
(PID.TID 0000.0001) %MON dynstat_uvel_mean            =  -4.8387928658054E-04
(PID.TID 0000.0001) %MON dynstat_uvel_sd              =   1.2069755536044E-02
(PID.TID 0000.0001) %MON dynstat_uvel_del2            =   5.0862992801303E-05
(PID.TID 0000.0001) %MON dynstat_vvel_max             =   1.7307411185713E-01
(PID.TID 0000.0001) %MON dynstat_vvel_min             =  -2.2377690223795E-01
(PID.TID 0000.0001) %MON dynstat_vvel_mean            =  -4.1154371907820E-04
(PID.TID 0000.0001) %MON dynstat_vvel_sd              =   1.2714897786947E-02
(PID.TID 0000.0001) %MON dynstat_vvel_del2            =   5.0150005926859E-05
(PID.TID 0000.0001) %MON dynstat_wvel_max             =   1.1123300119022E-04
(PID.TID 0000.0001) %MON dynstat_wvel_min             =  -2.0240016666651E-04
(PID.TID 0000.0001) %MON dynstat_wvel_mean            =   2.2261894755371E-23
(PID.TID 0000.0001) %MON dynstat_wvel_sd              =   3.8267390438088E-06
(PID.TID 0000.0001) %MON dynstat_wvel_del2            =   2.6980838284514E-08
(PID.TID 0000.0001) %MON dynstat_theta_max            =   3.1060629314825E+01
(PID.TID 0000.0001) %MON dynstat_theta_min            =  -2.0879922587715E+00
(PID.TID 0000.0001) %MON dynstat_theta_mean           =   3.9112799724965E+00
(PID.TID 0000.0001) %MON dynstat_theta_sd             =   4.5741808502669E+00
(PID.TID 0000.0001) %MON dynstat_theta_del2           =   2.5095126651523E-03
(PID.TID 0000.0001) %MON dynstat_salt_max             =   4.1385777743654E+01
(PID.TID 0000.0001) %MON dynstat_salt_min             =   1.8391982375653E+01
(PID.TID 0000.0001) %MON dynstat_salt_mean            =   3.4772113773450E+01
(PID.TID 0000.0001) %MON dynstat_salt_sd              =   5.3113617613899E-01
(PID.TID 0000.0001) %MON dynstat_salt_del2            =   7.6128168576770E-04
(PID.TID 0000.0001) %MON forcing_qnet_max             =   4.5753071201305E+02
(PID.TID 0000.0001) %MON forcing_qnet_min             =  -2.0101909770688E+02
(PID.TID 0000.0001) %MON forcing_qnet_mean            =  -1.2374912456645E+01
(PID.TID 0000.0001) %MON forcing_qnet_sd              =   1.1223184124370E+02
(PID.TID 0000.0001) %MON forcing_qnet_del2            =   4.4119059898150E-01
(PID.TID 0000.0001) %MON forcing_qsw_max              =   0.0000000000000E+00
(PID.TID 0000.0001) %MON forcing_qsw_min              =   0.0000000000000E+00
(PID.TID 0000.0001) %MON forcing_qsw_mean             =   0.0000000000000E+00
(PID.TID 0000.0001) %MON forcing_qsw_sd               =   0.0000000000000E+00
(PID.TID 0000.0001) %MON forcing_qsw_del2             =   0.0000000000000E+00
(PID.TID 0000.0001) %MON forcing_empmr_max            =   7.6494447208479E-05
(PID.TID 0000.0001) %MON forcing_empmr_min            =  -1.5362614137596E-04
(PID.TID 0000.0001) %MON forcing_empmr_mean           =   0.0000000000000E+00
(PID.TID 0000.0001) %MON forcing_empmr_sd             =   2.4051723601802E-05
(PID.TID 0000.0001) %MON forcing_empmr_del2           =   1.2276157049243E-07
(PID.TID 0000.0001) %MON forcing_fu_max               =   2.4586080052368E-01
(PID.TID 0000.0001) %MON forcing_fu_min               =  -2.4690104382675E-01
(PID.TID 0000.0001) %MON forcing_fu_mean              =  -3.9278253198990E-03
(PID.TID 0000.0001) %MON forcing_fu_sd                =   6.5282090105345E-02
(PID.TID 0000.0001) %MON forcing_fu_del2              =   2.2765741152947E-04
(PID.TID 0000.0001) %MON forcing_fv_max               =   2.9225622243089E-01
(PID.TID 0000.0001) %MON forcing_fv_min               =  -3.3606226010595E-01
(PID.TID 0000.0001) %MON forcing_fv_mean              =  -1.3741594714266E-02
(PID.TID 0000.0001) %MON forcing_fv_sd                =   7.6550053729987E-02
(PID.TID 0000.0001) %MON forcing_fv_del2              =   2.5418174123344E-04
(PID.TID 0000.0001) %MON advcfl_uvel_max              =   7.9565662811323E-02
(PID.TID 0000.0001) %MON advcfl_vvel_max              =   7.5440567053365E-02
(PID.TID 0000.0001) %MON advcfl_wvel_max              =   6.5990092075420E-02
(PID.TID 0000.0001) %MON advcfl_W_hf_max              =   7.2864059999943E-02
(PID.TID 0000.0001) %MON pe_b_mean                    =   4.7420226667343E-04
(PID.TID 0000.0001) %MON ke_max                       =   3.8491766382528E-02
(PID.TID 0000.0001) %MON ke_mean                      =   1.4211384696535E-04
(PID.TID 0000.0001) %MON ke_vol                       =   1.3398024453628E+18
(PID.TID 0000.0001) %MON vort_r_min                   =  -1.2675164791528E-06
(PID.TID 0000.0001) %MON vort_r_max                   =   1.2634883777888E-06
(PID.TID 0000.0001) %MON vort_a_mean                  =  -2.0493733748264E-05
(PID.TID 0000.0001) %MON vort_a_sd                    =   7.5053947075988E-05
(PID.TID 0000.0001) %MON vort_p_mean                  =  -2.4715940712744E-05
(PID.TID 0000.0001) %MON vort_p_sd                    =   1.2776248902801E-04
(PID.TID 0000.0001) %MON surfExpan_theta_mean         =  -6.8995639848232E-09
(PID.TID 0000.0001) %MON surfExpan_salt_mean          =  -2.4658676011618E-09
(PID.TID 0000.0001) // =======================================================
(PID.TID 0000.0001) // End MONITOR dynamic field statistics
(PID.TID 0000.0001) // =======================================================
 cg2d: Sum(rhs),rhsMax =  -9.69180291576777E-12  4.20805789211675E+00
(PID.TID 0000.0001)                    cg2d_init_res =    4.50751371655655E-01
(PID.TID 0000.0001)                       cg2d_iters =    63
(PID.TID 0000.0001)                         cg2d_res =    5.24349668142679E-07
(PID.TID 0000.0001) // =======================================================
(PID.TID 0000.0001) // Begin MONITOR dynamic field statistics
(PID.TID 0000.0001) // =======================================================
(PID.TID 0000.0001) %MON time_tsnumber                =                 72018
(PID.TID 0000.0001) %MON time_secondsf                =   6.2223552000000E+09
(PID.TID 0000.0001) %MON dynstat_eta_max              =   8.9345195562769E-01
(PID.TID 0000.0001) %MON dynstat_eta_min              =  -1.6109257594167E+00
(PID.TID 0000.0001) %MON dynstat_eta_mean             =   1.3960387879995E-14
(PID.TID 0000.0001) %MON dynstat_eta_sd               =   5.9665145268483E-01
(PID.TID 0000.0001) %MON dynstat_eta_del2             =   7.7998588691547E-04
(PID.TID 0000.0001) %MON dynstat_uvel_max             =   1.8644983113150E-01
(PID.TID 0000.0001) %MON dynstat_uvel_min             =  -2.7998165867775E-01
(PID.TID 0000.0001) %MON dynstat_uvel_mean            =  -4.8320819689794E-04
(PID.TID 0000.0001) %MON dynstat_uvel_sd              =   1.2072810176902E-02
(PID.TID 0000.0001) %MON dynstat_uvel_del2            =   5.0842371219969E-05
(PID.TID 0000.0001) %MON dynstat_vvel_max             =   1.7270182721690E-01
(PID.TID 0000.0001) %MON dynstat_vvel_min             =  -2.2364275368801E-01
(PID.TID 0000.0001) %MON dynstat_vvel_mean            =  -4.1107368623933E-04
(PID.TID 0000.0001) %MON dynstat_vvel_sd              =   1.2715621499401E-02
(PID.TID 0000.0001) %MON dynstat_vvel_del2            =   5.0122921142862E-05
(PID.TID 0000.0001) %MON dynstat_wvel_max             =   1.1154835802484E-04
(PID.TID 0000.0001) %MON dynstat_wvel_min             =  -2.0181810818403E-04
(PID.TID 0000.0001) %MON dynstat_wvel_mean            =  -3.0823290269589E-23
(PID.TID 0000.0001) %MON dynstat_wvel_sd              =   3.8255708041982E-06
(PID.TID 0000.0001) %MON dynstat_wvel_del2            =   2.6998879338411E-08
(PID.TID 0000.0001) %MON dynstat_theta_max            =   3.1065726603334E+01
(PID.TID 0000.0001) %MON dynstat_theta_min            =  -2.0939651692145E+00
(PID.TID 0000.0001) %MON dynstat_theta_mean           =   3.9113434791978E+00
(PID.TID 0000.0001) %MON dynstat_theta_sd             =   4.5742707574975E+00
(PID.TID 0000.0001) %MON dynstat_theta_del2           =   2.5081761179965E-03
(PID.TID 0000.0001) %MON dynstat_salt_max             =   4.1385634555441E+01
(PID.TID 0000.0001) %MON dynstat_salt_min             =   1.8392526050461E+01
(PID.TID 0000.0001) %MON dynstat_salt_mean            =   3.4772114405476E+01
(PID.TID 0000.0001) %MON dynstat_salt_sd              =   5.3111823982480E-01
(PID.TID 0000.0001) %MON dynstat_salt_del2            =   7.5975981181231E-04
(PID.TID 0000.0001) %MON forcing_qnet_max             =   4.5294530533769E+02
(PID.TID 0000.0001) %MON forcing_qnet_min             =  -1.9793442628666E+02
(PID.TID 0000.0001) %MON forcing_qnet_mean            =  -1.2420576992001E+01
(PID.TID 0000.0001) %MON forcing_qnet_sd              =   1.1119236898197E+02
(PID.TID 0000.0001) %MON forcing_qnet_del2            =   4.3924090499131E-01
(PID.TID 0000.0001) %MON forcing_qsw_max              =   0.0000000000000E+00
(PID.TID 0000.0001) %MON forcing_qsw_min              =   0.0000000000000E+00
(PID.TID 0000.0001) %MON forcing_qsw_mean             =   0.0000000000000E+00
(PID.TID 0000.0001) %MON forcing_qsw_sd               =   0.0000000000000E+00
(PID.TID 0000.0001) %MON forcing_qsw_del2             =   0.0000000000000E+00
(PID.TID 0000.0001) %MON forcing_empmr_max            =   7.6494447208479E-05
(PID.TID 0000.0001) %MON forcing_empmr_min            =  -1.5362614137596E-04
(PID.TID 0000.0001) %MON forcing_empmr_mean           =   8.3865596020288E-22
(PID.TID 0000.0001) %MON forcing_empmr_sd             =   2.4051723601802E-05
(PID.TID 0000.0001) %MON forcing_empmr_del2           =   1.2276157049243E-07
(PID.TID 0000.0001) %MON forcing_fu_max               =   2.4279378961307E-01
(PID.TID 0000.0001) %MON forcing_fu_min               =  -2.4221101327311E-01
(PID.TID 0000.0001) %MON forcing_fu_mean              =  -3.9599540109368E-03
(PID.TID 0000.0001) %MON forcing_fu_sd                =   6.5097565012911E-02
(PID.TID 0000.0001) %MON forcing_fu_del2              =   2.2436904772887E-04
(PID.TID 0000.0001) %MON forcing_fv_max               =   2.9145284083641E-01
(PID.TID 0000.0001) %MON forcing_fv_min               =  -3.3262320792717E-01
(PID.TID 0000.0001) %MON forcing_fv_mean              =  -1.3739804720763E-02
(PID.TID 0000.0001) %MON forcing_fv_sd                =   7.6299912613877E-02
(PID.TID 0000.0001) %MON forcing_fv_del2              =   2.5181803534899E-04
(PID.TID 0000.0001) %MON advcfl_uvel_max              =   7.9408109285325E-02
(PID.TID 0000.0001) %MON advcfl_vvel_max              =   7.5278293423515E-02
(PID.TID 0000.0001) %MON advcfl_wvel_max              =   6.5800319045661E-02
(PID.TID 0000.0001) %MON advcfl_W_hf_max              =   7.2654518946251E-02
(PID.TID 0000.0001) %MON pe_b_mean                    =   4.7424840348652E-04
(PID.TID 0000.0001) %MON ke_max                       =   3.8341066782345E-02
(PID.TID 0000.0001) %MON ke_mean                      =   1.4215579866900E-04
(PID.TID 0000.0001) %MON ke_vol                       =   1.3398024453628E+18
(PID.TID 0000.0001) %MON vort_r_min                   =  -1.2717412233416E-06
(PID.TID 0000.0001) %MON vort_r_max                   =   1.2653367910460E-06
(PID.TID 0000.0001) %MON vort_a_mean                  =  -2.0493733748264E-05
(PID.TID 0000.0001) %MON vort_a_sd                    =   7.5053947051960E-05
(PID.TID 0000.0001) %MON vort_p_mean                  =  -2.4715940650825E-05
(PID.TID 0000.0001) %MON vort_p_sd                    =   1.2776249198883E-04
(PID.TID 0000.0001) %MON surfExpan_theta_mean         =  -5.3111103728682E-09
(PID.TID 0000.0001) %MON surfExpan_salt_mean          =  -2.1820713682080E-09
(PID.TID 0000.0001) // =======================================================
(PID.TID 0000.0001) // End MONITOR dynamic field statistics
(PID.TID 0000.0001) // =======================================================
 cg2d: Sum(rhs),rhsMax =  -9.63495949690696E-12  4.20662079938426E+00
(PID.TID 0000.0001)                    cg2d_init_res =    4.48301613359114E-01
(PID.TID 0000.0001)                       cg2d_iters =    63
(PID.TID 0000.0001)                         cg2d_res =    5.35103454676829E-07
(PID.TID 0000.0001) // =======================================================
(PID.TID 0000.0001) // Begin MONITOR dynamic field statistics
(PID.TID 0000.0001) // =======================================================
(PID.TID 0000.0001) %MON time_tsnumber                =                 72019
(PID.TID 0000.0001) %MON time_secondsf                =   6.2224416000000E+09
(PID.TID 0000.0001) %MON dynstat_eta_max              =   8.9264673723381E-01
(PID.TID 0000.0001) %MON dynstat_eta_min              =  -1.6104651422540E+00
(PID.TID 0000.0001) %MON dynstat_eta_mean             =   1.4427566214562E-14
(PID.TID 0000.0001) %MON dynstat_eta_sd               =   5.9668235839130E-01
(PID.TID 0000.0001) %MON dynstat_eta_del2             =   7.7989235256526E-04
(PID.TID 0000.0001) %MON dynstat_uvel_max             =   1.8649282884248E-01
(PID.TID 0000.0001) %MON dynstat_uvel_min             =  -2.7941978254652E-01
(PID.TID 0000.0001) %MON dynstat_uvel_mean            =  -4.8253248235426E-04
(PID.TID 0000.0001) %MON dynstat_uvel_sd              =   1.2075396938869E-02
(PID.TID 0000.0001) %MON dynstat_uvel_del2            =   5.0821841222563E-05
(PID.TID 0000.0001) %MON dynstat_vvel_max             =   1.7229921892195E-01
(PID.TID 0000.0001) %MON dynstat_vvel_min             =  -2.2350219152704E-01
(PID.TID 0000.0001) %MON dynstat_vvel_mean            =  -4.1048364780297E-04
(PID.TID 0000.0001) %MON dynstat_vvel_sd              =   1.2715487821337E-02
(PID.TID 0000.0001) %MON dynstat_vvel_del2            =   5.0095135144951E-05
(PID.TID 0000.0001) %MON dynstat_wvel_max             =   1.1177941726273E-04
(PID.TID 0000.0001) %MON dynstat_wvel_min             =  -2.0119192838065E-04
(PID.TID 0000.0001) %MON dynstat_wvel_mean            =   1.7768720273057E-23
(PID.TID 0000.0001) %MON dynstat_wvel_sd              =   3.8243775437709E-06
(PID.TID 0000.0001) %MON dynstat_wvel_del2            =   2.7014632878472E-08
(PID.TID 0000.0001) %MON dynstat_theta_max            =   3.1070428855160E+01
(PID.TID 0000.0001) %MON dynstat_theta_min            =  -2.0999541613606E+00
(PID.TID 0000.0001) %MON dynstat_theta_mean           =   3.9114076530730E+00
(PID.TID 0000.0001) %MON dynstat_theta_sd             =   4.5743705831951E+00
(PID.TID 0000.0001) %MON dynstat_theta_del2           =   2.5021729464776E-03
(PID.TID 0000.0001) %MON dynstat_salt_max             =   4.1385496876256E+01
(PID.TID 0000.0001) %MON dynstat_salt_min             =   1.8393069576909E+01
(PID.TID 0000.0001) %MON dynstat_salt_mean            =   3.4772115048338E+01
(PID.TID 0000.0001) %MON dynstat_salt_sd              =   5.3109979366189E-01
(PID.TID 0000.0001) %MON dynstat_salt_del2            =   7.5824466608909E-04
(PID.TID 0000.0001) %MON forcing_qnet_max             =   4.4835989866233E+02
(PID.TID 0000.0001) %MON forcing_qnet_min             =  -1.9586302274640E+02
(PID.TID 0000.0001) %MON forcing_qnet_mean            =  -1.2466241527356E+01
(PID.TID 0000.0001) %MON forcing_qnet_sd              =   1.1016181871259E+02
(PID.TID 0000.0001) %MON forcing_qnet_del2            =   4.3738724859626E-01
(PID.TID 0000.0001) %MON forcing_qsw_max              =   0.0000000000000E+00
(PID.TID 0000.0001) %MON forcing_qsw_min              =   0.0000000000000E+00
(PID.TID 0000.0001) %MON forcing_qsw_mean             =   0.0000000000000E+00
(PID.TID 0000.0001) %MON forcing_qsw_sd               =   0.0000000000000E+00
(PID.TID 0000.0001) %MON forcing_qsw_del2             =   0.0000000000000E+00
(PID.TID 0000.0001) %MON forcing_empmr_max            =   7.6494447208479E-05
(PID.TID 0000.0001) %MON forcing_empmr_min            =  -1.5362614137596E-04
(PID.TID 0000.0001) %MON forcing_empmr_mean           =   0.0000000000000E+00
(PID.TID 0000.0001) %MON forcing_empmr_sd             =   2.4051723601802E-05
(PID.TID 0000.0001) %MON forcing_empmr_del2           =   1.2276157049243E-07
(PID.TID 0000.0001) %MON forcing_fu_max               =   2.3972677870247E-01
(PID.TID 0000.0001) %MON forcing_fu_min               =  -2.3770170012775E-01
(PID.TID 0000.0001) %MON forcing_fu_mean              =  -3.9920827019745E-03
(PID.TID 0000.0001) %MON forcing_fu_sd                =   6.4926925508109E-02
(PID.TID 0000.0001) %MON forcing_fu_del2              =   2.2128767840564E-04
(PID.TID 0000.0001) %MON forcing_fv_max               =   2.9064945924193E-01
(PID.TID 0000.0001) %MON forcing_fv_min               =  -3.2918415574839E-01
(PID.TID 0000.0001) %MON forcing_fv_mean              =  -1.3738014727260E-02
(PID.TID 0000.0001) %MON forcing_fv_sd                =   7.6066207026079E-02
(PID.TID 0000.0001) %MON forcing_fv_del2              =   2.4963077337507E-04
(PID.TID 0000.0001) %MON advcfl_uvel_max              =   7.9248750556455E-02
(PID.TID 0000.0001) %MON advcfl_vvel_max              =   7.5102802139777E-02
(PID.TID 0000.0001) %MON advcfl_wvel_max              =   6.5596160800334E-02
(PID.TID 0000.0001) %MON advcfl_W_hf_max              =   7.2429094217035E-02
(PID.TID 0000.0001) %MON pe_b_mean                    =   4.7429753556017E-04
(PID.TID 0000.0001) %MON ke_max                       =   3.8189687500821E-02
(PID.TID 0000.0001) %MON ke_mean                      =   1.4218240518907E-04
(PID.TID 0000.0001) %MON ke_vol                       =   1.3398024453628E+18
(PID.TID 0000.0001) %MON vort_r_min                   =  -1.2756619654413E-06
(PID.TID 0000.0001) %MON vort_r_max                   =   1.2667226378759E-06
(PID.TID 0000.0001) %MON vort_a_mean                  =  -2.0493733748264E-05
(PID.TID 0000.0001) %MON vort_a_sd                    =   7.5053947021495E-05
(PID.TID 0000.0001) %MON vort_p_mean                  =  -2.4715940576391E-05
(PID.TID 0000.0001) %MON vort_p_sd                    =   1.2776249479520E-04
(PID.TID 0000.0001) %MON surfExpan_theta_mean         =  -3.4893810707376E-09
(PID.TID 0000.0001) %MON surfExpan_salt_mean          =  -1.7767397731627E-09
(PID.TID 0000.0001) // =======================================================
(PID.TID 0000.0001) // End MONITOR dynamic field statistics
(PID.TID 0000.0001) // =======================================================
 cg2d: Sum(rhs),rhsMax =  -9.18021214602049E-12  4.20551574252923E+00
(PID.TID 0000.0001)                    cg2d_init_res =    4.44628988946139E-01
(PID.TID 0000.0001)                       cg2d_iters =    63
(PID.TID 0000.0001)                         cg2d_res =    5.19042540917500E-07
(PID.TID 0000.0001) // =======================================================
(PID.TID 0000.0001) // Begin MONITOR dynamic field statistics
(PID.TID 0000.0001) // =======================================================
(PID.TID 0000.0001) %MON time_tsnumber                =                 72020
(PID.TID 0000.0001) %MON time_secondsf                =   6.2225280000000E+09
(PID.TID 0000.0001) %MON dynstat_eta_max              =   8.9187257410001E-01
(PID.TID 0000.0001) %MON dynstat_eta_min              =  -1.6099796776897E+00
(PID.TID 0000.0001) %MON dynstat_eta_mean             =   1.4482528371570E-14
(PID.TID 0000.0001) %MON dynstat_eta_sd               =   5.9671394196547E-01
(PID.TID 0000.0001) %MON dynstat_eta_del2             =   7.7986983468551E-04
(PID.TID 0000.0001) %MON dynstat_uvel_max             =   1.8646053473338E-01
(PID.TID 0000.0001) %MON dynstat_uvel_min             =  -2.7885166534209E-01
(PID.TID 0000.0001) %MON dynstat_uvel_mean            =  -4.8183069747686E-04
(PID.TID 0000.0001) %MON dynstat_uvel_sd              =   1.2077434290945E-02
(PID.TID 0000.0001) %MON dynstat_uvel_del2            =   5.0801349036948E-05
(PID.TID 0000.0001) %MON dynstat_vvel_max             =   1.7186833515012E-01
(PID.TID 0000.0001) %MON dynstat_vvel_min             =  -2.2335547572155E-01
(PID.TID 0000.0001) %MON dynstat_vvel_mean            =  -4.0978636272012E-04
(PID.TID 0000.0001) %MON dynstat_vvel_sd              =   1.2714494195641E-02
(PID.TID 0000.0001) %MON dynstat_vvel_del2            =   5.0066527917005E-05
(PID.TID 0000.0001) %MON dynstat_wvel_max             =   1.1191923682522E-04
(PID.TID 0000.0001) %MON dynstat_wvel_min             =  -2.0052493109133E-04
(PID.TID 0000.0001) %MON dynstat_wvel_mean            =   3.9163709989596E-23
(PID.TID 0000.0001) %MON dynstat_wvel_sd              =   3.8231266595344E-06
(PID.TID 0000.0001) %MON dynstat_wvel_del2            =   2.7028088846599E-08
(PID.TID 0000.0001) %MON dynstat_theta_max            =   3.1074731463310E+01
(PID.TID 0000.0001) %MON dynstat_theta_min            =  -2.1059548736509E+00
(PID.TID 0000.0001) %MON dynstat_theta_mean           =   3.9114723450638E+00
(PID.TID 0000.0001) %MON dynstat_theta_sd             =   4.5744814055976E+00
(PID.TID 0000.0001) %MON dynstat_theta_del2           =   2.4984180428989E-03
(PID.TID 0000.0001) %MON dynstat_salt_max             =   4.1385363875776E+01
(PID.TID 0000.0001) %MON dynstat_salt_min             =   1.8393612484822E+01
(PID.TID 0000.0001) %MON dynstat_salt_mean            =   3.4772115701804E+01
(PID.TID 0000.0001) %MON dynstat_salt_sd              =   5.3108196628706E-01
(PID.TID 0000.0001) %MON dynstat_salt_del2            =   7.5657812257404E-04
(PID.TID 0000.0001) %MON forcing_qnet_max             =   4.4486238709081E+02
(PID.TID 0000.0001) %MON forcing_qnet_min             =  -1.9564239975390E+02
(PID.TID 0000.0001) %MON forcing_qnet_mean            =  -1.2511906062711E+01
(PID.TID 0000.0001) %MON forcing_qnet_sd              =   1.0914044317154E+02
(PID.TID 0000.0001) %MON forcing_qnet_del2            =   4.3563085574914E-01
(PID.TID 0000.0001) %MON forcing_qsw_max              =   0.0000000000000E+00
(PID.TID 0000.0001) %MON forcing_qsw_min              =   0.0000000000000E+00
(PID.TID 0000.0001) %MON forcing_qsw_mean             =   0.0000000000000E+00
(PID.TID 0000.0001) %MON forcing_qsw_sd               =   0.0000000000000E+00
(PID.TID 0000.0001) %MON forcing_qsw_del2             =   0.0000000000000E+00
(PID.TID 0000.0001) %MON forcing_empmr_max            =   7.6494447208479E-05
(PID.TID 0000.0001) %MON forcing_empmr_min            =  -1.5362614137596E-04
(PID.TID 0000.0001) %MON forcing_empmr_mean           =  -4.1932798010144E-22
(PID.TID 0000.0001) %MON forcing_empmr_sd             =   2.4051723601802E-05
(PID.TID 0000.0001) %MON forcing_empmr_del2           =   1.2276157049243E-07
(PID.TID 0000.0001) %MON forcing_fu_max               =   2.3665976779186E-01
(PID.TID 0000.0001) %MON forcing_fu_min               =  -2.3356264696351E-01
(PID.TID 0000.0001) %MON forcing_fu_mean              =  -4.0242113930123E-03
(PID.TID 0000.0001) %MON forcing_fu_sd                =   6.4770281337189E-02
(PID.TID 0000.0001) %MON forcing_fu_del2              =   2.1842206420252E-04
(PID.TID 0000.0001) %MON forcing_fv_max               =   2.8984607764745E-01
(PID.TID 0000.0001) %MON forcing_fv_min               =  -3.2574510356961E-01
(PID.TID 0000.0001) %MON forcing_fv_mean              =  -1.3736224733758E-02
(PID.TID 0000.0001) %MON forcing_fv_sd                =   7.5849088889787E-02
(PID.TID 0000.0001) %MON forcing_fv_del2              =   2.4762463092934E-04
(PID.TID 0000.0001) %MON advcfl_uvel_max              =   7.9087621740839E-02
(PID.TID 0000.0001) %MON advcfl_vvel_max              =   7.4914985974018E-02
(PID.TID 0000.0001) %MON advcfl_wvel_max              =   6.5378694514305E-02
(PID.TID 0000.0001) %MON advcfl_W_hf_max              =   7.2188975192879E-02
(PID.TID 0000.0001) %MON pe_b_mean                    =   4.7434774789725E-04
(PID.TID 0000.0001) %MON ke_max                       =   3.8037680491837E-02
(PID.TID 0000.0001) %MON ke_mean                      =   1.4219272423028E-04
(PID.TID 0000.0001) %MON ke_vol                       =   1.3398024453628E+18
(PID.TID 0000.0001) %MON vort_r_min                   =  -1.2792687233178E-06
(PID.TID 0000.0001) %MON vort_r_max                   =   1.2676315998863E-06
(PID.TID 0000.0001) %MON vort_a_mean                  =  -2.0493733748264E-05
(PID.TID 0000.0001) %MON vort_a_sd                    =   7.5053946987162E-05
(PID.TID 0000.0001) %MON vort_p_mean                  =  -2.4715940492109E-05
(PID.TID 0000.0001) %MON vort_p_sd                    =   1.2776249742679E-04
(PID.TID 0000.0001) %MON surfExpan_theta_mean         =  -1.5544802849459E-09
(PID.TID 0000.0001) %MON surfExpan_salt_mean          =  -1.2923155261877E-09
(PID.TID 0000.0001) // =======================================================
(PID.TID 0000.0001) // End MONITOR dynamic field statistics
(PID.TID 0000.0001) // =======================================================
(PID.TID 0000.0001) %CHECKPOINT     72020 0000072020
(PID.TID 0000.0001)  MDS_READ_FIELD: opening global file: lev_T_cs_15k.bin
 --> objf_test(bi,bj)   =  0.213648760699772E+05
 --> objf_tracer(bi,bj) =  0.000000000000000E+00
 --> objf_atl(bi,bj)    =  0.000000000000000E+00
 --> objf_test(bi,bj)   =  0.114793796464920E+05
 --> objf_tracer(bi,bj) =  0.000000000000000E+00
 --> objf_atl(bi,bj)    =  0.000000000000000E+00
 --> objf_test(bi,bj)   =  0.181911445080012E+05
 --> objf_tracer(bi,bj) =  0.000000000000000E+00
 --> objf_atl(bi,bj)    =  0.000000000000000E+00
 --> objf_test(bi,bj)   =  0.231468902299634E+05
 --> objf_tracer(bi,bj) =  0.000000000000000E+00
 --> objf_atl(bi,bj)    =  0.000000000000000E+00
 --> objf_test(bi,bj)   =  0.145252600546690E+05
 --> objf_tracer(bi,bj) =  0.000000000000000E+00
 --> objf_atl(bi,bj)    =  0.000000000000000E+00
 --> objf_test(bi,bj)   =  0.125100750474459E+05
 --> objf_tracer(bi,bj) =  0.000000000000000E+00
 --> objf_atl(bi,bj)    =  0.000000000000000E+00
  local fc =  0.101217625556549E+06
 global fc =  0.101217625556549E+06
(PID.TID 0000.0001)  MDS_READ_FIELD: opening global file: lev_T_cs_15k.bin
S/R EXTERNAL_FIELDS_LOAD: Reading new data:   12    1     72000  6.220800000000E+09
(PID.TID 0000.0001)  MDS_READ_FIELD: opening global file: trenberth_taux.bin
(PID.TID 0000.0001)  MDS_READ_FIELD: opening global file: trenberth_taux.bin
(PID.TID 0000.0001)  MDS_READ_FIELD: opening global file: trenberth_tauy.bin
(PID.TID 0000.0001)  MDS_READ_FIELD: opening global file: trenberth_tauy.bin
(PID.TID 0000.0001)  MDS_READ_FIELD: opening global file: shiQnet_cs32.bin
(PID.TID 0000.0001)  MDS_READ_FIELD: opening global file: shiQnet_cs32.bin
(PID.TID 0000.0001)  MDS_READ_FIELD: opening global file: shiEmPR_cs32.bin
(PID.TID 0000.0001)  MDS_READ_FIELD: opening global file: shiEmPR_cs32.bin
(PID.TID 0000.0001)  MDS_READ_FIELD: opening global file: lev_surfT_cs_12m.bin
(PID.TID 0000.0001)  MDS_READ_FIELD: opening global file: lev_surfT_cs_12m.bin
(PID.TID 0000.0001)  MDS_READ_FIELD: opening global file: lev_surfS_cs_12m.bin
(PID.TID 0000.0001)  MDS_READ_FIELD: opening global file: lev_surfS_cs_12m.bin
(PID.TID 0000.0001)  MDS_READ_FIELD: opening file: xx_tauu.0000000000.001.001.data
(PID.TID 0000.0001)  MDS_READ_FIELD: opening file: xx_tauu.0000000000.002.001.data
(PID.TID 0000.0001)  MDS_READ_FIELD: opening file: xx_tauu.0000000000.003.001.data
(PID.TID 0000.0001)  MDS_READ_FIELD: opening file: xx_tauu.0000000000.004.001.data
(PID.TID 0000.0001)  MDS_READ_FIELD: opening file: xx_tauu.0000000000.005.001.data
(PID.TID 0000.0001)  MDS_READ_FIELD: opening file: xx_tauu.0000000000.006.001.data
(PID.TID 0000.0001)  MDS_READ_FIELD: opening file: xx_tauv.0000000000.001.001.data
(PID.TID 0000.0001)  MDS_READ_FIELD: opening file: xx_tauv.0000000000.002.001.data
(PID.TID 0000.0001)  MDS_READ_FIELD: opening file: xx_tauv.0000000000.003.001.data
(PID.TID 0000.0001)  MDS_READ_FIELD: opening file: xx_tauv.0000000000.004.001.data
(PID.TID 0000.0001)  MDS_READ_FIELD: opening file: xx_tauv.0000000000.005.001.data
(PID.TID 0000.0001)  MDS_READ_FIELD: opening file: xx_tauv.0000000000.006.001.data
(PID.TID 0000.0001)  MDS_READ_FIELD: opening file: xx_sfl.0000000000.001.001.data
(PID.TID 0000.0001)  MDS_READ_FIELD: opening file: xx_sfl.0000000000.002.001.data
(PID.TID 0000.0001)  MDS_READ_FIELD: opening file: xx_sfl.0000000000.003.001.data
(PID.TID 0000.0001)  MDS_READ_FIELD: opening file: xx_sfl.0000000000.004.001.data
(PID.TID 0000.0001)  MDS_READ_FIELD: opening file: xx_sfl.0000000000.005.001.data
(PID.TID 0000.0001)  MDS_READ_FIELD: opening file: xx_sfl.0000000000.006.001.data
(PID.TID 0000.0001)  MDS_READ_FIELD: opening file: xx_hfl.0000000000.001.001.data
(PID.TID 0000.0001)  MDS_READ_FIELD: opening file: xx_hfl.0000000000.002.001.data
(PID.TID 0000.0001)  MDS_READ_FIELD: opening file: xx_hfl.0000000000.003.001.data
(PID.TID 0000.0001)  MDS_READ_FIELD: opening file: xx_hfl.0000000000.004.001.data
(PID.TID 0000.0001)  MDS_READ_FIELD: opening file: xx_hfl.0000000000.005.001.data
(PID.TID 0000.0001)  MDS_READ_FIELD: opening file: xx_hfl.0000000000.006.001.data
(PID.TID 0000.0001) SOLVE_FOR_PRESSURE: putPmEinXvector =    F
 cg2d: Sum(rhs),rhsMax =  -9.43600753089413E-12  4.28440421776334E+00
 cg2d: Sum(rhs),rhsMax =  -9.37916411203332E-12  4.27982545051953E+00
 cg2d: Sum(rhs),rhsMax =  -9.97602001007181E-12  4.27358143086832E+00
 cg2d: Sum(rhs),rhsMax =  -9.63495949690696E-12  4.26757584348471E+00
 cg2d: Sum(rhs),rhsMax =  -9.63495949690696E-12  4.26162662718429E+00
 cg2d: Sum(rhs),rhsMax =  -9.77706804405898E-12  4.25572412780547E+00
 cg2d: Sum(rhs),rhsMax =  -9.49285094975494E-12  4.24991959387360E+00
 cg2d: Sum(rhs),rhsMax =  -9.66338120633736E-12  4.24428631923664E+00
 cg2d: Sum(rhs),rhsMax =  -9.52127265918534E-12  4.23890091275048E+00
 cg2d: Sum(rhs),rhsMax =  -9.37916411203332E-12  4.23383241322175E+00
 cg2d: Sum(rhs),rhsMax =  -9.86233317235019E-12  4.22913459911249E+00
 cg2d: Sum(rhs),rhsMax =  -9.83391146291979E-12  4.22484531074521E+00
 cg2d: Sum(rhs),rhsMax =  -9.83391146291979E-12  4.22098691684109E+00
 cg2d: Sum(rhs),rhsMax =  -9.40758582146373E-12  4.21756851154969E+00
 cg2d: Sum(rhs),rhsMax =  -9.80548975348938E-12  4.21458764401480E+00
S/R EXTERNAL_FIELDS_LOAD: Reading new data:    1    2     72015  6.222096000000E+09
(PID.TID 0000.0001)  MDS_READ_FIELD: opening global file: trenberth_taux.bin
(PID.TID 0000.0001)  MDS_READ_FIELD: opening global file: trenberth_taux.bin
(PID.TID 0000.0001)  MDS_READ_FIELD: opening global file: trenberth_tauy.bin
(PID.TID 0000.0001)  MDS_READ_FIELD: opening global file: trenberth_tauy.bin
(PID.TID 0000.0001)  MDS_READ_FIELD: opening global file: shiQnet_cs32.bin
(PID.TID 0000.0001)  MDS_READ_FIELD: opening global file: shiQnet_cs32.bin
(PID.TID 0000.0001)  MDS_READ_FIELD: opening global file: shiEmPR_cs32.bin
(PID.TID 0000.0001)  MDS_READ_FIELD: opening global file: shiEmPR_cs32.bin
(PID.TID 0000.0001)  MDS_READ_FIELD: opening global file: lev_surfT_cs_12m.bin
(PID.TID 0000.0001)  MDS_READ_FIELD: opening global file: lev_surfT_cs_12m.bin
(PID.TID 0000.0001)  MDS_READ_FIELD: opening global file: lev_surfS_cs_12m.bin
(PID.TID 0000.0001)  MDS_READ_FIELD: opening global file: lev_surfS_cs_12m.bin
 cg2d: Sum(rhs),rhsMax =  -9.94759830064140E-12  4.21203169271721E+00
 cg2d: Sum(rhs),rhsMax =  -9.57811607804615E-12  4.20976597710753E+00
 cg2d: Sum(rhs),rhsMax =  -9.69180291576777E-12  4.20805789211675E+00
 cg2d: Sum(rhs),rhsMax =  -9.63495949690696E-12  4.20662079938426E+00
 cg2d: Sum(rhs),rhsMax =  -9.18021214602049E-12  4.20551574252923E+00
(PID.TID 0000.0001) Did not write pickup because writePickupAtEnd = FALSE
 cg2d: Sum(rhs),rhsMax =  -9.63495949690696E-12  4.20662079938426E+00
 cg2d: Sum(rhs),rhsMax =  -9.18021214602049E-12  4.20551574252923E+00
(PID.TID 0000.0001) Did not write pickup because writePickupAtEnd = FALSE
 cg2d: Sum(rhs),rhsMax =  -9.18021214602049E-12  4.20551574252923E+00
(PID.TID 0000.0001) Did not write pickup because writePickupAtEnd = FALSE
(PID.TID 0000.0001) // =======================================================
(PID.TID 0000.0001) // Begin MONITOR dynamic field statistics
(PID.TID 0000.0001) // =======================================================
(PID.TID 0000.0001) %MON ad_time_tsnumber             =                 72020
(PID.TID 0000.0001) %MON ad_time_secondsf             =   6.2225280000000E+09
(PID.TID 0000.0001) %MON ad_dynstat_adeta_max         =   0.0000000000000E+00
(PID.TID 0000.0001) %MON ad_dynstat_adeta_min         =   0.0000000000000E+00
(PID.TID 0000.0001) %MON ad_dynstat_adeta_mean        =   0.0000000000000E+00
(PID.TID 0000.0001) %MON ad_dynstat_adeta_sd          =   0.0000000000000E+00
(PID.TID 0000.0001) %MON ad_dynstat_adeta_del2        =   0.0000000000000E+00
(PID.TID 0000.0001) %MON ad_dynstat_aduvel_max        =   0.0000000000000E+00
(PID.TID 0000.0001) %MON ad_dynstat_aduvel_min        =   0.0000000000000E+00
(PID.TID 0000.0001) %MON ad_dynstat_aduvel_mean       =   0.0000000000000E+00
(PID.TID 0000.0001) %MON ad_dynstat_aduvel_sd         =   0.0000000000000E+00
(PID.TID 0000.0001) %MON ad_dynstat_aduvel_del2       =   0.0000000000000E+00
(PID.TID 0000.0001) %MON ad_dynstat_advvel_max        =   0.0000000000000E+00
(PID.TID 0000.0001) %MON ad_dynstat_advvel_min        =   0.0000000000000E+00
(PID.TID 0000.0001) %MON ad_dynstat_advvel_mean       =   0.0000000000000E+00
(PID.TID 0000.0001) %MON ad_dynstat_advvel_sd         =   0.0000000000000E+00
(PID.TID 0000.0001) %MON ad_dynstat_advvel_del2       =   0.0000000000000E+00
(PID.TID 0000.0001) %MON ad_dynstat_adwvel_max        =   0.0000000000000E+00
(PID.TID 0000.0001) %MON ad_dynstat_adwvel_min        =   0.0000000000000E+00
(PID.TID 0000.0001) %MON ad_dynstat_adwvel_mean       =   0.0000000000000E+00
(PID.TID 0000.0001) %MON ad_dynstat_adwvel_sd         =   0.0000000000000E+00
(PID.TID 0000.0001) %MON ad_dynstat_adwvel_del2       =   0.0000000000000E+00
(PID.TID 0000.0001) %MON ad_dynstat_adtheta_max       =   1.8293519897323E+01
(PID.TID 0000.0001) %MON ad_dynstat_adtheta_min       =  -2.1880639173064E+01
(PID.TID 0000.0001) %MON ad_dynstat_adtheta_mean      =   6.1416504288158E-01
(PID.TID 0000.0001) %MON ad_dynstat_adtheta_sd        =   1.9168667305783E+00
(PID.TID 0000.0001) %MON ad_dynstat_adtheta_del2      =   7.1809770185629E-03
(PID.TID 0000.0001) %MON ad_dynstat_adsalt_max        =   0.0000000000000E+00
(PID.TID 0000.0001) %MON ad_dynstat_adsalt_min        =   0.0000000000000E+00
(PID.TID 0000.0001) %MON ad_dynstat_adsalt_mean       =   0.0000000000000E+00
(PID.TID 0000.0001) %MON ad_dynstat_adsalt_sd         =   0.0000000000000E+00
(PID.TID 0000.0001) %MON ad_dynstat_adsalt_del2       =   0.0000000000000E+00
(PID.TID 0000.0001) %MON ad_forcing_adqnet_max        =   0.0000000000000E+00
(PID.TID 0000.0001) %MON ad_forcing_adqnet_min        =   0.0000000000000E+00
(PID.TID 0000.0001) %MON ad_forcing_adqnet_mean       =   0.0000000000000E+00
(PID.TID 0000.0001) %MON ad_forcing_adqnet_sd         =   0.0000000000000E+00
(PID.TID 0000.0001) %MON ad_forcing_adqnet_del2       =   0.0000000000000E+00
(PID.TID 0000.0001) %MON ad_forcing_adqsw_max         =   0.0000000000000E+00
(PID.TID 0000.0001) %MON ad_forcing_adqsw_min         =   0.0000000000000E+00
(PID.TID 0000.0001) %MON ad_forcing_adqsw_mean        =   0.0000000000000E+00
(PID.TID 0000.0001) %MON ad_forcing_adqsw_sd          =   0.0000000000000E+00
(PID.TID 0000.0001) %MON ad_forcing_adqsw_del2        =   0.0000000000000E+00
(PID.TID 0000.0001) %MON ad_forcing_adempmr_max       =   0.0000000000000E+00
(PID.TID 0000.0001) %MON ad_forcing_adempmr_min       =   0.0000000000000E+00
(PID.TID 0000.0001) %MON ad_forcing_adempmr_mean      =   0.0000000000000E+00
(PID.TID 0000.0001) %MON ad_forcing_adempmr_sd        =   0.0000000000000E+00
(PID.TID 0000.0001) %MON ad_forcing_adempmr_del2      =   0.0000000000000E+00
(PID.TID 0000.0001) %MON ad_forcing_adfu_max          =   0.0000000000000E+00
(PID.TID 0000.0001) %MON ad_forcing_adfu_min          =   0.0000000000000E+00
(PID.TID 0000.0001) %MON ad_forcing_adfu_mean         =   0.0000000000000E+00
(PID.TID 0000.0001) %MON ad_forcing_adfu_sd           =   0.0000000000000E+00
(PID.TID 0000.0001) %MON ad_forcing_adfu_del2         =   0.0000000000000E+00
(PID.TID 0000.0001) %MON ad_forcing_adfv_max          =   0.0000000000000E+00
(PID.TID 0000.0001) %MON ad_forcing_adfv_min          =   0.0000000000000E+00
(PID.TID 0000.0001) %MON ad_forcing_adfv_mean         =   0.0000000000000E+00
(PID.TID 0000.0001) %MON ad_forcing_adfv_sd           =   0.0000000000000E+00
(PID.TID 0000.0001) %MON ad_forcing_adfv_del2         =   0.0000000000000E+00
(PID.TID 0000.0001) %MON ad_advcfl_aduvel_max         =   0.0000000000000E+00
(PID.TID 0000.0001) %MON ad_advcfl_advvel_max         =   0.0000000000000E+00
(PID.TID 0000.0001) %MON ad_advcfl_adwvel_max         =   0.0000000000000E+00
(PID.TID 0000.0001) %MON ad_advcfl_adW_hf_max         =   0.0000000000000E+00
(PID.TID 0000.0001) // =======================================================
(PID.TID 0000.0001) // End MONITOR dynamic field statistics
(PID.TID 0000.0001) // =======================================================
 cg2d: Sum(rhs),rhsMax =  -1.73472347597681E-17  8.06000300415209E-03
 cg2d: Sum(rhs),rhsMax =  -9.63495949690696E-12  4.20662079938426E+00
(PID.TID 0000.0001) // =======================================================
(PID.TID 0000.0001) // Begin MONITOR dynamic field statistics
(PID.TID 0000.0001) // =======================================================
(PID.TID 0000.0001) %MON ad_time_tsnumber             =                 72019
(PID.TID 0000.0001) %MON ad_time_secondsf             =   6.2224416000000E+09
(PID.TID 0000.0001) %MON ad_dynstat_adeta_max         =   0.0000000000000E+00
(PID.TID 0000.0001) %MON ad_dynstat_adeta_min         =   0.0000000000000E+00
(PID.TID 0000.0001) %MON ad_dynstat_adeta_mean        =   0.0000000000000E+00
(PID.TID 0000.0001) %MON ad_dynstat_adeta_sd          =   0.0000000000000E+00
(PID.TID 0000.0001) %MON ad_dynstat_adeta_del2        =   0.0000000000000E+00
(PID.TID 0000.0001) %MON ad_dynstat_aduvel_max        =   2.0375086987531E+01
(PID.TID 0000.0001) %MON ad_dynstat_aduvel_min        =  -5.2812605116556E+01
(PID.TID 0000.0001) %MON ad_dynstat_aduvel_mean       =   4.5811793234675E-01
(PID.TID 0000.0001) %MON ad_dynstat_aduvel_sd         =   2.6812791685851E+00
(PID.TID 0000.0001) %MON ad_dynstat_aduvel_del2       =   1.2162143850492E-02
(PID.TID 0000.0001) %MON ad_dynstat_advvel_max        =   3.3961584531736E+01
(PID.TID 0000.0001) %MON ad_dynstat_advvel_min        =  -1.7264982620473E+01
(PID.TID 0000.0001) %MON ad_dynstat_advvel_mean       =  -4.2789369509320E-01
(PID.TID 0000.0001) %MON ad_dynstat_advvel_sd         =   2.0640909031814E+00
(PID.TID 0000.0001) %MON ad_dynstat_advvel_del2       =   1.0033088353215E-02
(PID.TID 0000.0001) %MON ad_dynstat_adwvel_max        =   5.9008452434138E+01
(PID.TID 0000.0001) %MON ad_dynstat_adwvel_min        =  -3.3058404623198E+01
(PID.TID 0000.0001) %MON ad_dynstat_adwvel_mean       =  -2.5995260307065E-03
(PID.TID 0000.0001) %MON ad_dynstat_adwvel_sd         =   6.2548496308562E-01
(PID.TID 0000.0001) %MON ad_dynstat_adwvel_del2       =   8.3941396248203E-03
(PID.TID 0000.0001) %MON ad_dynstat_adtheta_max       =   3.0064631524423E+02
(PID.TID 0000.0001) %MON ad_dynstat_adtheta_min       =  -2.6873806177820E+02
(PID.TID 0000.0001) %MON ad_dynstat_adtheta_mean      =   6.1337391322429E-01
(PID.TID 0000.0001) %MON ad_dynstat_adtheta_sd        =   2.0457717555004E+00
(PID.TID 0000.0001) %MON ad_dynstat_adtheta_del2      =   2.5673120129605E-02
(PID.TID 0000.0001) %MON ad_dynstat_adsalt_max        =   9.6915916508829E+02
(PID.TID 0000.0001) %MON ad_dynstat_adsalt_min        =  -9.6314052531000E+02
(PID.TID 0000.0001) %MON ad_dynstat_adsalt_mean       =  -3.9914095994100E-03
(PID.TID 0000.0001) %MON ad_dynstat_adsalt_sd         =   2.5406797434266E+00
(PID.TID 0000.0001) %MON ad_dynstat_adsalt_del2       =   8.4839752704857E-02
(PID.TID 0000.0001) %MON ad_forcing_adqnet_max        =   0.0000000000000E+00
(PID.TID 0000.0001) %MON ad_forcing_adqnet_min        =   0.0000000000000E+00
(PID.TID 0000.0001) %MON ad_forcing_adqnet_mean       =   0.0000000000000E+00
(PID.TID 0000.0001) %MON ad_forcing_adqnet_sd         =   0.0000000000000E+00
(PID.TID 0000.0001) %MON ad_forcing_adqnet_del2       =   0.0000000000000E+00
(PID.TID 0000.0001) %MON ad_forcing_adqsw_max         =   2.5906516051282E-04
(PID.TID 0000.0001) %MON ad_forcing_adqsw_min         =  -2.3883531035006E-04
(PID.TID 0000.0001) %MON ad_forcing_adqsw_mean        =   1.9028825157139E-05
(PID.TID 0000.0001) %MON ad_forcing_adqsw_sd          =   4.9661770000555E-05
(PID.TID 0000.0001) %MON ad_forcing_adqsw_del2        =   6.8084157831918E-07
(PID.TID 0000.0001) %MON ad_forcing_adempmr_max       =   0.0000000000000E+00
(PID.TID 0000.0001) %MON ad_forcing_adempmr_min       =   0.0000000000000E+00
(PID.TID 0000.0001) %MON ad_forcing_adempmr_mean      =   0.0000000000000E+00
(PID.TID 0000.0001) %MON ad_forcing_adempmr_sd        =   0.0000000000000E+00
(PID.TID 0000.0001) %MON ad_forcing_adempmr_del2      =   0.0000000000000E+00
(PID.TID 0000.0001) %MON ad_forcing_adfu_max          =   0.0000000000000E+00
(PID.TID 0000.0001) %MON ad_forcing_adfu_min          =   0.0000000000000E+00
(PID.TID 0000.0001) %MON ad_forcing_adfu_mean         =   0.0000000000000E+00
(PID.TID 0000.0001) %MON ad_forcing_adfu_sd           =   0.0000000000000E+00
(PID.TID 0000.0001) %MON ad_forcing_adfu_del2         =   0.0000000000000E+00
(PID.TID 0000.0001) %MON ad_forcing_adfv_max          =   0.0000000000000E+00
(PID.TID 0000.0001) %MON ad_forcing_adfv_min          =   0.0000000000000E+00
(PID.TID 0000.0001) %MON ad_forcing_adfv_mean         =   0.0000000000000E+00
(PID.TID 0000.0001) %MON ad_forcing_adfv_sd           =   0.0000000000000E+00
(PID.TID 0000.0001) %MON ad_forcing_adfv_del2         =   0.0000000000000E+00
(PID.TID 0000.0001) %MON ad_advcfl_aduvel_max         =   1.9519991765674E+01
(PID.TID 0000.0001) %MON ad_advcfl_advvel_max         =   1.2175661939671E+01
(PID.TID 0000.0001) %MON ad_advcfl_adwvel_max         =   8.4972171505159E+04
(PID.TID 0000.0001) %MON ad_advcfl_adW_hf_max         =   1.0203199114966E+05
(PID.TID 0000.0001) // =======================================================
(PID.TID 0000.0001) // End MONITOR dynamic field statistics
(PID.TID 0000.0001) // =======================================================
 cg2d: Sum(rhs),rhsMax =  -8.67361737988404E-19  3.81772368400387E-03
 cg2d: Sum(rhs),rhsMax =  -9.57811607804615E-12  4.20976597710753E+00
 cg2d: Sum(rhs),rhsMax =  -9.69180291576777E-12  4.20805789211675E+00
 cg2d: Sum(rhs),rhsMax =  -9.69180291576777E-12  4.20805789211675E+00
(PID.TID 0000.0001) // =======================================================
(PID.TID 0000.0001) // Begin MONITOR dynamic field statistics
(PID.TID 0000.0001) // =======================================================
(PID.TID 0000.0001) %MON ad_time_tsnumber             =                 72018
(PID.TID 0000.0001) %MON ad_time_secondsf             =   6.2223552000000E+09
(PID.TID 0000.0001) %MON ad_dynstat_adeta_max         =   0.0000000000000E+00
(PID.TID 0000.0001) %MON ad_dynstat_adeta_min         =   0.0000000000000E+00
(PID.TID 0000.0001) %MON ad_dynstat_adeta_mean        =   0.0000000000000E+00
(PID.TID 0000.0001) %MON ad_dynstat_adeta_sd          =   0.0000000000000E+00
(PID.TID 0000.0001) %MON ad_dynstat_adeta_del2        =   0.0000000000000E+00
(PID.TID 0000.0001) %MON ad_dynstat_aduvel_max        =   4.2359558809795E+01
(PID.TID 0000.0001) %MON ad_dynstat_aduvel_min        =  -1.0320295032056E+02
(PID.TID 0000.0001) %MON ad_dynstat_aduvel_mean       =   3.9953660669217E-01
(PID.TID 0000.0001) %MON ad_dynstat_aduvel_sd         =   3.1113273947751E+00
(PID.TID 0000.0001) %MON ad_dynstat_aduvel_del2       =   2.2963703966717E-02
(PID.TID 0000.0001) %MON ad_dynstat_advvel_max        =   6.4749461973371E+01
(PID.TID 0000.0001) %MON ad_dynstat_advvel_min        =  -4.1376846544118E+01
(PID.TID 0000.0001) %MON ad_dynstat_advvel_mean       =  -7.1909482443220E-01
(PID.TID 0000.0001) %MON ad_dynstat_advvel_sd         =   2.5797442399163E+00
(PID.TID 0000.0001) %MON ad_dynstat_advvel_del2       =   1.9458238400324E-02
(PID.TID 0000.0001) %MON ad_dynstat_adwvel_max        =   7.5973001856205E+01
(PID.TID 0000.0001) %MON ad_dynstat_adwvel_min        =  -4.5965899108430E+01
(PID.TID 0000.0001) %MON ad_dynstat_adwvel_mean       =  -5.5471017692020E-04
(PID.TID 0000.0001) %MON ad_dynstat_adwvel_sd         =   8.5104858095389E-01
(PID.TID 0000.0001) %MON ad_dynstat_adwvel_del2       =   1.1221085780134E-02
(PID.TID 0000.0001) %MON ad_dynstat_adtheta_max       =   1.9528657924218E+02
(PID.TID 0000.0001) %MON ad_dynstat_adtheta_min       =  -1.6882557781523E+02
(PID.TID 0000.0001) %MON ad_dynstat_adtheta_mean      =   6.1354425273925E-01
(PID.TID 0000.0001) %MON ad_dynstat_adtheta_sd        =   1.9772694622655E+00
(PID.TID 0000.0001) %MON ad_dynstat_adtheta_del2      =   1.8912036771108E-02
(PID.TID 0000.0001) %MON ad_dynstat_adsalt_max        =   6.2165945281151E+02
(PID.TID 0000.0001) %MON ad_dynstat_adsalt_min        =  -6.1666000758304E+02
(PID.TID 0000.0001) %MON ad_dynstat_adsalt_mean       =  -7.1103150490404E-03
(PID.TID 0000.0001) %MON ad_dynstat_adsalt_sd         =   1.9631414398509E+00
(PID.TID 0000.0001) %MON ad_dynstat_adsalt_del2       =   6.2725242507172E-02
(PID.TID 0000.0001) %MON ad_forcing_adqnet_max        =   0.0000000000000E+00
(PID.TID 0000.0001) %MON ad_forcing_adqnet_min        =   0.0000000000000E+00
(PID.TID 0000.0001) %MON ad_forcing_adqnet_mean       =   0.0000000000000E+00
(PID.TID 0000.0001) %MON ad_forcing_adqnet_sd         =   0.0000000000000E+00
(PID.TID 0000.0001) %MON ad_forcing_adqnet_del2       =   0.0000000000000E+00
(PID.TID 0000.0001) %MON ad_forcing_adqsw_max         =   7.7786303328461E-04
(PID.TID 0000.0001) %MON ad_forcing_adqsw_min         =  -5.4948647712340E-03
(PID.TID 0000.0001) %MON ad_forcing_adqsw_mean        =   3.7560538114982E-05
(PID.TID 0000.0001) %MON ad_forcing_adqsw_sd          =   1.2489357833484E-04
(PID.TID 0000.0001) %MON ad_forcing_adqsw_del2        =   4.3736882302196E-06
(PID.TID 0000.0001) %MON ad_forcing_adempmr_max       =   0.0000000000000E+00
(PID.TID 0000.0001) %MON ad_forcing_adempmr_min       =   0.0000000000000E+00
(PID.TID 0000.0001) %MON ad_forcing_adempmr_mean      =   0.0000000000000E+00
(PID.TID 0000.0001) %MON ad_forcing_adempmr_sd        =   0.0000000000000E+00
(PID.TID 0000.0001) %MON ad_forcing_adempmr_del2      =   0.0000000000000E+00
(PID.TID 0000.0001) %MON ad_forcing_adfu_max          =   0.0000000000000E+00
(PID.TID 0000.0001) %MON ad_forcing_adfu_min          =   0.0000000000000E+00
(PID.TID 0000.0001) %MON ad_forcing_adfu_mean         =   0.0000000000000E+00
(PID.TID 0000.0001) %MON ad_forcing_adfu_sd           =   0.0000000000000E+00
(PID.TID 0000.0001) %MON ad_forcing_adfu_del2         =   0.0000000000000E+00
(PID.TID 0000.0001) %MON ad_forcing_adfv_max          =   0.0000000000000E+00
(PID.TID 0000.0001) %MON ad_forcing_adfv_min          =   0.0000000000000E+00
(PID.TID 0000.0001) %MON ad_forcing_adfv_mean         =   0.0000000000000E+00
(PID.TID 0000.0001) %MON ad_forcing_adfv_sd           =   0.0000000000000E+00
(PID.TID 0000.0001) %MON ad_forcing_adfv_del2         =   0.0000000000000E+00
(PID.TID 0000.0001) %MON ad_advcfl_aduvel_max         =   3.8144695494658E+01
(PID.TID 0000.0001) %MON ad_advcfl_advvel_max         =   2.3213509341021E+01
(PID.TID 0000.0001) %MON ad_advcfl_adwvel_max         =   1.0940112267294E+05
(PID.TID 0000.0001) %MON ad_advcfl_adW_hf_max         =   1.3136422490557E+05
(PID.TID 0000.0001) // =======================================================
(PID.TID 0000.0001) // End MONITOR dynamic field statistics
(PID.TID 0000.0001) // =======================================================
 cg2d: Sum(rhs),rhsMax =   1.70761842166467E-18  2.06463282333913E-03
 cg2d: Sum(rhs),rhsMax =  -9.57811607804615E-12  4.20976597710753E+00
(PID.TID 0000.0001) // =======================================================
(PID.TID 0000.0001) // Begin MONITOR dynamic field statistics
(PID.TID 0000.0001) // =======================================================
(PID.TID 0000.0001) %MON ad_time_tsnumber             =                 72017
(PID.TID 0000.0001) %MON ad_time_secondsf             =   6.2222688000000E+09
(PID.TID 0000.0001) %MON ad_dynstat_adeta_max         =   0.0000000000000E+00
(PID.TID 0000.0001) %MON ad_dynstat_adeta_min         =   0.0000000000000E+00
(PID.TID 0000.0001) %MON ad_dynstat_adeta_mean        =   0.0000000000000E+00
(PID.TID 0000.0001) %MON ad_dynstat_adeta_sd          =   0.0000000000000E+00
(PID.TID 0000.0001) %MON ad_dynstat_adeta_del2        =   0.0000000000000E+00
(PID.TID 0000.0001) %MON ad_dynstat_aduvel_max        =   8.0993313385754E+01
(PID.TID 0000.0001) %MON ad_dynstat_aduvel_min        =  -1.5201844543078E+02
(PID.TID 0000.0001) %MON ad_dynstat_aduvel_mean       =   1.3524777991141E-01
(PID.TID 0000.0001) %MON ad_dynstat_aduvel_sd         =   3.6075412065765E+00
(PID.TID 0000.0001) %MON ad_dynstat_aduvel_del2       =   3.3719075979699E-02
(PID.TID 0000.0001) %MON ad_dynstat_advvel_max        =   9.4212524267067E+01
(PID.TID 0000.0001) %MON ad_dynstat_advvel_min        =  -7.0507926034756E+01
(PID.TID 0000.0001) %MON ad_dynstat_advvel_mean       =  -7.9206811134434E-01
(PID.TID 0000.0001) %MON ad_dynstat_advvel_sd         =   3.3412151940066E+00
(PID.TID 0000.0001) %MON ad_dynstat_advvel_del2       =   2.8808211699496E-02
(PID.TID 0000.0001) %MON ad_dynstat_adwvel_max        =   1.0468867040199E+02
(PID.TID 0000.0001) %MON ad_dynstat_adwvel_min        =  -6.2227544079845E+01
(PID.TID 0000.0001) %MON ad_dynstat_adwvel_mean       =  -2.4649792598119E-03
(PID.TID 0000.0001) %MON ad_dynstat_adwvel_sd         =   1.1506282055616E+00
(PID.TID 0000.0001) %MON ad_dynstat_adwvel_del2       =   1.5098226928478E-02
(PID.TID 0000.0001) %MON ad_dynstat_adtheta_max       =   1.7810175772177E+02
(PID.TID 0000.0001) %MON ad_dynstat_adtheta_min       =  -1.5085296615555E+02
(PID.TID 0000.0001) %MON ad_dynstat_adtheta_mean      =   6.1400076771579E-01
(PID.TID 0000.0001) %MON ad_dynstat_adtheta_sd        =   1.9702170886318E+00
(PID.TID 0000.0001) %MON ad_dynstat_adtheta_del2      =   1.8399988436035E-02
(PID.TID 0000.0001) %MON ad_dynstat_adsalt_max        =   5.6643653862495E+02
(PID.TID 0000.0001) %MON ad_dynstat_adsalt_min        =  -5.5951369596581E+02
(PID.TID 0000.0001) %MON ad_dynstat_adsalt_mean       =  -1.1215048476727E-02
(PID.TID 0000.0001) %MON ad_dynstat_adsalt_sd         =   2.0451985907343E+00
(PID.TID 0000.0001) %MON ad_dynstat_adsalt_del2       =   6.3193970619923E-02
(PID.TID 0000.0001) %MON ad_forcing_adqnet_max        =   0.0000000000000E+00
(PID.TID 0000.0001) %MON ad_forcing_adqnet_min        =   0.0000000000000E+00
(PID.TID 0000.0001) %MON ad_forcing_adqnet_mean       =   0.0000000000000E+00
(PID.TID 0000.0001) %MON ad_forcing_adqnet_sd         =   0.0000000000000E+00
(PID.TID 0000.0001) %MON ad_forcing_adqnet_del2       =   0.0000000000000E+00
(PID.TID 0000.0001) %MON ad_forcing_adqsw_max         =   1.8189969718931E-03
(PID.TID 0000.0001) %MON ad_forcing_adqsw_min         =  -9.2682655354033E-03
(PID.TID 0000.0001) %MON ad_forcing_adqsw_mean        =   5.6513266739142E-05
(PID.TID 0000.0001) %MON ad_forcing_adqsw_sd          =   1.9822374653917E-04
(PID.TID 0000.0001) %MON ad_forcing_adqsw_del2        =   7.4976900151491E-06
(PID.TID 0000.0001) %MON ad_forcing_adempmr_max       =   0.0000000000000E+00
(PID.TID 0000.0001) %MON ad_forcing_adempmr_min       =   0.0000000000000E+00
(PID.TID 0000.0001) %MON ad_forcing_adempmr_mean      =   0.0000000000000E+00
(PID.TID 0000.0001) %MON ad_forcing_adempmr_sd        =   0.0000000000000E+00
(PID.TID 0000.0001) %MON ad_forcing_adempmr_del2      =   0.0000000000000E+00
(PID.TID 0000.0001) %MON ad_forcing_adfu_max          =   0.0000000000000E+00
(PID.TID 0000.0001) %MON ad_forcing_adfu_min          =   0.0000000000000E+00
(PID.TID 0000.0001) %MON ad_forcing_adfu_mean         =   0.0000000000000E+00
(PID.TID 0000.0001) %MON ad_forcing_adfu_sd           =   0.0000000000000E+00
(PID.TID 0000.0001) %MON ad_forcing_adfu_del2         =   0.0000000000000E+00
(PID.TID 0000.0001) %MON ad_forcing_adfv_max          =   0.0000000000000E+00
(PID.TID 0000.0001) %MON ad_forcing_adfv_min          =   0.0000000000000E+00
(PID.TID 0000.0001) %MON ad_forcing_adfv_mean         =   0.0000000000000E+00
(PID.TID 0000.0001) %MON ad_forcing_adfv_sd           =   0.0000000000000E+00
(PID.TID 0000.0001) %MON ad_forcing_adfv_del2         =   0.0000000000000E+00
(PID.TID 0000.0001) %MON ad_advcfl_aduvel_max         =   5.6187321123251E+01
(PID.TID 0000.0001) %MON ad_advcfl_advvel_max         =   3.2907011638210E+01
(PID.TID 0000.0001) %MON ad_advcfl_adwvel_max         =   1.5075168537887E+05
(PID.TID 0000.0001) %MON ad_advcfl_adW_hf_max         =   1.8101424122988E+05
(PID.TID 0000.0001) // =======================================================
(PID.TID 0000.0001) // End MONITOR dynamic field statistics
(PID.TID 0000.0001) // =======================================================
 cg2d: Sum(rhs),rhsMax =  -7.58941520739853E-19  2.28628472923160E-03
 cg2d: Sum(rhs),rhsMax =  -9.80548975348938E-12  4.21458764401480E+00
S/R EXTERNAL_FIELDS_LOAD: Reading new data:    1    2     72015  6.222096000000E+09
(PID.TID 0000.0001)  MDS_READ_FIELD: opening global file: trenberth_taux.bin
(PID.TID 0000.0001)  MDS_READ_FIELD: opening global file: trenberth_taux.bin
(PID.TID 0000.0001)  MDS_READ_FIELD: opening global file: trenberth_tauy.bin
(PID.TID 0000.0001)  MDS_READ_FIELD: opening global file: trenberth_tauy.bin
(PID.TID 0000.0001)  MDS_READ_FIELD: opening global file: shiQnet_cs32.bin
(PID.TID 0000.0001)  MDS_READ_FIELD: opening global file: shiQnet_cs32.bin
(PID.TID 0000.0001)  MDS_READ_FIELD: opening global file: shiEmPR_cs32.bin
(PID.TID 0000.0001)  MDS_READ_FIELD: opening global file: shiEmPR_cs32.bin
(PID.TID 0000.0001)  MDS_READ_FIELD: opening global file: lev_surfT_cs_12m.bin
(PID.TID 0000.0001)  MDS_READ_FIELD: opening global file: lev_surfT_cs_12m.bin
(PID.TID 0000.0001)  MDS_READ_FIELD: opening global file: lev_surfS_cs_12m.bin
(PID.TID 0000.0001)  MDS_READ_FIELD: opening global file: lev_surfS_cs_12m.bin
 cg2d: Sum(rhs),rhsMax =  -9.94759830064140E-12  4.21203169271721E+00
S/R EXTERNAL_FIELDS_LOAD: Reading new data:    1    2     72015  6.222096000000E+09
(PID.TID 0000.0001)  MDS_READ_FIELD: opening global file: trenberth_taux.bin
(PID.TID 0000.0001)  MDS_READ_FIELD: opening global file: trenberth_taux.bin
(PID.TID 0000.0001)  MDS_READ_FIELD: opening global file: trenberth_tauy.bin
(PID.TID 0000.0001)  MDS_READ_FIELD: opening global file: trenberth_tauy.bin
(PID.TID 0000.0001)  MDS_READ_FIELD: opening global file: shiQnet_cs32.bin
(PID.TID 0000.0001)  MDS_READ_FIELD: opening global file: shiQnet_cs32.bin
(PID.TID 0000.0001)  MDS_READ_FIELD: opening global file: shiEmPR_cs32.bin
(PID.TID 0000.0001)  MDS_READ_FIELD: opening global file: shiEmPR_cs32.bin
(PID.TID 0000.0001)  MDS_READ_FIELD: opening global file: lev_surfT_cs_12m.bin
(PID.TID 0000.0001)  MDS_READ_FIELD: opening global file: lev_surfT_cs_12m.bin
(PID.TID 0000.0001)  MDS_READ_FIELD: opening global file: lev_surfS_cs_12m.bin
(PID.TID 0000.0001)  MDS_READ_FIELD: opening global file: lev_surfS_cs_12m.bin
 cg2d: Sum(rhs),rhsMax =  -9.94759830064140E-12  4.21203169271721E+00
(PID.TID 0000.0001) // =======================================================
(PID.TID 0000.0001) // Begin MONITOR dynamic field statistics
(PID.TID 0000.0001) // =======================================================
(PID.TID 0000.0001) %MON ad_time_tsnumber             =                 72016
(PID.TID 0000.0001) %MON ad_time_secondsf             =   6.2221824000000E+09
(PID.TID 0000.0001) %MON ad_dynstat_adeta_max         =   0.0000000000000E+00
(PID.TID 0000.0001) %MON ad_dynstat_adeta_min         =   0.0000000000000E+00
(PID.TID 0000.0001) %MON ad_dynstat_adeta_mean        =   0.0000000000000E+00
(PID.TID 0000.0001) %MON ad_dynstat_adeta_sd          =   0.0000000000000E+00
(PID.TID 0000.0001) %MON ad_dynstat_adeta_del2        =   0.0000000000000E+00
(PID.TID 0000.0001) %MON ad_dynstat_aduvel_max        =   1.5028481306386E+02
(PID.TID 0000.0001) %MON ad_dynstat_aduvel_min        =  -1.9838280000399E+02
(PID.TID 0000.0001) %MON ad_dynstat_aduvel_mean       =  -1.1362897087479E-01
(PID.TID 0000.0001) %MON ad_dynstat_aduvel_sd         =   4.4138108030208E+00
(PID.TID 0000.0001) %MON ad_dynstat_aduvel_del2       =   4.4321488675435E-02
(PID.TID 0000.0001) %MON ad_dynstat_advvel_max        =   1.4870869878993E+02
(PID.TID 0000.0001) %MON ad_dynstat_advvel_min        =  -9.6991330776653E+01
(PID.TID 0000.0001) %MON ad_dynstat_advvel_mean       =  -6.8958958620215E-01
(PID.TID 0000.0001) %MON ad_dynstat_advvel_sd         =   4.2317269237569E+00
(PID.TID 0000.0001) %MON ad_dynstat_advvel_del2       =   3.8171117495073E-02
(PID.TID 0000.0001) %MON ad_dynstat_adwvel_max        =   1.3320067118813E+02
(PID.TID 0000.0001) %MON ad_dynstat_adwvel_min        =  -7.8841378206899E+01
(PID.TID 0000.0001) %MON ad_dynstat_adwvel_mean       =  -2.8740549769481E-03
(PID.TID 0000.0001) %MON ad_dynstat_adwvel_sd         =   1.4646233381794E+00
(PID.TID 0000.0001) %MON ad_dynstat_adwvel_del2       =   1.9258857443628E-02
(PID.TID 0000.0001) %MON ad_dynstat_adtheta_max       =   1.7334039135483E+02
(PID.TID 0000.0001) %MON ad_dynstat_adtheta_min       =  -1.4427664058012E+02
(PID.TID 0000.0001) %MON ad_dynstat_adtheta_mean      =   6.1465923821262E-01
(PID.TID 0000.0001) %MON ad_dynstat_adtheta_sd        =   1.9694133599455E+00
(PID.TID 0000.0001) %MON ad_dynstat_adtheta_del2      =   1.8538556471781E-02
(PID.TID 0000.0001) %MON ad_dynstat_adsalt_max        =   5.5132424228722E+02
(PID.TID 0000.0001) %MON ad_dynstat_adsalt_min        =  -5.4320742517866E+02
(PID.TID 0000.0001) %MON ad_dynstat_adsalt_mean       =  -1.6212709036381E-02
(PID.TID 0000.0001) %MON ad_dynstat_adsalt_sd         =   2.1928852128560E+00
(PID.TID 0000.0001) %MON ad_dynstat_adsalt_del2       =   6.5832812529113E-02
(PID.TID 0000.0001) %MON ad_forcing_adqnet_max        =   0.0000000000000E+00
(PID.TID 0000.0001) %MON ad_forcing_adqnet_min        =   0.0000000000000E+00
(PID.TID 0000.0001) %MON ad_forcing_adqnet_mean       =   0.0000000000000E+00
(PID.TID 0000.0001) %MON ad_forcing_adqnet_sd         =   0.0000000000000E+00
(PID.TID 0000.0001) %MON ad_forcing_adqnet_del2       =   0.0000000000000E+00
(PID.TID 0000.0001) %MON ad_forcing_adqsw_max         =   2.8946480654173E-03
(PID.TID 0000.0001) %MON ad_forcing_adqsw_min         =  -1.2762006792150E-02
(PID.TID 0000.0001) %MON ad_forcing_adqsw_mean        =   7.5601552118655E-05
(PID.TID 0000.0001) %MON ad_forcing_adqsw_sd          =   2.7029294832175E-04
(PID.TID 0000.0001) %MON ad_forcing_adqsw_del2        =   1.0541676267623E-05
(PID.TID 0000.0001) %MON ad_forcing_adempmr_max       =   0.0000000000000E+00
(PID.TID 0000.0001) %MON ad_forcing_adempmr_min       =   0.0000000000000E+00
(PID.TID 0000.0001) %MON ad_forcing_adempmr_mean      =   0.0000000000000E+00
(PID.TID 0000.0001) %MON ad_forcing_adempmr_sd        =   0.0000000000000E+00
(PID.TID 0000.0001) %MON ad_forcing_adempmr_del2      =   0.0000000000000E+00
(PID.TID 0000.0001) %MON ad_forcing_adfu_max          =   0.0000000000000E+00
(PID.TID 0000.0001) %MON ad_forcing_adfu_min          =   0.0000000000000E+00
(PID.TID 0000.0001) %MON ad_forcing_adfu_mean         =   0.0000000000000E+00
(PID.TID 0000.0001) %MON ad_forcing_adfu_sd           =   0.0000000000000E+00
(PID.TID 0000.0001) %MON ad_forcing_adfu_del2         =   0.0000000000000E+00
(PID.TID 0000.0001) %MON ad_forcing_adfv_max          =   0.0000000000000E+00
(PID.TID 0000.0001) %MON ad_forcing_adfv_min          =   0.0000000000000E+00
(PID.TID 0000.0001) %MON ad_forcing_adfv_mean         =   0.0000000000000E+00
(PID.TID 0000.0001) %MON ad_forcing_adfv_sd           =   0.0000000000000E+00
(PID.TID 0000.0001) %MON ad_forcing_adfv_del2         =   0.0000000000000E+00
(PID.TID 0000.0001) %MON ad_advcfl_aduvel_max         =   7.3323984188681E+01
(PID.TID 0000.0001) %MON ad_advcfl_advvel_max         =   4.7616465834631E+01
(PID.TID 0000.0001) %MON ad_advcfl_adwvel_max         =   1.9180896651090E+05
(PID.TID 0000.0001) %MON ad_advcfl_adW_hf_max         =   2.3031095472170E+05
(PID.TID 0000.0001) // =======================================================
(PID.TID 0000.0001) // End MONITOR dynamic field statistics
(PID.TID 0000.0001) // =======================================================
 cg2d: Sum(rhs),rhsMax =  -1.73472347597681E-18  1.96942928662876E-03
 cg2d: Sum(rhs),rhsMax =  -9.80548975348938E-12  4.21458764401480E+00
(PID.TID 0000.0001) // =======================================================
(PID.TID 0000.0001) // Begin MONITOR dynamic field statistics
(PID.TID 0000.0001) // =======================================================
(PID.TID 0000.0001) %MON ad_time_tsnumber             =                 72015
(PID.TID 0000.0001) %MON ad_time_secondsf             =   6.2220960000000E+09
(PID.TID 0000.0001) %MON ad_dynstat_adeta_max         =   0.0000000000000E+00
(PID.TID 0000.0001) %MON ad_dynstat_adeta_min         =   0.0000000000000E+00
(PID.TID 0000.0001) %MON ad_dynstat_adeta_mean        =   0.0000000000000E+00
(PID.TID 0000.0001) %MON ad_dynstat_adeta_sd          =   0.0000000000000E+00
(PID.TID 0000.0001) %MON ad_dynstat_adeta_del2        =   0.0000000000000E+00
(PID.TID 0000.0001) %MON ad_dynstat_aduvel_max        =   2.4379744479371E+02
(PID.TID 0000.0001) %MON ad_dynstat_aduvel_min        =  -2.4192748894232E+02
(PID.TID 0000.0001) %MON ad_dynstat_aduvel_mean       =  -2.7074320574775E-01
(PID.TID 0000.0001) %MON ad_dynstat_aduvel_sd         =   5.3226849567730E+00
(PID.TID 0000.0001) %MON ad_dynstat_aduvel_del2       =   5.4848910448504E-02
(PID.TID 0000.0001) %MON ad_dynstat_advvel_max        =   2.0765698322918E+02
(PID.TID 0000.0001) %MON ad_dynstat_advvel_min        =  -1.2933206506220E+02
(PID.TID 0000.0001) %MON ad_dynstat_advvel_mean       =  -4.9252268641645E-01
(PID.TID 0000.0001) %MON ad_dynstat_advvel_sd         =   5.1298177853315E+00
(PID.TID 0000.0001) %MON ad_dynstat_advvel_del2       =   4.7374927835670E-02
(PID.TID 0000.0001) %MON ad_dynstat_adwvel_max        =   1.6024481679485E+02
(PID.TID 0000.0001) %MON ad_dynstat_adwvel_min        =  -9.4821042174088E+01
(PID.TID 0000.0001) %MON ad_dynstat_adwvel_mean       =  -3.6895574180235E-03
(PID.TID 0000.0001) %MON ad_dynstat_adwvel_sd         =   1.7650909947538E+00
(PID.TID 0000.0001) %MON ad_dynstat_adwvel_del2       =   2.3167961341446E-02
(PID.TID 0000.0001) %MON ad_dynstat_adtheta_max       =   1.6927286746250E+02
(PID.TID 0000.0001) %MON ad_dynstat_adtheta_min       =  -1.3865099919439E+02
(PID.TID 0000.0001) %MON ad_dynstat_adtheta_mean      =   6.1547376472943E-01
(PID.TID 0000.0001) %MON ad_dynstat_adtheta_sd        =   1.9696360837178E+00
(PID.TID 0000.0001) %MON ad_dynstat_adtheta_del2      =   1.8672036156403E-02
(PID.TID 0000.0001) %MON ad_dynstat_adsalt_max        =   5.3881374340520E+02
(PID.TID 0000.0001) %MON ad_dynstat_adsalt_min        =  -5.2953005074056E+02
(PID.TID 0000.0001) %MON ad_dynstat_adsalt_mean       =  -2.2044966406650E-02
(PID.TID 0000.0001) %MON ad_dynstat_adsalt_sd         =   2.3735258678477E+00
(PID.TID 0000.0001) %MON ad_dynstat_adsalt_del2       =   6.8562706504967E-02
(PID.TID 0000.0001) %MON ad_forcing_adqnet_max        =   0.0000000000000E+00
(PID.TID 0000.0001) %MON ad_forcing_adqnet_min        =   0.0000000000000E+00
(PID.TID 0000.0001) %MON ad_forcing_adqnet_mean       =   0.0000000000000E+00
(PID.TID 0000.0001) %MON ad_forcing_adqnet_sd         =   0.0000000000000E+00
(PID.TID 0000.0001) %MON ad_forcing_adqnet_del2       =   0.0000000000000E+00
(PID.TID 0000.0001) %MON ad_forcing_adqsw_max         =   4.2908327491434E-03
(PID.TID 0000.0001) %MON ad_forcing_adqsw_min         =  -1.6165963785331E-02
(PID.TID 0000.0001) %MON ad_forcing_adqsw_mean        =   9.4660376736145E-05
(PID.TID 0000.0001) %MON ad_forcing_adqsw_sd          =   3.4223653524416E-04
(PID.TID 0000.0001) %MON ad_forcing_adqsw_del2        =   1.3603150177562E-05
(PID.TID 0000.0001) %MON ad_forcing_adempmr_max       =   0.0000000000000E+00
(PID.TID 0000.0001) %MON ad_forcing_adempmr_min       =   0.0000000000000E+00
(PID.TID 0000.0001) %MON ad_forcing_adempmr_mean      =   0.0000000000000E+00
(PID.TID 0000.0001) %MON ad_forcing_adempmr_sd        =   0.0000000000000E+00
(PID.TID 0000.0001) %MON ad_forcing_adempmr_del2      =   0.0000000000000E+00
(PID.TID 0000.0001) %MON ad_forcing_adfu_max          =   0.0000000000000E+00
(PID.TID 0000.0001) %MON ad_forcing_adfu_min          =   0.0000000000000E+00
(PID.TID 0000.0001) %MON ad_forcing_adfu_mean         =   0.0000000000000E+00
(PID.TID 0000.0001) %MON ad_forcing_adfu_sd           =   0.0000000000000E+00
(PID.TID 0000.0001) %MON ad_forcing_adfu_del2         =   0.0000000000000E+00
(PID.TID 0000.0001) %MON ad_forcing_adfv_max          =   0.0000000000000E+00
(PID.TID 0000.0001) %MON ad_forcing_adfv_min          =   0.0000000000000E+00
(PID.TID 0000.0001) %MON ad_forcing_adfv_mean         =   0.0000000000000E+00
(PID.TID 0000.0001) %MON ad_forcing_adfv_sd           =   0.0000000000000E+00
(PID.TID 0000.0001) %MON ad_forcing_adfv_del2         =   0.0000000000000E+00
(PID.TID 0000.0001) %MON ad_advcfl_aduvel_max         =   1.0472760245899E+02
(PID.TID 0000.0001) %MON ad_advcfl_advvel_max         =   6.6491682919120E+01
(PID.TID 0000.0001) %MON ad_advcfl_adwvel_max         =   2.3075253618459E+05
(PID.TID 0000.0001) %MON ad_advcfl_adW_hf_max         =   2.7706868489092E+05
(PID.TID 0000.0001) // =======================================================
(PID.TID 0000.0001) // End MONITOR dynamic field statistics
(PID.TID 0000.0001) // =======================================================
 cg2d: Sum(rhs),rhsMax =  -2.71050543121376E-19  1.23329202475917E-03
 cg2d: Sum(rhs),rhsMax =  -9.83391146291979E-12  4.22098691684109E+00
 cg2d: Sum(rhs),rhsMax =  -9.40758582146373E-12  4.21756851154969E+00
 cg2d: Sum(rhs),rhsMax =  -9.40758582146373E-12  4.21756851154969E+00
(PID.TID 0000.0001) // =======================================================
(PID.TID 0000.0001) // Begin MONITOR dynamic field statistics
(PID.TID 0000.0001) // =======================================================
(PID.TID 0000.0001) %MON ad_time_tsnumber             =                 72014
(PID.TID 0000.0001) %MON ad_time_secondsf             =   6.2220096000000E+09
(PID.TID 0000.0001) %MON ad_dynstat_adeta_max         =   0.0000000000000E+00
(PID.TID 0000.0001) %MON ad_dynstat_adeta_min         =   0.0000000000000E+00
(PID.TID 0000.0001) %MON ad_dynstat_adeta_mean        =   0.0000000000000E+00
(PID.TID 0000.0001) %MON ad_dynstat_adeta_sd          =   0.0000000000000E+00
(PID.TID 0000.0001) %MON ad_dynstat_adeta_del2        =   0.0000000000000E+00
(PID.TID 0000.0001) %MON ad_dynstat_aduvel_max        =   3.5403649584579E+02
(PID.TID 0000.0001) %MON ad_dynstat_aduvel_min        =  -2.8224579235356E+02
(PID.TID 0000.0001) %MON ad_dynstat_aduvel_mean       =  -3.2428621431911E-01
(PID.TID 0000.0001) %MON ad_dynstat_aduvel_sd         =   6.2071683590061E+00
(PID.TID 0000.0001) %MON ad_dynstat_aduvel_del2       =   6.5321952761476E-02
(PID.TID 0000.0001) %MON ad_dynstat_advvel_max        =   2.7057845650498E+02
(PID.TID 0000.0001) %MON ad_dynstat_advvel_min        =  -1.8661370485304E+02
(PID.TID 0000.0001) %MON ad_dynstat_advvel_mean       =  -2.8015317758093E-01
(PID.TID 0000.0001) %MON ad_dynstat_advvel_sd         =   5.9898723622213E+00
(PID.TID 0000.0001) %MON ad_dynstat_advvel_del2       =   5.6356516886636E-02
(PID.TID 0000.0001) %MON ad_dynstat_adwvel_max        =   1.8560602725309E+02
(PID.TID 0000.0001) %MON ad_dynstat_adwvel_min        =  -1.1011461624155E+02
(PID.TID 0000.0001) %MON ad_dynstat_adwvel_mean       =  -4.5288141284399E-03
(PID.TID 0000.0001) %MON ad_dynstat_adwvel_sd         =   2.0526953947657E+00
(PID.TID 0000.0001) %MON ad_dynstat_adwvel_del2       =   2.6921547508471E-02
(PID.TID 0000.0001) %MON ad_dynstat_adtheta_max       =   1.6493943279079E+02
(PID.TID 0000.0001) %MON ad_dynstat_adtheta_min       =  -1.3302880068230E+02
(PID.TID 0000.0001) %MON ad_dynstat_adtheta_mean      =   6.1640429813386E-01
(PID.TID 0000.0001) %MON ad_dynstat_adtheta_sd        =   1.9706137740243E+00
(PID.TID 0000.0001) %MON ad_dynstat_adtheta_del2      =   1.8640966722945E-02
(PID.TID 0000.0001) %MON ad_dynstat_adsalt_max        =   5.2565627587708E+02
(PID.TID 0000.0001) %MON ad_dynstat_adsalt_min        =  -5.1521290563860E+02
(PID.TID 0000.0001) %MON ad_dynstat_adsalt_mean       =  -2.8480977426035E-02
(PID.TID 0000.0001) %MON ad_dynstat_adsalt_sd         =   2.5726072059017E+00
(PID.TID 0000.0001) %MON ad_dynstat_adsalt_del2       =   7.0375056116808E-02
(PID.TID 0000.0001) %MON ad_forcing_adqnet_max        =   0.0000000000000E+00
(PID.TID 0000.0001) %MON ad_forcing_adqnet_min        =   0.0000000000000E+00
(PID.TID 0000.0001) %MON ad_forcing_adqnet_mean       =   0.0000000000000E+00
(PID.TID 0000.0001) %MON ad_forcing_adqnet_sd         =   0.0000000000000E+00
(PID.TID 0000.0001) %MON ad_forcing_adqnet_del2       =   0.0000000000000E+00
(PID.TID 0000.0001) %MON ad_forcing_adqsw_max         =   5.7332228945710E-03
(PID.TID 0000.0001) %MON ad_forcing_adqsw_min         =  -1.9478117272743E-02
(PID.TID 0000.0001) %MON ad_forcing_adqsw_mean        =   1.1361977016775E-04
(PID.TID 0000.0001) %MON ad_forcing_adqsw_sd          =   4.1378549235641E-04
(PID.TID 0000.0001) %MON ad_forcing_adqsw_del2        =   1.6658224717526E-05
(PID.TID 0000.0001) %MON ad_forcing_adempmr_max       =   0.0000000000000E+00
(PID.TID 0000.0001) %MON ad_forcing_adempmr_min       =   0.0000000000000E+00
(PID.TID 0000.0001) %MON ad_forcing_adempmr_mean      =   0.0000000000000E+00
(PID.TID 0000.0001) %MON ad_forcing_adempmr_sd        =   0.0000000000000E+00
(PID.TID 0000.0001) %MON ad_forcing_adempmr_del2      =   0.0000000000000E+00
(PID.TID 0000.0001) %MON ad_forcing_adfu_max          =   0.0000000000000E+00
(PID.TID 0000.0001) %MON ad_forcing_adfu_min          =   0.0000000000000E+00
(PID.TID 0000.0001) %MON ad_forcing_adfu_mean         =   0.0000000000000E+00
(PID.TID 0000.0001) %MON ad_forcing_adfu_sd           =   0.0000000000000E+00
(PID.TID 0000.0001) %MON ad_forcing_adfu_del2         =   0.0000000000000E+00
(PID.TID 0000.0001) %MON ad_forcing_adfv_max          =   0.0000000000000E+00
(PID.TID 0000.0001) %MON ad_forcing_adfv_min          =   0.0000000000000E+00
(PID.TID 0000.0001) %MON ad_forcing_adfv_mean         =   0.0000000000000E+00
(PID.TID 0000.0001) %MON ad_forcing_adfv_sd           =   0.0000000000000E+00
(PID.TID 0000.0001) %MON ad_forcing_adfv_del2         =   0.0000000000000E+00
(PID.TID 0000.0001) %MON ad_advcfl_aduvel_max         =   1.5208278095073E+02
(PID.TID 0000.0001) %MON ad_advcfl_advvel_max         =   8.6639113478878E+01
(PID.TID 0000.0001) %MON ad_advcfl_adwvel_max         =   2.6727267924444E+05
(PID.TID 0000.0001) %MON ad_advcfl_adW_hf_max         =   3.2091586353196E+05
(PID.TID 0000.0001) // =======================================================
(PID.TID 0000.0001) // End MONITOR dynamic field statistics
(PID.TID 0000.0001) // =======================================================
 cg2d: Sum(rhs),rhsMax =   1.13841228110978E-18  3.88365810081444E-03
 cg2d: Sum(rhs),rhsMax =  -9.83391146291979E-12  4.22098691684109E+00
(PID.TID 0000.0001) // =======================================================
(PID.TID 0000.0001) // Begin MONITOR dynamic field statistics
(PID.TID 0000.0001) // =======================================================
(PID.TID 0000.0001) %MON ad_time_tsnumber             =                 72013
(PID.TID 0000.0001) %MON ad_time_secondsf             =   6.2219232000000E+09
(PID.TID 0000.0001) %MON ad_dynstat_adeta_max         =   0.0000000000000E+00
(PID.TID 0000.0001) %MON ad_dynstat_adeta_min         =   0.0000000000000E+00
(PID.TID 0000.0001) %MON ad_dynstat_adeta_mean        =   0.0000000000000E+00
(PID.TID 0000.0001) %MON ad_dynstat_adeta_sd          =   0.0000000000000E+00
(PID.TID 0000.0001) %MON ad_dynstat_adeta_del2        =   0.0000000000000E+00
(PID.TID 0000.0001) %MON ad_dynstat_aduvel_max        =   4.7138680174198E+02
(PID.TID 0000.0001) %MON ad_dynstat_aduvel_min        =  -3.1813268055331E+02
(PID.TID 0000.0001) %MON ad_dynstat_aduvel_mean       =  -3.0266459698033E-01
(PID.TID 0000.0001) %MON ad_dynstat_aduvel_sd         =   7.0297115217035E+00
(PID.TID 0000.0001) %MON ad_dynstat_aduvel_del2       =   7.5210296604053E-02
(PID.TID 0000.0001) %MON ad_dynstat_advvel_max        =   3.1112465192925E+02
(PID.TID 0000.0001) %MON ad_dynstat_advvel_min        =  -2.4307594752765E+02
(PID.TID 0000.0001) %MON ad_dynstat_advvel_mean       =  -9.8092944739241E-02
(PID.TID 0000.0001) %MON ad_dynstat_advvel_sd         =   6.7919804760982E+00
(PID.TID 0000.0001) %MON ad_dynstat_advvel_del2       =   6.4472223893976E-02
(PID.TID 0000.0001) %MON ad_dynstat_adwvel_max        =   2.0923505673242E+02
(PID.TID 0000.0001) %MON ad_dynstat_adwvel_min        =  -1.2465662054899E+02
(PID.TID 0000.0001) %MON ad_dynstat_adwvel_mean       =  -5.3290257511127E-03
(PID.TID 0000.0001) %MON ad_dynstat_adwvel_sd         =   2.3253261366663E+00
(PID.TID 0000.0001) %MON ad_dynstat_adwvel_del2       =   3.0397300441595E-02
(PID.TID 0000.0001) %MON ad_dynstat_adtheta_max       =   1.6169012498635E+02
(PID.TID 0000.0001) %MON ad_dynstat_adtheta_min       =  -1.2837558261892E+02
(PID.TID 0000.0001) %MON ad_dynstat_adtheta_mean      =   6.1739232631300E-01
(PID.TID 0000.0001) %MON ad_dynstat_adtheta_sd        =   1.9733249646450E+00
(PID.TID 0000.0001) %MON ad_dynstat_adtheta_del2      =   1.8468299706881E-02
(PID.TID 0000.0001) %MON ad_dynstat_adsalt_max        =   5.1553014220227E+02
(PID.TID 0000.0001) %MON ad_dynstat_adsalt_min        =  -5.0447042900673E+02
(PID.TID 0000.0001) %MON ad_dynstat_adsalt_mean       =  -3.5287505532431E-02
(PID.TID 0000.0001) %MON ad_dynstat_adsalt_sd         =   2.7926742027848E+00
(PID.TID 0000.0001) %MON ad_dynstat_adsalt_del2       =   7.1121268662522E-02
(PID.TID 0000.0001) %MON ad_forcing_adqnet_max        =   0.0000000000000E+00
(PID.TID 0000.0001) %MON ad_forcing_adqnet_min        =   0.0000000000000E+00
(PID.TID 0000.0001) %MON ad_forcing_adqnet_mean       =   0.0000000000000E+00
(PID.TID 0000.0001) %MON ad_forcing_adqnet_sd         =   0.0000000000000E+00
(PID.TID 0000.0001) %MON ad_forcing_adqnet_del2       =   0.0000000000000E+00
(PID.TID 0000.0001) %MON ad_forcing_adqsw_max         =   7.1917350772446E-03
(PID.TID 0000.0001) %MON ad_forcing_adqsw_min         =  -2.2687891571333E-02
(PID.TID 0000.0001) %MON ad_forcing_adqsw_mean        =   1.3244595069645E-04
(PID.TID 0000.0001) %MON ad_forcing_adqsw_sd          =   4.8461416271328E-04
(PID.TID 0000.0001) %MON ad_forcing_adqsw_del2        =   1.9681207870209E-05
(PID.TID 0000.0001) %MON ad_forcing_adempmr_max       =   0.0000000000000E+00
(PID.TID 0000.0001) %MON ad_forcing_adempmr_min       =   0.0000000000000E+00
(PID.TID 0000.0001) %MON ad_forcing_adempmr_mean      =   0.0000000000000E+00
(PID.TID 0000.0001) %MON ad_forcing_adempmr_sd        =   0.0000000000000E+00
(PID.TID 0000.0001) %MON ad_forcing_adempmr_del2      =   0.0000000000000E+00
(PID.TID 0000.0001) %MON ad_forcing_adfu_max          =   0.0000000000000E+00
(PID.TID 0000.0001) %MON ad_forcing_adfu_min          =   0.0000000000000E+00
(PID.TID 0000.0001) %MON ad_forcing_adfu_mean         =   0.0000000000000E+00
(PID.TID 0000.0001) %MON ad_forcing_adfu_sd           =   0.0000000000000E+00
(PID.TID 0000.0001) %MON ad_forcing_adfu_del2         =   0.0000000000000E+00
(PID.TID 0000.0001) %MON ad_forcing_adfv_max          =   0.0000000000000E+00
(PID.TID 0000.0001) %MON ad_forcing_adfv_min          =   0.0000000000000E+00
(PID.TID 0000.0001) %MON ad_forcing_adfv_mean         =   0.0000000000000E+00
(PID.TID 0000.0001) %MON ad_forcing_adfv_sd           =   0.0000000000000E+00
(PID.TID 0000.0001) %MON ad_forcing_adfv_del2         =   0.0000000000000E+00
(PID.TID 0000.0001) %MON ad_advcfl_aduvel_max         =   2.0249272759614E+02
(PID.TID 0000.0001) %MON ad_advcfl_advvel_max         =   1.0595338102129E+02
(PID.TID 0000.0001) %MON ad_advcfl_adwvel_max         =   3.0129848169468E+05
(PID.TID 0000.0001) %MON ad_advcfl_adW_hf_max         =   3.6176781460325E+05
(PID.TID 0000.0001) // =======================================================
(PID.TID 0000.0001) // End MONITOR dynamic field statistics
(PID.TID 0000.0001) // =======================================================
 cg2d: Sum(rhs),rhsMax =  -2.43945488809238E-18  8.92514133565762E-04
 cg2d: Sum(rhs),rhsMax =  -9.86233317235019E-12  4.22913459911249E+00
 cg2d: Sum(rhs),rhsMax =  -9.83391146291979E-12  4.22484531074521E+00
 cg2d: Sum(rhs),rhsMax =  -9.83391146291979E-12  4.22484531074521E+00
(PID.TID 0000.0001) // =======================================================
(PID.TID 0000.0001) // Begin MONITOR dynamic field statistics
(PID.TID 0000.0001) // =======================================================
(PID.TID 0000.0001) %MON ad_time_tsnumber             =                 72012
(PID.TID 0000.0001) %MON ad_time_secondsf             =   6.2218368000000E+09
(PID.TID 0000.0001) %MON ad_dynstat_adeta_max         =   0.0000000000000E+00
(PID.TID 0000.0001) %MON ad_dynstat_adeta_min         =   0.0000000000000E+00
(PID.TID 0000.0001) %MON ad_dynstat_adeta_mean        =   0.0000000000000E+00
(PID.TID 0000.0001) %MON ad_dynstat_adeta_sd          =   0.0000000000000E+00
(PID.TID 0000.0001) %MON ad_dynstat_adeta_del2        =   0.0000000000000E+00
(PID.TID 0000.0001) %MON ad_dynstat_aduvel_max        =   5.8642723428634E+02
(PID.TID 0000.0001) %MON ad_dynstat_aduvel_min        =  -3.5312454266728E+02
(PID.TID 0000.0001) %MON ad_dynstat_aduvel_mean       =  -2.1795459718468E-01
(PID.TID 0000.0001) %MON ad_dynstat_aduvel_sd         =   7.7852422236212E+00
(PID.TID 0000.0001) %MON ad_dynstat_aduvel_del2       =   8.4710133335960E-02
(PID.TID 0000.0001) %MON ad_dynstat_advvel_max        =   3.5220088697816E+02
(PID.TID 0000.0001) %MON ad_dynstat_advvel_min        =  -2.9264899138148E+02
(PID.TID 0000.0001) %MON ad_dynstat_advvel_mean       =   4.2339619705185E-02
(PID.TID 0000.0001) %MON ad_dynstat_advvel_sd         =   7.5377995655477E+00
(PID.TID 0000.0001) %MON ad_dynstat_advvel_del2       =   7.2042584807295E-02
(PID.TID 0000.0001) %MON ad_dynstat_adwvel_max        =   2.3111745698712E+02
(PID.TID 0000.0001) %MON ad_dynstat_adwvel_min        =  -1.3835864594601E+02
(PID.TID 0000.0001) %MON ad_dynstat_adwvel_mean       =  -6.1672055850822E-03
(PID.TID 0000.0001) %MON ad_dynstat_adwvel_sd         =   2.5836985923619E+00
(PID.TID 0000.0001) %MON ad_dynstat_adwvel_del2       =   3.3713199461209E-02
(PID.TID 0000.0001) %MON ad_dynstat_adtheta_max       =   1.5915274358320E+02
(PID.TID 0000.0001) %MON ad_dynstat_adtheta_min       =  -1.2432533474885E+02
(PID.TID 0000.0001) %MON ad_dynstat_adtheta_mean      =   6.1844059786793E-01
(PID.TID 0000.0001) %MON ad_dynstat_adtheta_sd        =   1.9781095234434E+00
(PID.TID 0000.0001) %MON ad_dynstat_adtheta_del2      =   1.8179849043954E-02
(PID.TID 0000.0001) %MON ad_dynstat_adsalt_max        =   5.0716594520313E+02
(PID.TID 0000.0001) %MON ad_dynstat_adsalt_min        =  -4.9606298071908E+02
(PID.TID 0000.0001) %MON ad_dynstat_adsalt_mean       =  -4.2400995068338E-02
(PID.TID 0000.0001) %MON ad_dynstat_adsalt_sd         =   3.0339770514227E+00
(PID.TID 0000.0001) %MON ad_dynstat_adsalt_del2       =   7.0921786939241E-02
(PID.TID 0000.0001) %MON ad_forcing_adqnet_max        =   0.0000000000000E+00
(PID.TID 0000.0001) %MON ad_forcing_adqnet_min        =   0.0000000000000E+00
(PID.TID 0000.0001) %MON ad_forcing_adqnet_mean       =   0.0000000000000E+00
(PID.TID 0000.0001) %MON ad_forcing_adqnet_sd         =   0.0000000000000E+00
(PID.TID 0000.0001) %MON ad_forcing_adqnet_del2       =   0.0000000000000E+00
(PID.TID 0000.0001) %MON ad_forcing_adqsw_max         =   8.6534967456188E-03
(PID.TID 0000.0001) %MON ad_forcing_adqsw_min         =  -2.5813238749950E-02
(PID.TID 0000.0001) %MON ad_forcing_adqsw_mean        =   1.5114311608545E-04
(PID.TID 0000.0001) %MON ad_forcing_adqsw_sd          =   5.5464332202152E-04
(PID.TID 0000.0001) %MON ad_forcing_adqsw_del2        =   2.2664814739557E-05
(PID.TID 0000.0001) %MON ad_forcing_adempmr_max       =   0.0000000000000E+00
(PID.TID 0000.0001) %MON ad_forcing_adempmr_min       =   0.0000000000000E+00
(PID.TID 0000.0001) %MON ad_forcing_adempmr_mean      =   0.0000000000000E+00
(PID.TID 0000.0001) %MON ad_forcing_adempmr_sd        =   0.0000000000000E+00
(PID.TID 0000.0001) %MON ad_forcing_adempmr_del2      =   0.0000000000000E+00
(PID.TID 0000.0001) %MON ad_forcing_adfu_max          =   0.0000000000000E+00
(PID.TID 0000.0001) %MON ad_forcing_adfu_min          =   0.0000000000000E+00
(PID.TID 0000.0001) %MON ad_forcing_adfu_mean         =   0.0000000000000E+00
(PID.TID 0000.0001) %MON ad_forcing_adfu_sd           =   0.0000000000000E+00
(PID.TID 0000.0001) %MON ad_forcing_adfu_del2         =   0.0000000000000E+00
(PID.TID 0000.0001) %MON ad_forcing_adfv_max          =   0.0000000000000E+00
(PID.TID 0000.0001) %MON ad_forcing_adfv_min          =   0.0000000000000E+00
(PID.TID 0000.0001) %MON ad_forcing_adfv_mean         =   0.0000000000000E+00
(PID.TID 0000.0001) %MON ad_forcing_adfv_sd           =   0.0000000000000E+00
(PID.TID 0000.0001) %MON ad_forcing_adfv_del2         =   0.0000000000000E+00
(PID.TID 0000.0001) %MON ad_advcfl_aduvel_max         =   2.5191042636000E+02
(PID.TID 0000.0001) %MON ad_advcfl_advvel_max         =   1.2756157244151E+02
(PID.TID 0000.0001) %MON ad_advcfl_adwvel_max         =   3.3280913806145E+05
(PID.TID 0000.0001) %MON ad_advcfl_adW_hf_max         =   3.9960018699570E+05
(PID.TID 0000.0001) // =======================================================
(PID.TID 0000.0001) // End MONITOR dynamic field statistics
(PID.TID 0000.0001) // =======================================================
 cg2d: Sum(rhs),rhsMax =  -5.42101086242752E-19  3.75828771238670E-03
 cg2d: Sum(rhs),rhsMax =  -9.86233317235019E-12  4.22913459911249E+00
(PID.TID 0000.0001) // =======================================================
(PID.TID 0000.0001) // Begin MONITOR dynamic field statistics
(PID.TID 0000.0001) // =======================================================
(PID.TID 0000.0001) %MON ad_time_tsnumber             =                 72011
(PID.TID 0000.0001) %MON ad_time_secondsf             =   6.2217504000000E+09
(PID.TID 0000.0001) %MON ad_dynstat_adeta_max         =   0.0000000000000E+00
(PID.TID 0000.0001) %MON ad_dynstat_adeta_min         =   0.0000000000000E+00
(PID.TID 0000.0001) %MON ad_dynstat_adeta_mean        =   0.0000000000000E+00
(PID.TID 0000.0001) %MON ad_dynstat_adeta_sd          =   0.0000000000000E+00
(PID.TID 0000.0001) %MON ad_dynstat_adeta_del2        =   0.0000000000000E+00
(PID.TID 0000.0001) %MON ad_dynstat_aduvel_max        =   7.0845344240796E+02
(PID.TID 0000.0001) %MON ad_dynstat_aduvel_min        =  -4.2417964241901E+02
(PID.TID 0000.0001) %MON ad_dynstat_aduvel_mean       =  -9.7345632011798E-02
(PID.TID 0000.0001) %MON ad_dynstat_aduvel_sd         =   8.4790666216215E+00
(PID.TID 0000.0001) %MON ad_dynstat_aduvel_del2       =   9.4081657700569E-02
(PID.TID 0000.0001) %MON ad_dynstat_advvel_max        =   3.9208264041327E+02
(PID.TID 0000.0001) %MON ad_dynstat_advvel_min        =  -3.4755734971583E+02
(PID.TID 0000.0001) %MON ad_dynstat_advvel_mean       =   1.4641837631332E-01
(PID.TID 0000.0001) %MON ad_dynstat_advvel_sd         =   8.2335520590077E+00
(PID.TID 0000.0001) %MON ad_dynstat_advvel_del2       =   7.9833786539436E-02
(PID.TID 0000.0001) %MON ad_dynstat_adwvel_max        =   2.5112025336368E+02
(PID.TID 0000.0001) %MON ad_dynstat_adwvel_min        =  -1.5113449716199E+02
(PID.TID 0000.0001) %MON ad_dynstat_adwvel_mean       =  -6.9086619696593E-03
(PID.TID 0000.0001) %MON ad_dynstat_adwvel_sd         =   2.8269967041562E+00
(PID.TID 0000.0001) %MON ad_dynstat_adwvel_del2       =   3.6786703293566E-02
(PID.TID 0000.0001) %MON ad_dynstat_adtheta_max       =   1.5661154089903E+02
(PID.TID 0000.0001) %MON ad_dynstat_adtheta_min       =  -1.2041726907570E+02
(PID.TID 0000.0001) %MON ad_dynstat_adtheta_mean      =   6.1951475410204E-01
(PID.TID 0000.0001) %MON ad_dynstat_adtheta_sd        =   1.9851822755683E+00
(PID.TID 0000.0001) %MON ad_dynstat_adtheta_del2      =   1.7849474176739E-02
(PID.TID 0000.0001) %MON ad_dynstat_adsalt_max        =   4.9891479735345E+02
(PID.TID 0000.0001) %MON ad_dynstat_adsalt_min        =  -4.8768246032893E+02
(PID.TID 0000.0001) %MON ad_dynstat_adsalt_mean       =  -4.9664488977339E-02
(PID.TID 0000.0001) %MON ad_dynstat_adsalt_sd         =   3.2971915196652E+00
(PID.TID 0000.0001) %MON ad_dynstat_adsalt_del2       =   7.0226929971650E-02
(PID.TID 0000.0001) %MON ad_forcing_adqnet_max        =   0.0000000000000E+00
(PID.TID 0000.0001) %MON ad_forcing_adqnet_min        =   0.0000000000000E+00
(PID.TID 0000.0001) %MON ad_forcing_adqnet_mean       =   0.0000000000000E+00
(PID.TID 0000.0001) %MON ad_forcing_adqnet_sd         =   0.0000000000000E+00
(PID.TID 0000.0001) %MON ad_forcing_adqnet_del2       =   0.0000000000000E+00
(PID.TID 0000.0001) %MON ad_forcing_adqsw_max         =   1.0104315491121E-02
(PID.TID 0000.0001) %MON ad_forcing_adqsw_min         =  -2.8866194296649E-02
(PID.TID 0000.0001) %MON ad_forcing_adqsw_mean        =   1.6967821889267E-04
(PID.TID 0000.0001) %MON ad_forcing_adqsw_sd          =   6.2372885142474E-04
(PID.TID 0000.0001) %MON ad_forcing_adqsw_del2        =   2.5589521967423E-05
(PID.TID 0000.0001) %MON ad_forcing_adempmr_max       =   0.0000000000000E+00
(PID.TID 0000.0001) %MON ad_forcing_adempmr_min       =   0.0000000000000E+00
(PID.TID 0000.0001) %MON ad_forcing_adempmr_mean      =   0.0000000000000E+00
(PID.TID 0000.0001) %MON ad_forcing_adempmr_sd        =   0.0000000000000E+00
(PID.TID 0000.0001) %MON ad_forcing_adempmr_del2      =   0.0000000000000E+00
(PID.TID 0000.0001) %MON ad_forcing_adfu_max          =   0.0000000000000E+00
(PID.TID 0000.0001) %MON ad_forcing_adfu_min          =   0.0000000000000E+00
(PID.TID 0000.0001) %MON ad_forcing_adfu_mean         =   0.0000000000000E+00
(PID.TID 0000.0001) %MON ad_forcing_adfu_sd           =   0.0000000000000E+00
(PID.TID 0000.0001) %MON ad_forcing_adfu_del2         =   0.0000000000000E+00
(PID.TID 0000.0001) %MON ad_forcing_adfv_max          =   0.0000000000000E+00
(PID.TID 0000.0001) %MON ad_forcing_adfv_min          =   0.0000000000000E+00
(PID.TID 0000.0001) %MON ad_forcing_adfv_mean         =   0.0000000000000E+00
(PID.TID 0000.0001) %MON ad_forcing_adfv_sd           =   0.0000000000000E+00
(PID.TID 0000.0001) %MON ad_forcing_adfv_del2         =   0.0000000000000E+00
(PID.TID 0000.0001) %MON ad_advcfl_aduvel_max         =   3.0432899138865E+02
(PID.TID 0000.0001) %MON ad_advcfl_advvel_max         =   1.5149535227874E+02
(PID.TID 0000.0001) %MON ad_advcfl_adwvel_max         =   3.6161316484370E+05
(PID.TID 0000.0001) %MON ad_advcfl_adW_hf_max         =   4.3418378697360E+05
(PID.TID 0000.0001) // =======================================================
(PID.TID 0000.0001) // End MONITOR dynamic field statistics
(PID.TID 0000.0001) // =======================================================
 cg2d: Sum(rhs),rhsMax =  -1.95156391047391E-18  1.78974777084166E-03
 cg2d: Sum(rhs),rhsMax =  -9.52127265918534E-12  4.23890091275048E+00
 cg2d: Sum(rhs),rhsMax =  -9.37916411203332E-12  4.23383241322175E+00
 cg2d: Sum(rhs),rhsMax =  -9.37916411203332E-12  4.23383241322175E+00
(PID.TID 0000.0001) // =======================================================
(PID.TID 0000.0001) // Begin MONITOR dynamic field statistics
(PID.TID 0000.0001) // =======================================================
(PID.TID 0000.0001) %MON ad_time_tsnumber             =                 72010
(PID.TID 0000.0001) %MON ad_time_secondsf             =   6.2216640000000E+09
(PID.TID 0000.0001) %MON ad_dynstat_adeta_max         =   0.0000000000000E+00
(PID.TID 0000.0001) %MON ad_dynstat_adeta_min         =   0.0000000000000E+00
(PID.TID 0000.0001) %MON ad_dynstat_adeta_mean        =   0.0000000000000E+00
(PID.TID 0000.0001) %MON ad_dynstat_adeta_sd          =   0.0000000000000E+00
(PID.TID 0000.0001) %MON ad_dynstat_adeta_del2        =   0.0000000000000E+00
(PID.TID 0000.0001) %MON ad_dynstat_aduvel_max        =   8.1284494037150E+02
(PID.TID 0000.0001) %MON ad_dynstat_aduvel_min        =  -4.7897204696649E+02
(PID.TID 0000.0001) %MON ad_dynstat_aduvel_mean       =   4.1593010100887E-02
(PID.TID 0000.0001) %MON ad_dynstat_aduvel_sd         =   9.1005958855142E+00
(PID.TID 0000.0001) %MON ad_dynstat_aduvel_del2       =   1.0243551020153E-01
(PID.TID 0000.0001) %MON ad_dynstat_advvel_max        =   4.3001548367425E+02
(PID.TID 0000.0001) %MON ad_dynstat_advvel_min        =  -3.8614799972456E+02
(PID.TID 0000.0001) %MON ad_dynstat_advvel_mean       =   2.2266395153033E-01
(PID.TID 0000.0001) %MON ad_dynstat_advvel_sd         =   8.8719091011366E+00
(PID.TID 0000.0001) %MON ad_dynstat_advvel_del2       =   8.6631389702730E-02
(PID.TID 0000.0001) %MON ad_dynstat_adwvel_max        =   2.6916452635346E+02
(PID.TID 0000.0001) %MON ad_dynstat_adwvel_min        =  -1.6295484697042E+02
(PID.TID 0000.0001) %MON ad_dynstat_adwvel_mean       =  -7.6225554804939E-03
(PID.TID 0000.0001) %MON ad_dynstat_adwvel_sd         =   3.0549554897198E+00
(PID.TID 0000.0001) %MON ad_dynstat_adwvel_del2       =   3.9616545268386E-02
(PID.TID 0000.0001) %MON ad_dynstat_adtheta_max       =   1.5404198695796E+02
(PID.TID 0000.0001) %MON ad_dynstat_adtheta_min       =  -1.1652348647166E+02
(PID.TID 0000.0001) %MON ad_dynstat_adtheta_mean      =   6.2058494953058E-01
(PID.TID 0000.0001) %MON ad_dynstat_adtheta_sd        =   1.9948801838555E+00
(PID.TID 0000.0001) %MON ad_dynstat_adtheta_del2      =   1.7483040350941E-02
(PID.TID 0000.0001) %MON ad_dynstat_adsalt_max        =   4.9033197874381E+02
(PID.TID 0000.0001) %MON ad_dynstat_adsalt_min        =  -4.7924350219292E+02
(PID.TID 0000.0001) %MON ad_dynstat_adsalt_mean       =  -5.6976783284510E-02
(PID.TID 0000.0001) %MON ad_dynstat_adsalt_sd         =   3.5821576677801E+00
(PID.TID 0000.0001) %MON ad_dynstat_adsalt_del2       =   6.9290925998314E-02
(PID.TID 0000.0001) %MON ad_forcing_adqnet_max        =   0.0000000000000E+00
(PID.TID 0000.0001) %MON ad_forcing_adqnet_min        =   0.0000000000000E+00
(PID.TID 0000.0001) %MON ad_forcing_adqnet_mean       =   0.0000000000000E+00
(PID.TID 0000.0001) %MON ad_forcing_adqnet_sd         =   0.0000000000000E+00
(PID.TID 0000.0001) %MON ad_forcing_adqnet_del2       =   0.0000000000000E+00
(PID.TID 0000.0001) %MON ad_forcing_adqsw_max         =   1.1535907578430E-02
(PID.TID 0000.0001) %MON ad_forcing_adqsw_min         =  -3.1847307619154E-02
(PID.TID 0000.0001) %MON ad_forcing_adqsw_mean        =   1.8806505855320E-04
(PID.TID 0000.0001) %MON ad_forcing_adqsw_sd          =   6.9166371813219E-04
(PID.TID 0000.0001) %MON ad_forcing_adqsw_del2        =   2.8447305223465E-05
(PID.TID 0000.0001) %MON ad_forcing_adempmr_max       =   0.0000000000000E+00
(PID.TID 0000.0001) %MON ad_forcing_adempmr_min       =   0.0000000000000E+00
(PID.TID 0000.0001) %MON ad_forcing_adempmr_mean      =   0.0000000000000E+00
(PID.TID 0000.0001) %MON ad_forcing_adempmr_sd        =   0.0000000000000E+00
(PID.TID 0000.0001) %MON ad_forcing_adempmr_del2      =   0.0000000000000E+00
(PID.TID 0000.0001) %MON ad_forcing_adfu_max          =   0.0000000000000E+00
(PID.TID 0000.0001) %MON ad_forcing_adfu_min          =   0.0000000000000E+00
(PID.TID 0000.0001) %MON ad_forcing_adfu_mean         =   0.0000000000000E+00
(PID.TID 0000.0001) %MON ad_forcing_adfu_sd           =   0.0000000000000E+00
(PID.TID 0000.0001) %MON ad_forcing_adfu_del2         =   0.0000000000000E+00
(PID.TID 0000.0001) %MON ad_forcing_adfv_max          =   0.0000000000000E+00
(PID.TID 0000.0001) %MON ad_forcing_adfv_min          =   0.0000000000000E+00
(PID.TID 0000.0001) %MON ad_forcing_adfv_mean         =   0.0000000000000E+00
(PID.TID 0000.0001) %MON ad_forcing_adfv_sd           =   0.0000000000000E+00
(PID.TID 0000.0001) %MON ad_forcing_adfv_del2         =   0.0000000000000E+00
(PID.TID 0000.0001) %MON ad_advcfl_aduvel_max         =   3.4917224767493E+02
(PID.TID 0000.0001) %MON ad_advcfl_advvel_max         =   1.6831647294421E+02
(PID.TID 0000.0001) %MON ad_advcfl_adwvel_max         =   3.8759691794898E+05
(PID.TID 0000.0001) %MON ad_advcfl_adW_hf_max         =   4.6538284497346E+05
(PID.TID 0000.0001) // =======================================================
(PID.TID 0000.0001) // End MONITOR dynamic field statistics
(PID.TID 0000.0001) // =======================================================
 cg2d: Sum(rhs),rhsMax =  -1.40946282423116E-18  2.20557220103612E-03
 cg2d: Sum(rhs),rhsMax =  -9.52127265918534E-12  4.23890091275048E+00
(PID.TID 0000.0001) // =======================================================
(PID.TID 0000.0001) // Begin MONITOR dynamic field statistics
(PID.TID 0000.0001) // =======================================================
(PID.TID 0000.0001) %MON ad_time_tsnumber             =                 72009
(PID.TID 0000.0001) %MON ad_time_secondsf             =   6.2215776000000E+09
(PID.TID 0000.0001) %MON ad_dynstat_adeta_max         =   0.0000000000000E+00
(PID.TID 0000.0001) %MON ad_dynstat_adeta_min         =   0.0000000000000E+00
(PID.TID 0000.0001) %MON ad_dynstat_adeta_mean        =   0.0000000000000E+00
(PID.TID 0000.0001) %MON ad_dynstat_adeta_sd          =   0.0000000000000E+00
(PID.TID 0000.0001) %MON ad_dynstat_adeta_del2        =   0.0000000000000E+00
(PID.TID 0000.0001) %MON ad_dynstat_aduvel_max        =   8.9527410584755E+02
(PID.TID 0000.0001) %MON ad_dynstat_aduvel_min        =  -5.1433840101214E+02
(PID.TID 0000.0001) %MON ad_dynstat_aduvel_mean       =   1.7844659282304E-01
(PID.TID 0000.0001) %MON ad_dynstat_aduvel_sd         =   9.6564459599066E+00
(PID.TID 0000.0001) %MON ad_dynstat_aduvel_del2       =   1.0955450670314E-01
(PID.TID 0000.0001) %MON ad_dynstat_advvel_max        =   4.6576113560377E+02
(PID.TID 0000.0001) %MON ad_dynstat_advvel_min        =  -4.0605281943562E+02
(PID.TID 0000.0001) %MON ad_dynstat_advvel_mean       =   2.8180169446358E-01
(PID.TID 0000.0001) %MON ad_dynstat_advvel_sd         =   9.4545029857671E+00
(PID.TID 0000.0001) %MON ad_dynstat_advvel_del2       =   9.2200047884706E-02
(PID.TID 0000.0001) %MON ad_dynstat_adwvel_max        =   2.8512922662064E+02
(PID.TID 0000.0001) %MON ad_dynstat_adwvel_min        =  -1.7376893909072E+02
(PID.TID 0000.0001) %MON ad_dynstat_adwvel_mean       =  -8.2352873166336E-03
(PID.TID 0000.0001) %MON ad_dynstat_adwvel_sd         =   3.2655456358996E+00
(PID.TID 0000.0001) %MON ad_dynstat_adwvel_del2       =   4.2197064732778E-02
(PID.TID 0000.0001) %MON ad_dynstat_adtheta_max       =   1.5144595782426E+02
(PID.TID 0000.0001) %MON ad_dynstat_adtheta_min       =  -1.1263382651030E+02
(PID.TID 0000.0001) %MON ad_dynstat_adtheta_mean      =   6.2162803858045E-01
(PID.TID 0000.0001) %MON ad_dynstat_adtheta_sd        =   2.0067694719842E+00
(PID.TID 0000.0001) %MON ad_dynstat_adtheta_del2      =   1.7109435336909E-02
(PID.TID 0000.0001) %MON ad_dynstat_adsalt_max        =   4.8138615114645E+02
(PID.TID 0000.0001) %MON ad_dynstat_adsalt_min        =  -4.7074663048304E+02
(PID.TID 0000.0001) %MON ad_dynstat_adsalt_mean       =  -6.4132935891647E-02
(PID.TID 0000.0001) %MON ad_dynstat_adsalt_sd         =   3.8750080865671E+00
(PID.TID 0000.0001) %MON ad_dynstat_adsalt_del2       =   6.8137998416677E-02
(PID.TID 0000.0001) %MON ad_forcing_adqnet_max        =   0.0000000000000E+00
(PID.TID 0000.0001) %MON ad_forcing_adqnet_min        =   0.0000000000000E+00
(PID.TID 0000.0001) %MON ad_forcing_adqnet_mean       =   0.0000000000000E+00
(PID.TID 0000.0001) %MON ad_forcing_adqnet_sd         =   0.0000000000000E+00
(PID.TID 0000.0001) %MON ad_forcing_adqnet_del2       =   0.0000000000000E+00
(PID.TID 0000.0001) %MON ad_forcing_adqsw_max         =   1.2941422711422E-02
(PID.TID 0000.0001) %MON ad_forcing_adqsw_min         =  -3.4755755111569E-02
(PID.TID 0000.0001) %MON ad_forcing_adqsw_mean        =   2.0629394333314E-04
(PID.TID 0000.0001) %MON ad_forcing_adqsw_sd          =   7.5830183744753E-04
(PID.TID 0000.0001) %MON ad_forcing_adqsw_del2        =   3.1223914016172E-05
(PID.TID 0000.0001) %MON ad_forcing_adempmr_max       =   0.0000000000000E+00
(PID.TID 0000.0001) %MON ad_forcing_adempmr_min       =   0.0000000000000E+00
(PID.TID 0000.0001) %MON ad_forcing_adempmr_mean      =   0.0000000000000E+00
(PID.TID 0000.0001) %MON ad_forcing_adempmr_sd        =   0.0000000000000E+00
(PID.TID 0000.0001) %MON ad_forcing_adempmr_del2      =   0.0000000000000E+00
(PID.TID 0000.0001) %MON ad_forcing_adfu_max          =   0.0000000000000E+00
(PID.TID 0000.0001) %MON ad_forcing_adfu_min          =   0.0000000000000E+00
(PID.TID 0000.0001) %MON ad_forcing_adfu_mean         =   0.0000000000000E+00
(PID.TID 0000.0001) %MON ad_forcing_adfu_sd           =   0.0000000000000E+00
(PID.TID 0000.0001) %MON ad_forcing_adfu_del2         =   0.0000000000000E+00
(PID.TID 0000.0001) %MON ad_forcing_adfv_max          =   0.0000000000000E+00
(PID.TID 0000.0001) %MON ad_forcing_adfv_min          =   0.0000000000000E+00
(PID.TID 0000.0001) %MON ad_forcing_adfv_mean         =   0.0000000000000E+00
(PID.TID 0000.0001) %MON ad_forcing_adfv_sd           =   0.0000000000000E+00
(PID.TID 0000.0001) %MON ad_forcing_adfv_del2         =   0.0000000000000E+00
(PID.TID 0000.0001) %MON ad_advcfl_aduvel_max         =   3.8458118676494E+02
(PID.TID 0000.0001) %MON ad_advcfl_advvel_max         =   1.7699270343289E+02
(PID.TID 0000.0001) %MON ad_advcfl_adwvel_max         =   4.1058608633372E+05
(PID.TID 0000.0001) %MON ad_advcfl_adW_hf_max         =   4.9298855428438E+05
(PID.TID 0000.0001) // =======================================================
(PID.TID 0000.0001) // End MONITOR dynamic field statistics
(PID.TID 0000.0001) // =======================================================
 cg2d: Sum(rhs),rhsMax =  -5.69206140554890E-19  2.31665613563827E-03
 cg2d: Sum(rhs),rhsMax =  -9.49285094975494E-12  4.24991959387360E+00
 cg2d: Sum(rhs),rhsMax =  -9.66338120633736E-12  4.24428631923664E+00
 cg2d: Sum(rhs),rhsMax =  -9.66338120633736E-12  4.24428631923664E+00
(PID.TID 0000.0001) // =======================================================
(PID.TID 0000.0001) // Begin MONITOR dynamic field statistics
(PID.TID 0000.0001) // =======================================================
(PID.TID 0000.0001) %MON ad_time_tsnumber             =                 72008
(PID.TID 0000.0001) %MON ad_time_secondsf             =   6.2214912000000E+09
(PID.TID 0000.0001) %MON ad_dynstat_adeta_max         =   0.0000000000000E+00
(PID.TID 0000.0001) %MON ad_dynstat_adeta_min         =   0.0000000000000E+00
(PID.TID 0000.0001) %MON ad_dynstat_adeta_mean        =   0.0000000000000E+00
(PID.TID 0000.0001) %MON ad_dynstat_adeta_sd          =   0.0000000000000E+00
(PID.TID 0000.0001) %MON ad_dynstat_adeta_del2        =   0.0000000000000E+00
(PID.TID 0000.0001) %MON ad_dynstat_aduvel_max        =   9.5461455301269E+02
(PID.TID 0000.0001) %MON ad_dynstat_aduvel_min        =  -5.2988918103766E+02
(PID.TID 0000.0001) %MON ad_dynstat_aduvel_mean       =   3.0376170323870E-01
(PID.TID 0000.0001) %MON ad_dynstat_aduvel_sd         =   1.0156590071846E+01
(PID.TID 0000.0001) %MON ad_dynstat_aduvel_del2       =   1.1542710405772E-01
(PID.TID 0000.0001) %MON ad_dynstat_advvel_max        =   4.9912252444054E+02
(PID.TID 0000.0001) %MON ad_dynstat_advvel_min        =  -4.0735706599758E+02
(PID.TID 0000.0001) %MON ad_dynstat_advvel_mean       =   3.3243956672387E-01
(PID.TID 0000.0001) %MON ad_dynstat_advvel_sd         =   9.9867096925048E+00
(PID.TID 0000.0001) %MON ad_dynstat_advvel_del2       =   9.6584052886444E-02
(PID.TID 0000.0001) %MON ad_dynstat_adwvel_max        =   2.9901176442212E+02
(PID.TID 0000.0001) %MON ad_dynstat_adwvel_min        =  -1.8356969449691E+02
(PID.TID 0000.0001) %MON ad_dynstat_adwvel_mean       =  -8.7649127333190E-03
(PID.TID 0000.0001) %MON ad_dynstat_adwvel_sd         =   3.4614668328043E+00
(PID.TID 0000.0001) %MON ad_dynstat_adwvel_del2       =   4.4530689063518E-02
(PID.TID 0000.0001) %MON ad_dynstat_adtheta_max       =   1.4884928465967E+02
(PID.TID 0000.0001) %MON ad_dynstat_adtheta_min       =  -1.0875176980259E+02
(PID.TID 0000.0001) %MON ad_dynstat_adtheta_mean      =   6.2267009968755E-01
(PID.TID 0000.0001) %MON ad_dynstat_adtheta_sd        =   2.0213025147350E+00
(PID.TID 0000.0001) %MON ad_dynstat_adtheta_del2      =   1.6790173357756E-02
(PID.TID 0000.0001) %MON ad_dynstat_adsalt_max        =   4.7209369149770E+02
(PID.TID 0000.0001) %MON ad_dynstat_adsalt_min        =  -4.6227143787367E+02
(PID.TID 0000.0001) %MON ad_dynstat_adsalt_mean       =  -7.1313633776528E-02
(PID.TID 0000.0001) %MON ad_dynstat_adsalt_sd         =   4.1828873523987E+00
(PID.TID 0000.0001) %MON ad_dynstat_adsalt_del2       =   6.7464808753128E-02
(PID.TID 0000.0001) %MON ad_forcing_adqnet_max        =   0.0000000000000E+00
(PID.TID 0000.0001) %MON ad_forcing_adqnet_min        =   0.0000000000000E+00
(PID.TID 0000.0001) %MON ad_forcing_adqnet_mean       =   0.0000000000000E+00
(PID.TID 0000.0001) %MON ad_forcing_adqnet_sd         =   0.0000000000000E+00
(PID.TID 0000.0001) %MON ad_forcing_adqnet_del2       =   0.0000000000000E+00
(PID.TID 0000.0001) %MON ad_forcing_adqsw_max         =   1.4319850967090E-02
(PID.TID 0000.0001) %MON ad_forcing_adqsw_min         =  -3.7590801203946E-02
(PID.TID 0000.0001) %MON ad_forcing_adqsw_mean        =   2.2437682096845E-04
(PID.TID 0000.0001) %MON ad_forcing_adqsw_sd          =   8.2355311684574E-04
(PID.TID 0000.0001) %MON ad_forcing_adqsw_del2        =   3.3914842082218E-05
(PID.TID 0000.0001) %MON ad_forcing_adempmr_max       =   0.0000000000000E+00
(PID.TID 0000.0001) %MON ad_forcing_adempmr_min       =   0.0000000000000E+00
(PID.TID 0000.0001) %MON ad_forcing_adempmr_mean      =   0.0000000000000E+00
(PID.TID 0000.0001) %MON ad_forcing_adempmr_sd        =   0.0000000000000E+00
(PID.TID 0000.0001) %MON ad_forcing_adempmr_del2      =   0.0000000000000E+00
(PID.TID 0000.0001) %MON ad_forcing_adfu_max          =   0.0000000000000E+00
(PID.TID 0000.0001) %MON ad_forcing_adfu_min          =   0.0000000000000E+00
(PID.TID 0000.0001) %MON ad_forcing_adfu_mean         =   0.0000000000000E+00
(PID.TID 0000.0001) %MON ad_forcing_adfu_sd           =   0.0000000000000E+00
(PID.TID 0000.0001) %MON ad_forcing_adfu_del2         =   0.0000000000000E+00
(PID.TID 0000.0001) %MON ad_forcing_adfv_max          =   0.0000000000000E+00
(PID.TID 0000.0001) %MON ad_forcing_adfv_min          =   0.0000000000000E+00
(PID.TID 0000.0001) %MON ad_forcing_adfv_mean         =   0.0000000000000E+00
(PID.TID 0000.0001) %MON ad_forcing_adfv_sd           =   0.0000000000000E+00
(PID.TID 0000.0001) %MON ad_forcing_adfv_del2         =   0.0000000000000E+00
(PID.TID 0000.0001) %MON ad_advcfl_aduvel_max         =   4.1007194925307E+02
(PID.TID 0000.0001) %MON ad_advcfl_advvel_max         =   1.7756120613475E+02
(PID.TID 0000.0001) %MON ad_advcfl_adwvel_max         =   4.3057694076785E+05
(PID.TID 0000.0001) %MON ad_advcfl_adW_hf_max         =   5.1699656875263E+05
(PID.TID 0000.0001) // =======================================================
(PID.TID 0000.0001) // End MONITOR dynamic field statistics
(PID.TID 0000.0001) // =======================================================
 cg2d: Sum(rhs),rhsMax =   1.08420217248550E-19  2.27030300397206E-03
 cg2d: Sum(rhs),rhsMax =  -9.49285094975494E-12  4.24991959387360E+00
(PID.TID 0000.0001) // =======================================================
(PID.TID 0000.0001) // Begin MONITOR dynamic field statistics
(PID.TID 0000.0001) // =======================================================
(PID.TID 0000.0001) %MON ad_time_tsnumber             =                 72007
(PID.TID 0000.0001) %MON ad_time_secondsf             =   6.2214048000000E+09
(PID.TID 0000.0001) %MON ad_dynstat_adeta_max         =   0.0000000000000E+00
(PID.TID 0000.0001) %MON ad_dynstat_adeta_min         =   0.0000000000000E+00
(PID.TID 0000.0001) %MON ad_dynstat_adeta_mean        =   0.0000000000000E+00
(PID.TID 0000.0001) %MON ad_dynstat_adeta_sd          =   0.0000000000000E+00
(PID.TID 0000.0001) %MON ad_dynstat_adeta_del2        =   0.0000000000000E+00
(PID.TID 0000.0001) %MON ad_dynstat_aduvel_max        =   9.9126682189941E+02
(PID.TID 0000.0001) %MON ad_dynstat_aduvel_min        =  -5.2654776394883E+02
(PID.TID 0000.0001) %MON ad_dynstat_aduvel_mean       =   4.0873670786057E-01
(PID.TID 0000.0001) %MON ad_dynstat_aduvel_sd         =   1.0617692936296E+01
(PID.TID 0000.0001) %MON ad_dynstat_aduvel_del2       =   1.2025624396822E-01
(PID.TID 0000.0001) %MON ad_dynstat_advvel_max        =   5.3032368390332E+02
(PID.TID 0000.0001) %MON ad_dynstat_advvel_min        =  -3.9128720643069E+02
(PID.TID 0000.0001) %MON ad_dynstat_advvel_mean       =   3.8277123901359E-01
(PID.TID 0000.0001) %MON ad_dynstat_advvel_sd         =   1.0479805182814E+01
(PID.TID 0000.0001) %MON ad_dynstat_advvel_del2       =   1.0006957015708E-01
(PID.TID 0000.0001) %MON ad_dynstat_adwvel_max        =   3.1074233595683E+02
(PID.TID 0000.0001) %MON ad_dynstat_adwvel_min        =  -1.9233889834636E+02
(PID.TID 0000.0001) %MON ad_dynstat_adwvel_mean       =  -9.1648146981823E-03
(PID.TID 0000.0001) %MON ad_dynstat_adwvel_sd         =   3.6432074012505E+00
(PID.TID 0000.0001) %MON ad_dynstat_adwvel_del2       =   4.6692306359032E-02
(PID.TID 0000.0001) %MON ad_dynstat_adtheta_max       =   1.4627152630966E+02
(PID.TID 0000.0001) %MON ad_dynstat_adtheta_min       =  -1.0487813944503E+02
(PID.TID 0000.0001) %MON ad_dynstat_adtheta_mean      =   6.2367327555830E-01
(PID.TID 0000.0001) %MON ad_dynstat_adtheta_sd        =   2.0374189977942E+00
(PID.TID 0000.0001) %MON ad_dynstat_adtheta_del2      =   1.6522536563464E-02
(PID.TID 0000.0001) %MON ad_dynstat_adsalt_max        =   4.6245806799591E+02
(PID.TID 0000.0001) %MON ad_dynstat_adsalt_min        =  -4.5388314491821E+02
(PID.TID 0000.0001) %MON ad_dynstat_adsalt_mean       =  -7.8341028030567E-02
(PID.TID 0000.0001) %MON ad_dynstat_adsalt_sd         =   4.4876132150289E+00
(PID.TID 0000.0001) %MON ad_dynstat_adsalt_del2       =   6.6992300497327E-02
(PID.TID 0000.0001) %MON ad_forcing_adqnet_max        =   0.0000000000000E+00
(PID.TID 0000.0001) %MON ad_forcing_adqnet_min        =   0.0000000000000E+00
(PID.TID 0000.0001) %MON ad_forcing_adqnet_mean       =   0.0000000000000E+00
(PID.TID 0000.0001) %MON ad_forcing_adqnet_sd         =   0.0000000000000E+00
(PID.TID 0000.0001) %MON ad_forcing_adqnet_del2       =   0.0000000000000E+00
(PID.TID 0000.0001) %MON ad_forcing_adqsw_max         =   1.5667426888904E-02
(PID.TID 0000.0001) %MON ad_forcing_adqsw_min         =  -4.0352326053540E-02
(PID.TID 0000.0001) %MON ad_forcing_adqsw_mean        =   2.4232086747295E-04
(PID.TID 0000.0001) %MON ad_forcing_adqsw_sd          =   8.8737917621430E-04
(PID.TID 0000.0001) %MON ad_forcing_adqsw_del2        =   3.6518405383878E-05
(PID.TID 0000.0001) %MON ad_forcing_adempmr_max       =   0.0000000000000E+00
(PID.TID 0000.0001) %MON ad_forcing_adempmr_min       =   0.0000000000000E+00
(PID.TID 0000.0001) %MON ad_forcing_adempmr_mean      =   0.0000000000000E+00
(PID.TID 0000.0001) %MON ad_forcing_adempmr_sd        =   0.0000000000000E+00
(PID.TID 0000.0001) %MON ad_forcing_adempmr_del2      =   0.0000000000000E+00
(PID.TID 0000.0001) %MON ad_forcing_adfu_max          =   0.0000000000000E+00
(PID.TID 0000.0001) %MON ad_forcing_adfu_min          =   0.0000000000000E+00
(PID.TID 0000.0001) %MON ad_forcing_adfu_mean         =   0.0000000000000E+00
(PID.TID 0000.0001) %MON ad_forcing_adfu_sd           =   0.0000000000000E+00
(PID.TID 0000.0001) %MON ad_forcing_adfu_del2         =   0.0000000000000E+00
(PID.TID 0000.0001) %MON ad_forcing_adfv_max          =   0.0000000000000E+00
(PID.TID 0000.0001) %MON ad_forcing_adfv_min          =   0.0000000000000E+00
(PID.TID 0000.0001) %MON ad_forcing_adfv_mean         =   0.0000000000000E+00
(PID.TID 0000.0001) %MON ad_forcing_adfv_sd           =   0.0000000000000E+00
(PID.TID 0000.0001) %MON ad_forcing_adfv_del2         =   0.0000000000000E+00
(PID.TID 0000.0001) %MON ad_advcfl_aduvel_max         =   4.2581659435563E+02
(PID.TID 0000.0001) %MON ad_advcfl_advvel_max         =   1.7055658074516E+02
(PID.TID 0000.0001) %MON ad_advcfl_adwvel_max         =   4.4746896377784E+05
(PID.TID 0000.0001) %MON ad_advcfl_adW_hf_max         =   5.3728593392668E+05
(PID.TID 0000.0001) // =======================================================
(PID.TID 0000.0001) // End MONITOR dynamic field statistics
(PID.TID 0000.0001) // =======================================================
 cg2d: Sum(rhs),rhsMax =  -2.16840434497101E-19  3.04572054283560E-03
 cg2d: Sum(rhs),rhsMax =  -9.63495949690696E-12  4.26162662718429E+00
 cg2d: Sum(rhs),rhsMax =  -9.77706804405898E-12  4.25572412780547E+00
 cg2d: Sum(rhs),rhsMax =  -9.77706804405898E-12  4.25572412780547E+00
(PID.TID 0000.0001) // =======================================================
(PID.TID 0000.0001) // Begin MONITOR dynamic field statistics
(PID.TID 0000.0001) // =======================================================
(PID.TID 0000.0001) %MON ad_time_tsnumber             =                 72006
(PID.TID 0000.0001) %MON ad_time_secondsf             =   6.2213184000000E+09
(PID.TID 0000.0001) %MON ad_dynstat_adeta_max         =   0.0000000000000E+00
(PID.TID 0000.0001) %MON ad_dynstat_adeta_min         =   0.0000000000000E+00
(PID.TID 0000.0001) %MON ad_dynstat_adeta_mean        =   0.0000000000000E+00
(PID.TID 0000.0001) %MON ad_dynstat_adeta_sd          =   0.0000000000000E+00
(PID.TID 0000.0001) %MON ad_dynstat_adeta_del2        =   0.0000000000000E+00
(PID.TID 0000.0001) %MON ad_dynstat_aduvel_max        =   1.0068895855168E+03
(PID.TID 0000.0001) %MON ad_dynstat_aduvel_min        =  -5.4631698565435E+02
(PID.TID 0000.0001) %MON ad_dynstat_aduvel_mean       =   5.0023968752796E-01
(PID.TID 0000.0001) %MON ad_dynstat_aduvel_sd         =   1.1051117937363E+01
(PID.TID 0000.0001) %MON ad_dynstat_aduvel_del2       =   1.2434965285783E-01
(PID.TID 0000.0001) %MON ad_dynstat_advvel_max        =   5.5900306860085E+02
(PID.TID 0000.0001) %MON ad_dynstat_advvel_min        =  -3.5992429052290E+02
(PID.TID 0000.0001) %MON ad_dynstat_advvel_mean       =   4.4112077548390E-01
(PID.TID 0000.0001) %MON ad_dynstat_advvel_sd         =   1.0940848966774E+01
(PID.TID 0000.0001) %MON ad_dynstat_advvel_del2       =   1.0307325547491E-01
(PID.TID 0000.0001) %MON ad_dynstat_adwvel_max        =   3.2032459739438E+02
(PID.TID 0000.0001) %MON ad_dynstat_adwvel_min        =  -2.0005753030546E+02
(PID.TID 0000.0001) %MON ad_dynstat_adwvel_mean       =  -9.4774999274424E-03
(PID.TID 0000.0001) %MON ad_dynstat_adwvel_sd         =   3.8107347960283E+00
(PID.TID 0000.0001) %MON ad_dynstat_adwvel_del2       =   4.8646015689798E-02
(PID.TID 0000.0001) %MON ad_dynstat_adtheta_max       =   1.4369423017994E+02
(PID.TID 0000.0001) %MON ad_dynstat_adtheta_min       =  -1.0104657534749E+02
(PID.TID 0000.0001) %MON ad_dynstat_adtheta_mean      =   6.2463770089554E-01
(PID.TID 0000.0001) %MON ad_dynstat_adtheta_sd        =   2.0545632643017E+00
(PID.TID 0000.0001) %MON ad_dynstat_adtheta_del2      =   1.6255025953036E-02
(PID.TID 0000.0001) %MON ad_dynstat_adsalt_max        =   4.5260196901293E+02
(PID.TID 0000.0001) %MON ad_dynstat_adsalt_min        =  -4.4552507521140E+02
(PID.TID 0000.0001) %MON ad_dynstat_adsalt_mean       =  -8.5157301346283E-02
(PID.TID 0000.0001) %MON ad_dynstat_adsalt_sd         =   4.7823493667757E+00
(PID.TID 0000.0001) %MON ad_dynstat_adsalt_del2       =   6.6522163661685E-02
(PID.TID 0000.0001) %MON ad_forcing_adqnet_max        =   0.0000000000000E+00
(PID.TID 0000.0001) %MON ad_forcing_adqnet_min        =   0.0000000000000E+00
(PID.TID 0000.0001) %MON ad_forcing_adqnet_mean       =   0.0000000000000E+00
(PID.TID 0000.0001) %MON ad_forcing_adqnet_sd         =   0.0000000000000E+00
(PID.TID 0000.0001) %MON ad_forcing_adqnet_del2       =   0.0000000000000E+00
(PID.TID 0000.0001) %MON ad_forcing_adqsw_max         =   1.6982726599342E-02
(PID.TID 0000.0001) %MON ad_forcing_adqsw_min         =  -4.3040359985314E-02
(PID.TID 0000.0001) %MON ad_forcing_adqsw_mean        =   2.6010143487471E-04
(PID.TID 0000.0001) %MON ad_forcing_adqsw_sd          =   9.4979699446537E-04
(PID.TID 0000.0001) %MON ad_forcing_adqsw_del2        =   3.9034996095845E-05
(PID.TID 0000.0001) %MON ad_forcing_adempmr_max       =   0.0000000000000E+00
(PID.TID 0000.0001) %MON ad_forcing_adempmr_min       =   0.0000000000000E+00
(PID.TID 0000.0001) %MON ad_forcing_adempmr_mean      =   0.0000000000000E+00
(PID.TID 0000.0001) %MON ad_forcing_adempmr_sd        =   0.0000000000000E+00
(PID.TID 0000.0001) %MON ad_forcing_adempmr_del2      =   0.0000000000000E+00
(PID.TID 0000.0001) %MON ad_forcing_adfu_max          =   0.0000000000000E+00
(PID.TID 0000.0001) %MON ad_forcing_adfu_min          =   0.0000000000000E+00
(PID.TID 0000.0001) %MON ad_forcing_adfu_mean         =   0.0000000000000E+00
(PID.TID 0000.0001) %MON ad_forcing_adfu_sd           =   0.0000000000000E+00
(PID.TID 0000.0001) %MON ad_forcing_adfu_del2         =   0.0000000000000E+00
(PID.TID 0000.0001) %MON ad_forcing_adfv_max          =   0.0000000000000E+00
(PID.TID 0000.0001) %MON ad_forcing_adfv_min          =   0.0000000000000E+00
(PID.TID 0000.0001) %MON ad_forcing_adfv_mean         =   0.0000000000000E+00
(PID.TID 0000.0001) %MON ad_forcing_adfv_sd           =   0.0000000000000E+00
(PID.TID 0000.0001) %MON ad_forcing_adfv_del2         =   0.0000000000000E+00
(PID.TID 0000.0001) %MON ad_advcfl_aduvel_max         =   4.3252763506737E+02
(PID.TID 0000.0001) %MON ad_advcfl_advvel_max         =   1.7899255883536E+02
(PID.TID 0000.0001) %MON ad_advcfl_adwvel_max         =   4.6126742024790E+05
(PID.TID 0000.0001) %MON ad_advcfl_adW_hf_max         =   5.5386245882889E+05
(PID.TID 0000.0001) // =======================================================
(PID.TID 0000.0001) // End MONITOR dynamic field statistics
(PID.TID 0000.0001) // =======================================================
 cg2d: Sum(rhs),rhsMax =  -1.49077798716757E-18  1.81147158584145E-03
 cg2d: Sum(rhs),rhsMax =  -9.63495949690696E-12  4.26162662718429E+00
(PID.TID 0000.0001) // =======================================================
(PID.TID 0000.0001) // Begin MONITOR dynamic field statistics
(PID.TID 0000.0001) // =======================================================
(PID.TID 0000.0001) %MON ad_time_tsnumber             =                 72005
(PID.TID 0000.0001) %MON ad_time_secondsf             =   6.2212320000000E+09
(PID.TID 0000.0001) %MON ad_dynstat_adeta_max         =   0.0000000000000E+00
(PID.TID 0000.0001) %MON ad_dynstat_adeta_min         =   0.0000000000000E+00
(PID.TID 0000.0001) %MON ad_dynstat_adeta_mean        =   0.0000000000000E+00
(PID.TID 0000.0001) %MON ad_dynstat_adeta_sd          =   0.0000000000000E+00
(PID.TID 0000.0001) %MON ad_dynstat_adeta_del2        =   0.0000000000000E+00
(PID.TID 0000.0001) %MON ad_dynstat_aduvel_max        =   1.0039256475723E+03
(PID.TID 0000.0001) %MON ad_dynstat_aduvel_min        =  -5.8266547719842E+02
(PID.TID 0000.0001) %MON ad_dynstat_aduvel_mean       =   5.7147854263537E-01
(PID.TID 0000.0001) %MON ad_dynstat_aduvel_sd         =   1.1467852261015E+01
(PID.TID 0000.0001) %MON ad_dynstat_aduvel_del2       =   1.2786415965999E-01
(PID.TID 0000.0001) %MON ad_dynstat_advvel_max        =   5.8500383566371E+02
(PID.TID 0000.0001) %MON ad_dynstat_advvel_min        =  -3.2043052486326E+02
(PID.TID 0000.0001) %MON ad_dynstat_advvel_mean       =   5.1328240985836E-01
(PID.TID 0000.0001) %MON ad_dynstat_advvel_sd         =   1.1375188413643E+01
(PID.TID 0000.0001) %MON ad_dynstat_advvel_del2       =   1.0579070410469E-01
(PID.TID 0000.0001) %MON ad_dynstat_adwvel_max        =   3.2800055171640E+02
(PID.TID 0000.0001) %MON ad_dynstat_adwvel_min        =  -2.0672008840439E+02
(PID.TID 0000.0001) %MON ad_dynstat_adwvel_mean       =  -9.6967915127642E-03
(PID.TID 0000.0001) %MON ad_dynstat_adwvel_sd         =   3.9628479101614E+00
(PID.TID 0000.0001) %MON ad_dynstat_adwvel_del2       =   5.0379520789918E-02
(PID.TID 0000.0001) %MON ad_dynstat_adtheta_max       =   1.4120425071150E+02
(PID.TID 0000.0001) %MON ad_dynstat_adtheta_min       =  -9.7206926026572E+01
(PID.TID 0000.0001) %MON ad_dynstat_adtheta_mean      =   6.2555581881556E-01
(PID.TID 0000.0001) %MON ad_dynstat_adtheta_sd        =   2.0721182261669E+00
(PID.TID 0000.0001) %MON ad_dynstat_adtheta_del2      =   1.6029309638045E-02
(PID.TID 0000.0001) %MON ad_dynstat_adsalt_max        =   4.4234875806206E+02
(PID.TID 0000.0001) %MON ad_dynstat_adsalt_min        =  -4.3748008264887E+02
(PID.TID 0000.0001) %MON ad_dynstat_adsalt_mean       =  -9.1728167648026E-02
(PID.TID 0000.0001) %MON ad_dynstat_adsalt_sd         =   5.0613078705378E+00
(PID.TID 0000.0001) %MON ad_dynstat_adsalt_del2       =   6.6124860909073E-02
(PID.TID 0000.0001) %MON ad_forcing_adqnet_max        =   0.0000000000000E+00
(PID.TID 0000.0001) %MON ad_forcing_adqnet_min        =   0.0000000000000E+00
(PID.TID 0000.0001) %MON ad_forcing_adqnet_mean       =   0.0000000000000E+00
(PID.TID 0000.0001) %MON ad_forcing_adqnet_sd         =   0.0000000000000E+00
(PID.TID 0000.0001) %MON ad_forcing_adqnet_del2       =   0.0000000000000E+00
(PID.TID 0000.0001) %MON ad_forcing_adqsw_max         =   1.8265081606509E-02
(PID.TID 0000.0001) %MON ad_forcing_adqsw_min         =  -4.5655325588994E-02
(PID.TID 0000.0001) %MON ad_forcing_adqsw_mean        =   2.7771045340975E-04
(PID.TID 0000.0001) %MON ad_forcing_adqsw_sd          =   1.0108388195619E-03
(PID.TID 0000.0001) %MON ad_forcing_adqsw_del2        =   4.1462921190963E-05
(PID.TID 0000.0001) %MON ad_forcing_adempmr_max       =   0.0000000000000E+00
(PID.TID 0000.0001) %MON ad_forcing_adempmr_min       =   0.0000000000000E+00
(PID.TID 0000.0001) %MON ad_forcing_adempmr_mean      =   0.0000000000000E+00
(PID.TID 0000.0001) %MON ad_forcing_adempmr_sd        =   0.0000000000000E+00
(PID.TID 0000.0001) %MON ad_forcing_adempmr_del2      =   0.0000000000000E+00
(PID.TID 0000.0001) %MON ad_forcing_adfu_max          =   0.0000000000000E+00
(PID.TID 0000.0001) %MON ad_forcing_adfu_min          =   0.0000000000000E+00
(PID.TID 0000.0001) %MON ad_forcing_adfu_mean         =   0.0000000000000E+00
(PID.TID 0000.0001) %MON ad_forcing_adfu_sd           =   0.0000000000000E+00
(PID.TID 0000.0001) %MON ad_forcing_adfu_del2         =   0.0000000000000E+00
(PID.TID 0000.0001) %MON ad_forcing_adfv_max          =   0.0000000000000E+00
(PID.TID 0000.0001) %MON ad_forcing_adfv_min          =   0.0000000000000E+00
(PID.TID 0000.0001) %MON ad_forcing_adfv_mean         =   0.0000000000000E+00
(PID.TID 0000.0001) %MON ad_forcing_adfv_sd           =   0.0000000000000E+00
(PID.TID 0000.0001) %MON ad_forcing_adfv_del2         =   0.0000000000000E+00
(PID.TID 0000.0001) %MON ad_advcfl_aduvel_max         =   4.3125442190870E+02
(PID.TID 0000.0001) %MON ad_advcfl_advvel_max         =   1.8731799404257E+02
(PID.TID 0000.0001) %MON ad_advcfl_adwvel_max         =   4.7232079447162E+05
(PID.TID 0000.0001) %MON ad_advcfl_adW_hf_max         =   5.6714417338176E+05
(PID.TID 0000.0001) // =======================================================
(PID.TID 0000.0001) // End MONITOR dynamic field statistics
(PID.TID 0000.0001) // =======================================================
 cg2d: Sum(rhs),rhsMax =   2.71050543121376E-20  1.49439680941732E-03
 cg2d: Sum(rhs),rhsMax =  -9.97602001007181E-12  4.27358143086832E+00
 cg2d: Sum(rhs),rhsMax =  -9.63495949690696E-12  4.26757584348471E+00
 cg2d: Sum(rhs),rhsMax =  -9.63495949690696E-12  4.26757584348471E+00
(PID.TID 0000.0001) // =======================================================
(PID.TID 0000.0001) // Begin MONITOR dynamic field statistics
(PID.TID 0000.0001) // =======================================================
(PID.TID 0000.0001) %MON ad_time_tsnumber             =                 72004
(PID.TID 0000.0001) %MON ad_time_secondsf             =   6.2211456000000E+09
(PID.TID 0000.0001) %MON ad_dynstat_adeta_max         =   0.0000000000000E+00
(PID.TID 0000.0001) %MON ad_dynstat_adeta_min         =   0.0000000000000E+00
(PID.TID 0000.0001) %MON ad_dynstat_adeta_mean        =   0.0000000000000E+00
(PID.TID 0000.0001) %MON ad_dynstat_adeta_sd          =   0.0000000000000E+00
(PID.TID 0000.0001) %MON ad_dynstat_adeta_del2        =   0.0000000000000E+00
(PID.TID 0000.0001) %MON ad_dynstat_aduvel_max        =   9.8507436615951E+02
(PID.TID 0000.0001) %MON ad_dynstat_aduvel_min        =  -6.1733443699511E+02
(PID.TID 0000.0001) %MON ad_dynstat_aduvel_mean       =   6.2994114004697E-01
(PID.TID 0000.0001) %MON ad_dynstat_aduvel_sd         =   1.1872774170430E+01
(PID.TID 0000.0001) %MON ad_dynstat_aduvel_del2       =   1.3097929890263E-01
(PID.TID 0000.0001) %MON ad_dynstat_advvel_max        =   6.0821845381485E+02
(PID.TID 0000.0001) %MON ad_dynstat_advvel_min        =  -3.2865051616511E+02
(PID.TID 0000.0001) %MON ad_dynstat_advvel_mean       =   6.0246506223004E-01
(PID.TID 0000.0001) %MON ad_dynstat_advvel_sd         =   1.1789219610244E+01
(PID.TID 0000.0001) %MON ad_dynstat_advvel_del2       =   1.0849299414607E-01
(PID.TID 0000.0001) %MON ad_dynstat_adwvel_max        =   3.3380303778485E+02
(PID.TID 0000.0001) %MON ad_dynstat_adwvel_min        =  -2.1235119432457E+02
(PID.TID 0000.0001) %MON ad_dynstat_adwvel_mean       =  -9.8242271618009E-03
(PID.TID 0000.0001) %MON ad_dynstat_adwvel_sd         =   4.1026402674630E+00
(PID.TID 0000.0001) %MON ad_dynstat_adwvel_del2       =   5.1975360338308E-02
(PID.TID 0000.0001) %MON ad_dynstat_adtheta_max       =   1.3878174541846E+02
(PID.TID 0000.0001) %MON ad_dynstat_adtheta_min       =  -9.3384486846341E+01
(PID.TID 0000.0001) %MON ad_dynstat_adtheta_mean      =   6.2642188535946E-01
(PID.TID 0000.0001) %MON ad_dynstat_adtheta_sd        =   2.0896901457084E+00
(PID.TID 0000.0001) %MON ad_dynstat_adtheta_del2      =   1.5825295464865E-02
(PID.TID 0000.0001) %MON ad_dynstat_adsalt_max        =   4.3179333241261E+02
(PID.TID 0000.0001) %MON ad_dynstat_adsalt_min        =  -4.2968502222322E+02
(PID.TID 0000.0001) %MON ad_dynstat_adsalt_mean       =  -9.8010931077849E-02
(PID.TID 0000.0001) %MON ad_dynstat_adsalt_sd         =   5.3215302927981E+00
(PID.TID 0000.0001) %MON ad_dynstat_adsalt_del2       =   6.5703451013688E-02
(PID.TID 0000.0001) %MON ad_forcing_adqnet_max        =   0.0000000000000E+00
(PID.TID 0000.0001) %MON ad_forcing_adqnet_min        =   0.0000000000000E+00
(PID.TID 0000.0001) %MON ad_forcing_adqnet_mean       =   0.0000000000000E+00
(PID.TID 0000.0001) %MON ad_forcing_adqnet_sd         =   0.0000000000000E+00
(PID.TID 0000.0001) %MON ad_forcing_adqnet_del2       =   0.0000000000000E+00
(PID.TID 0000.0001) %MON ad_forcing_adqsw_max         =   1.9514286629810E-02
(PID.TID 0000.0001) %MON ad_forcing_adqsw_min         =  -4.8197793003433E-02
(PID.TID 0000.0001) %MON ad_forcing_adqsw_mean        =   2.9514836957300E-04
(PID.TID 0000.0001) %MON ad_forcing_adqsw_sd          =   1.0705461915174E-03
(PID.TID 0000.0001) %MON ad_forcing_adqsw_del2        =   4.3809304045951E-05
(PID.TID 0000.0001) %MON ad_forcing_adempmr_max       =   0.0000000000000E+00
(PID.TID 0000.0001) %MON ad_forcing_adempmr_min       =   0.0000000000000E+00
(PID.TID 0000.0001) %MON ad_forcing_adempmr_mean      =   0.0000000000000E+00
(PID.TID 0000.0001) %MON ad_forcing_adempmr_sd        =   0.0000000000000E+00
(PID.TID 0000.0001) %MON ad_forcing_adempmr_del2      =   0.0000000000000E+00
(PID.TID 0000.0001) %MON ad_forcing_adfu_max          =   0.0000000000000E+00
(PID.TID 0000.0001) %MON ad_forcing_adfu_min          =   0.0000000000000E+00
(PID.TID 0000.0001) %MON ad_forcing_adfu_mean         =   0.0000000000000E+00
(PID.TID 0000.0001) %MON ad_forcing_adfu_sd           =   0.0000000000000E+00
(PID.TID 0000.0001) %MON ad_forcing_adfu_del2         =   0.0000000000000E+00
(PID.TID 0000.0001) %MON ad_forcing_adfv_max          =   0.0000000000000E+00
(PID.TID 0000.0001) %MON ad_forcing_adfv_min          =   0.0000000000000E+00
(PID.TID 0000.0001) %MON ad_forcing_adfv_mean         =   0.0000000000000E+00
(PID.TID 0000.0001) %MON ad_forcing_adfv_sd           =   0.0000000000000E+00
(PID.TID 0000.0001) %MON ad_forcing_adfv_del2         =   0.0000000000000E+00
(PID.TID 0000.0001) %MON ad_advcfl_aduvel_max         =   4.2315651297733E+02
(PID.TID 0000.0001) %MON ad_advcfl_advvel_max         =   1.9475130548334E+02
(PID.TID 0000.0001) %MON ad_advcfl_adwvel_max         =   4.8067637441018E+05
(PID.TID 0000.0001) %MON ad_advcfl_adW_hf_max         =   5.7718822544086E+05
(PID.TID 0000.0001) // =======================================================
(PID.TID 0000.0001) // End MONITOR dynamic field statistics
(PID.TID 0000.0001) // =======================================================
 cg2d: Sum(rhs),rhsMax =   3.79470760369927E-19  1.17368029415106E-03
 cg2d: Sum(rhs),rhsMax =  -9.97602001007181E-12  4.27358143086832E+00
(PID.TID 0000.0001) // =======================================================
(PID.TID 0000.0001) // Begin MONITOR dynamic field statistics
(PID.TID 0000.0001) // =======================================================
(PID.TID 0000.0001) %MON ad_time_tsnumber             =                 72003
(PID.TID 0000.0001) %MON ad_time_secondsf             =   6.2210592000000E+09
(PID.TID 0000.0001) %MON ad_dynstat_adeta_max         =   0.0000000000000E+00
(PID.TID 0000.0001) %MON ad_dynstat_adeta_min         =   0.0000000000000E+00
(PID.TID 0000.0001) %MON ad_dynstat_adeta_mean        =   0.0000000000000E+00
(PID.TID 0000.0001) %MON ad_dynstat_adeta_sd          =   0.0000000000000E+00
(PID.TID 0000.0001) %MON ad_dynstat_adeta_del2        =   0.0000000000000E+00
(PID.TID 0000.0001) %MON ad_dynstat_aduvel_max        =   9.5307090210913E+02
(PID.TID 0000.0001) %MON ad_dynstat_aduvel_min        =  -6.4854982575035E+02
(PID.TID 0000.0001) %MON ad_dynstat_aduvel_mean       =   6.8050190508410E-01
(PID.TID 0000.0001) %MON ad_dynstat_aduvel_sd         =   1.2272081371424E+01
(PID.TID 0000.0001) %MON ad_dynstat_aduvel_del2       =   1.3389424827119E-01
(PID.TID 0000.0001) %MON ad_dynstat_advvel_max        =   6.2892901959971E+02
(PID.TID 0000.0001) %MON ad_dynstat_advvel_min        =  -3.3469481209533E+02
(PID.TID 0000.0001) %MON ad_dynstat_advvel_mean       =   7.0198303080053E-01
(PID.TID 0000.0001) %MON ad_dynstat_advvel_sd         =   1.2181939362871E+01
(PID.TID 0000.0001) %MON ad_dynstat_advvel_del2       =   1.1137182866608E-01
(PID.TID 0000.0001) %MON ad_dynstat_adwvel_max        =   3.3786257602382E+02
(PID.TID 0000.0001) %MON ad_dynstat_adwvel_min        =  -2.1698437924972E+02
(PID.TID 0000.0001) %MON ad_dynstat_adwvel_mean       =  -9.8352040883744E-03
(PID.TID 0000.0001) %MON ad_dynstat_adwvel_sd         =   4.2308722860281E+00
(PID.TID 0000.0001) %MON ad_dynstat_adwvel_del2       =   5.3489503326410E-02
(PID.TID 0000.0001) %MON ad_dynstat_adtheta_max       =   1.3639077651549E+02
(PID.TID 0000.0001) %MON ad_dynstat_adtheta_min       =  -8.9589638381012E+01
(PID.TID 0000.0001) %MON ad_dynstat_adtheta_mean      =   6.2724285211793E-01
(PID.TID 0000.0001) %MON ad_dynstat_adtheta_sd        =   2.1078188101154E+00
(PID.TID 0000.0001) %MON ad_dynstat_adtheta_del2      =   1.5673436909462E-02
(PID.TID 0000.0001) %MON ad_dynstat_adsalt_max        =   4.2097487545402E+02
(PID.TID 0000.0001) %MON ad_dynstat_adsalt_min        =  -4.2201718253755E+02
(PID.TID 0000.0001) %MON ad_dynstat_adsalt_mean       =  -1.0397925370779E-01
(PID.TID 0000.0001) %MON ad_dynstat_adsalt_sd         =   5.5658111452091E+00
(PID.TID 0000.0001) %MON ad_dynstat_adsalt_del2       =   6.5344894313261E-02
(PID.TID 0000.0001) %MON ad_forcing_adqnet_max        =   0.0000000000000E+00
(PID.TID 0000.0001) %MON ad_forcing_adqnet_min        =   0.0000000000000E+00
(PID.TID 0000.0001) %MON ad_forcing_adqnet_mean       =   0.0000000000000E+00
(PID.TID 0000.0001) %MON ad_forcing_adqnet_sd         =   0.0000000000000E+00
(PID.TID 0000.0001) %MON ad_forcing_adqnet_del2       =   0.0000000000000E+00
(PID.TID 0000.0001) %MON ad_forcing_adqsw_max         =   2.0730587447771E-02
(PID.TID 0000.0001) %MON ad_forcing_adqsw_min         =  -5.0668510981348E-02
(PID.TID 0000.0001) %MON ad_forcing_adqsw_mean        =   3.1241732713358E-04
(PID.TID 0000.0001) %MON ad_forcing_adqsw_sd          =   1.1289611627847E-03
(PID.TID 0000.0001) %MON ad_forcing_adqsw_del2        =   4.6078032561246E-05
(PID.TID 0000.0001) %MON ad_forcing_adempmr_max       =   0.0000000000000E+00
(PID.TID 0000.0001) %MON ad_forcing_adempmr_min       =   0.0000000000000E+00
(PID.TID 0000.0001) %MON ad_forcing_adempmr_mean      =   0.0000000000000E+00
(PID.TID 0000.0001) %MON ad_forcing_adempmr_sd        =   0.0000000000000E+00
(PID.TID 0000.0001) %MON ad_forcing_adempmr_del2      =   0.0000000000000E+00
(PID.TID 0000.0001) %MON ad_forcing_adfu_max          =   0.0000000000000E+00
(PID.TID 0000.0001) %MON ad_forcing_adfu_min          =   0.0000000000000E+00
(PID.TID 0000.0001) %MON ad_forcing_adfu_mean         =   0.0000000000000E+00
(PID.TID 0000.0001) %MON ad_forcing_adfu_sd           =   0.0000000000000E+00
(PID.TID 0000.0001) %MON ad_forcing_adfu_del2         =   0.0000000000000E+00
(PID.TID 0000.0001) %MON ad_forcing_adfv_max          =   0.0000000000000E+00
(PID.TID 0000.0001) %MON ad_forcing_adfv_min          =   0.0000000000000E+00
(PID.TID 0000.0001) %MON ad_forcing_adfv_mean         =   0.0000000000000E+00
(PID.TID 0000.0001) %MON ad_forcing_adfv_sd           =   0.0000000000000E+00
(PID.TID 0000.0001) %MON ad_forcing_adfv_del2         =   0.0000000000000E+00
(PID.TID 0000.0001) %MON ad_advcfl_aduvel_max         =   4.0940884608437E+02
(PID.TID 0000.0001) %MON ad_advcfl_advvel_max         =   2.0138282035863E+02
(PID.TID 0000.0001) %MON ad_advcfl_adwvel_max         =   4.8652210947431E+05
(PID.TID 0000.0001) %MON ad_advcfl_adW_hf_max         =   5.8422177769069E+05
(PID.TID 0000.0001) // =======================================================
(PID.TID 0000.0001) // End MONITOR dynamic field statistics
(PID.TID 0000.0001) // =======================================================
 cg2d: Sum(rhs),rhsMax =  -4.87890977618477E-19  1.02451680800318E-03
S/R EXTERNAL_FIELDS_LOAD: Reading new data:   12    1     72000  6.220800000000E+09
(PID.TID 0000.0001)  MDS_READ_FIELD: opening global file: trenberth_taux.bin
(PID.TID 0000.0001)  MDS_READ_FIELD: opening global file: trenberth_taux.bin
(PID.TID 0000.0001)  MDS_READ_FIELD: opening global file: trenberth_tauy.bin
(PID.TID 0000.0001)  MDS_READ_FIELD: opening global file: trenberth_tauy.bin
(PID.TID 0000.0001)  MDS_READ_FIELD: opening global file: shiQnet_cs32.bin
(PID.TID 0000.0001)  MDS_READ_FIELD: opening global file: shiQnet_cs32.bin
(PID.TID 0000.0001)  MDS_READ_FIELD: opening global file: shiEmPR_cs32.bin
(PID.TID 0000.0001)  MDS_READ_FIELD: opening global file: shiEmPR_cs32.bin
(PID.TID 0000.0001)  MDS_READ_FIELD: opening global file: lev_surfT_cs_12m.bin
(PID.TID 0000.0001)  MDS_READ_FIELD: opening global file: lev_surfT_cs_12m.bin
(PID.TID 0000.0001)  MDS_READ_FIELD: opening global file: lev_surfS_cs_12m.bin
(PID.TID 0000.0001)  MDS_READ_FIELD: opening global file: lev_surfS_cs_12m.bin
(PID.TID 0000.0001)  MDS_READ_FIELD: opening file: xx_tauu.0000000000.001.001.data
(PID.TID 0000.0001)  MDS_READ_FIELD: opening file: xx_tauu.0000000000.002.001.data
(PID.TID 0000.0001)  MDS_READ_FIELD: opening file: xx_tauu.0000000000.003.001.data
(PID.TID 0000.0001)  MDS_READ_FIELD: opening file: xx_tauu.0000000000.004.001.data
(PID.TID 0000.0001)  MDS_READ_FIELD: opening file: xx_tauu.0000000000.005.001.data
(PID.TID 0000.0001)  MDS_READ_FIELD: opening file: xx_tauu.0000000000.006.001.data
(PID.TID 0000.0001)  MDS_READ_FIELD: opening file: xx_tauv.0000000000.001.001.data
(PID.TID 0000.0001)  MDS_READ_FIELD: opening file: xx_tauv.0000000000.002.001.data
(PID.TID 0000.0001)  MDS_READ_FIELD: opening file: xx_tauv.0000000000.003.001.data
(PID.TID 0000.0001)  MDS_READ_FIELD: opening file: xx_tauv.0000000000.004.001.data
(PID.TID 0000.0001)  MDS_READ_FIELD: opening file: xx_tauv.0000000000.005.001.data
(PID.TID 0000.0001)  MDS_READ_FIELD: opening file: xx_tauv.0000000000.006.001.data
(PID.TID 0000.0001)  MDS_READ_FIELD: opening file: xx_sfl.0000000000.001.001.data
(PID.TID 0000.0001)  MDS_READ_FIELD: opening file: xx_sfl.0000000000.002.001.data
(PID.TID 0000.0001)  MDS_READ_FIELD: opening file: xx_sfl.0000000000.003.001.data
(PID.TID 0000.0001)  MDS_READ_FIELD: opening file: xx_sfl.0000000000.004.001.data
(PID.TID 0000.0001)  MDS_READ_FIELD: opening file: xx_sfl.0000000000.005.001.data
(PID.TID 0000.0001)  MDS_READ_FIELD: opening file: xx_sfl.0000000000.006.001.data
(PID.TID 0000.0001)  MDS_READ_FIELD: opening file: xx_hfl.0000000000.001.001.data
(PID.TID 0000.0001)  MDS_READ_FIELD: opening file: xx_hfl.0000000000.002.001.data
(PID.TID 0000.0001)  MDS_READ_FIELD: opening file: xx_hfl.0000000000.003.001.data
(PID.TID 0000.0001)  MDS_READ_FIELD: opening file: xx_hfl.0000000000.004.001.data
(PID.TID 0000.0001)  MDS_READ_FIELD: opening file: xx_hfl.0000000000.005.001.data
(PID.TID 0000.0001)  MDS_READ_FIELD: opening file: xx_hfl.0000000000.006.001.data
(PID.TID 0000.0001) SOLVE_FOR_PRESSURE: putPmEinXvector =    F
 cg2d: Sum(rhs),rhsMax =  -9.43600753089413E-12  4.28440421776334E+00
 cg2d: Sum(rhs),rhsMax =  -9.37916411203332E-12  4.27982545051953E+00
 cg2d: Sum(rhs),rhsMax =  -9.37916411203332E-12  4.27982545051953E+00
(PID.TID 0000.0001) // =======================================================
(PID.TID 0000.0001) // Begin MONITOR dynamic field statistics
(PID.TID 0000.0001) // =======================================================
(PID.TID 0000.0001) %MON ad_time_tsnumber             =                 72002
(PID.TID 0000.0001) %MON ad_time_secondsf             =   6.2209728000000E+09
(PID.TID 0000.0001) %MON ad_dynstat_adeta_max         =   0.0000000000000E+00
(PID.TID 0000.0001) %MON ad_dynstat_adeta_min         =   0.0000000000000E+00
(PID.TID 0000.0001) %MON ad_dynstat_adeta_mean        =   0.0000000000000E+00
(PID.TID 0000.0001) %MON ad_dynstat_adeta_sd          =   0.0000000000000E+00
(PID.TID 0000.0001) %MON ad_dynstat_adeta_del2        =   0.0000000000000E+00
(PID.TID 0000.0001) %MON ad_dynstat_aduvel_max        =   9.1061231559547E+02
(PID.TID 0000.0001) %MON ad_dynstat_aduvel_min        =  -6.7583350892954E+02
(PID.TID 0000.0001) %MON ad_dynstat_aduvel_mean       =   7.2150805518037E-01
(PID.TID 0000.0001) %MON ad_dynstat_aduvel_sd         =   1.2667545637353E+01
(PID.TID 0000.0001) %MON ad_dynstat_aduvel_del2       =   1.3678319585705E-01
(PID.TID 0000.0001) %MON ad_dynstat_advvel_max        =   6.4719821628086E+02
(PID.TID 0000.0001) %MON ad_dynstat_advvel_min        =  -3.3878415836058E+02
(PID.TID 0000.0001) %MON ad_dynstat_advvel_mean       =   8.1309928326129E-01
(PID.TID 0000.0001) %MON ad_dynstat_advvel_sd         =   1.2551181720533E+01
(PID.TID 0000.0001) %MON ad_dynstat_advvel_del2       =   1.1440657690688E-01
(PID.TID 0000.0001) %MON ad_dynstat_adwvel_max        =   3.4030661840143E+02
(PID.TID 0000.0001) %MON ad_dynstat_adwvel_min        =  -2.2077831274544E+02
(PID.TID 0000.0001) %MON ad_dynstat_adwvel_mean       =  -9.7371492372094E-03
(PID.TID 0000.0001) %MON ad_dynstat_adwvel_sd         =   4.3503433773602E+00
(PID.TID 0000.0001) %MON ad_dynstat_adwvel_del2       =   5.4942260154053E-02
(PID.TID 0000.0001) %MON ad_dynstat_adtheta_max       =   1.3403016417605E+02
(PID.TID 0000.0001) %MON ad_dynstat_adtheta_min       =  -8.5812615014983E+01
(PID.TID 0000.0001) %MON ad_dynstat_adtheta_mean      =   6.2798043629178E-01
(PID.TID 0000.0001) %MON ad_dynstat_adtheta_sd        =   2.1241226780769E+00
(PID.TID 0000.0001) %MON ad_dynstat_adtheta_del2      =   1.5504708668427E-02
(PID.TID 0000.0001) %MON ad_dynstat_adsalt_max        =   4.0986088849393E+02
(PID.TID 0000.0001) %MON ad_dynstat_adsalt_min        =  -4.1446763326262E+02
(PID.TID 0000.0001) %MON ad_dynstat_adsalt_mean       =  -1.0945395366177E-01
(PID.TID 0000.0001) %MON ad_dynstat_adsalt_sd         =   5.7828641087743E+00
(PID.TID 0000.0001) %MON ad_dynstat_adsalt_del2       =   6.4832471317420E-02
(PID.TID 0000.0001) %MON ad_forcing_adqnet_max        =   0.0000000000000E+00
(PID.TID 0000.0001) %MON ad_forcing_adqnet_min        =   0.0000000000000E+00
(PID.TID 0000.0001) %MON ad_forcing_adqnet_mean       =   0.0000000000000E+00
(PID.TID 0000.0001) %MON ad_forcing_adqnet_sd         =   0.0000000000000E+00
(PID.TID 0000.0001) %MON ad_forcing_adqnet_del2       =   0.0000000000000E+00
(PID.TID 0000.0001) %MON ad_forcing_adqsw_max         =   2.1914312236221E-02
(PID.TID 0000.0001) %MON ad_forcing_adqsw_min         =  -5.3068054730322E-02
(PID.TID 0000.0001) %MON ad_forcing_adqsw_mean        =   3.2954005120616E-04
(PID.TID 0000.0001) %MON ad_forcing_adqsw_sd          =   1.1861256142053E-03
(PID.TID 0000.0001) %MON ad_forcing_adqsw_del2        =   4.8272245868790E-05
(PID.TID 0000.0001) %MON ad_forcing_adempmr_max       =   0.0000000000000E+00
(PID.TID 0000.0001) %MON ad_forcing_adempmr_min       =   0.0000000000000E+00
(PID.TID 0000.0001) %MON ad_forcing_adempmr_mean      =   0.0000000000000E+00
(PID.TID 0000.0001) %MON ad_forcing_adempmr_sd        =   0.0000000000000E+00
(PID.TID 0000.0001) %MON ad_forcing_adempmr_del2      =   0.0000000000000E+00
(PID.TID 0000.0001) %MON ad_forcing_adfu_max          =   0.0000000000000E+00
(PID.TID 0000.0001) %MON ad_forcing_adfu_min          =   0.0000000000000E+00
(PID.TID 0000.0001) %MON ad_forcing_adfu_mean         =   0.0000000000000E+00
(PID.TID 0000.0001) %MON ad_forcing_adfu_sd           =   0.0000000000000E+00
(PID.TID 0000.0001) %MON ad_forcing_adfu_del2         =   0.0000000000000E+00
(PID.TID 0000.0001) %MON ad_forcing_adfv_max          =   0.0000000000000E+00
(PID.TID 0000.0001) %MON ad_forcing_adfv_min          =   0.0000000000000E+00
(PID.TID 0000.0001) %MON ad_forcing_adfv_mean         =   0.0000000000000E+00
(PID.TID 0000.0001) %MON ad_forcing_adfv_sd           =   0.0000000000000E+00
(PID.TID 0000.0001) %MON ad_forcing_adfv_del2         =   0.0000000000000E+00
(PID.TID 0000.0001) %MON ad_advcfl_aduvel_max         =   3.9116999221477E+02
(PID.TID 0000.0001) %MON ad_advcfl_advvel_max         =   2.0723260982403E+02
(PID.TID 0000.0001) %MON ad_advcfl_adwvel_max         =   4.9004153049806E+05
(PID.TID 0000.0001) %MON ad_advcfl_adW_hf_max         =   5.8846427075516E+05
(PID.TID 0000.0001) // =======================================================
(PID.TID 0000.0001) // End MONITOR dynamic field statistics
(PID.TID 0000.0001) // =======================================================
 cg2d: Sum(rhs),rhsMax =  -2.71050543121376E-19  7.15210537076694E-04
S/R EXTERNAL_FIELDS_LOAD: Reading new data:   12    1     72000  6.220800000000E+09
(PID.TID 0000.0001)  MDS_READ_FIELD: opening global file: trenberth_taux.bin
(PID.TID 0000.0001)  MDS_READ_FIELD: opening global file: trenberth_taux.bin
(PID.TID 0000.0001)  MDS_READ_FIELD: opening global file: trenberth_tauy.bin
(PID.TID 0000.0001)  MDS_READ_FIELD: opening global file: trenberth_tauy.bin
(PID.TID 0000.0001)  MDS_READ_FIELD: opening global file: shiQnet_cs32.bin
(PID.TID 0000.0001)  MDS_READ_FIELD: opening global file: shiQnet_cs32.bin
(PID.TID 0000.0001)  MDS_READ_FIELD: opening global file: shiEmPR_cs32.bin
(PID.TID 0000.0001)  MDS_READ_FIELD: opening global file: shiEmPR_cs32.bin
(PID.TID 0000.0001)  MDS_READ_FIELD: opening global file: lev_surfT_cs_12m.bin
(PID.TID 0000.0001)  MDS_READ_FIELD: opening global file: lev_surfT_cs_12m.bin
(PID.TID 0000.0001)  MDS_READ_FIELD: opening global file: lev_surfS_cs_12m.bin
(PID.TID 0000.0001)  MDS_READ_FIELD: opening global file: lev_surfS_cs_12m.bin
(PID.TID 0000.0001)  MDS_READ_FIELD: opening file: xx_tauu.0000000000.001.001.data
(PID.TID 0000.0001)  MDS_READ_FIELD: opening file: xx_tauu.0000000000.002.001.data
(PID.TID 0000.0001)  MDS_READ_FIELD: opening file: xx_tauu.0000000000.003.001.data
(PID.TID 0000.0001)  MDS_READ_FIELD: opening file: xx_tauu.0000000000.004.001.data
(PID.TID 0000.0001)  MDS_READ_FIELD: opening file: xx_tauu.0000000000.005.001.data
(PID.TID 0000.0001)  MDS_READ_FIELD: opening file: xx_tauu.0000000000.006.001.data
(PID.TID 0000.0001)  MDS_READ_FIELD: opening file: xx_tauv.0000000000.001.001.data
(PID.TID 0000.0001)  MDS_READ_FIELD: opening file: xx_tauv.0000000000.002.001.data
(PID.TID 0000.0001)  MDS_READ_FIELD: opening file: xx_tauv.0000000000.003.001.data
(PID.TID 0000.0001)  MDS_READ_FIELD: opening file: xx_tauv.0000000000.004.001.data
(PID.TID 0000.0001)  MDS_READ_FIELD: opening file: xx_tauv.0000000000.005.001.data
(PID.TID 0000.0001)  MDS_READ_FIELD: opening file: xx_tauv.0000000000.006.001.data
(PID.TID 0000.0001)  MDS_READ_FIELD: opening file: xx_sfl.0000000000.001.001.data
(PID.TID 0000.0001)  MDS_READ_FIELD: opening file: xx_sfl.0000000000.002.001.data
(PID.TID 0000.0001)  MDS_READ_FIELD: opening file: xx_sfl.0000000000.003.001.data
(PID.TID 0000.0001)  MDS_READ_FIELD: opening file: xx_sfl.0000000000.004.001.data
(PID.TID 0000.0001)  MDS_READ_FIELD: opening file: xx_sfl.0000000000.005.001.data
(PID.TID 0000.0001)  MDS_READ_FIELD: opening file: xx_sfl.0000000000.006.001.data
(PID.TID 0000.0001)  MDS_READ_FIELD: opening file: xx_hfl.0000000000.001.001.data
(PID.TID 0000.0001)  MDS_READ_FIELD: opening file: xx_hfl.0000000000.002.001.data
(PID.TID 0000.0001)  MDS_READ_FIELD: opening file: xx_hfl.0000000000.003.001.data
(PID.TID 0000.0001)  MDS_READ_FIELD: opening file: xx_hfl.0000000000.004.001.data
(PID.TID 0000.0001)  MDS_READ_FIELD: opening file: xx_hfl.0000000000.005.001.data
(PID.TID 0000.0001)  MDS_READ_FIELD: opening file: xx_hfl.0000000000.006.001.data
(PID.TID 0000.0001) SOLVE_FOR_PRESSURE: putPmEinXvector =    F
 cg2d: Sum(rhs),rhsMax =  -9.43600753089413E-12  4.28440421776334E+00
(PID.TID 0000.0001) // =======================================================
(PID.TID 0000.0001) // Begin MONITOR dynamic field statistics
(PID.TID 0000.0001) // =======================================================
(PID.TID 0000.0001) %MON ad_time_tsnumber             =                 72001
(PID.TID 0000.0001) %MON ad_time_secondsf             =   6.2208864000000E+09
(PID.TID 0000.0001) %MON ad_dynstat_adeta_max         =   0.0000000000000E+00
(PID.TID 0000.0001) %MON ad_dynstat_adeta_min         =   0.0000000000000E+00
(PID.TID 0000.0001) %MON ad_dynstat_adeta_mean        =   0.0000000000000E+00
(PID.TID 0000.0001) %MON ad_dynstat_adeta_sd          =   0.0000000000000E+00
(PID.TID 0000.0001) %MON ad_dynstat_adeta_del2        =   0.0000000000000E+00
(PID.TID 0000.0001) %MON ad_dynstat_aduvel_max        =   8.6010266451487E+02
(PID.TID 0000.0001) %MON ad_dynstat_aduvel_min        =  -6.9872302797257E+02
(PID.TID 0000.0001) %MON ad_dynstat_aduvel_mean       =   7.6074318402539E-01
(PID.TID 0000.0001) %MON ad_dynstat_aduvel_sd         =   1.3059062192389E+01
(PID.TID 0000.0001) %MON ad_dynstat_aduvel_del2       =   1.3961218937297E-01
(PID.TID 0000.0001) %MON ad_dynstat_advvel_max        =   6.6312032338377E+02
(PID.TID 0000.0001) %MON ad_dynstat_advvel_min        =  -3.6883009366323E+02
(PID.TID 0000.0001) %MON ad_dynstat_advvel_mean       =   9.2526023823782E-01
(PID.TID 0000.0001) %MON ad_dynstat_advvel_sd         =   1.2901283802467E+01
(PID.TID 0000.0001) %MON ad_dynstat_advvel_del2       =   1.1760938853365E-01
(PID.TID 0000.0001) %MON ad_dynstat_adwvel_max        =   3.4133605129557E+02
(PID.TID 0000.0001) %MON ad_dynstat_adwvel_min        =  -2.3198848031850E+02
(PID.TID 0000.0001) %MON ad_dynstat_adwvel_mean       =  -9.5688208772532E-03
(PID.TID 0000.0001) %MON ad_dynstat_adwvel_sd         =   4.4590453990354E+00
(PID.TID 0000.0001) %MON ad_dynstat_adwvel_del2       =   5.6258716311029E-02
(PID.TID 0000.0001) %MON ad_dynstat_adtheta_max       =   1.3169671675162E+02
(PID.TID 0000.0001) %MON ad_dynstat_adtheta_min       =  -8.2065750069729E+01
(PID.TID 0000.0001) %MON ad_dynstat_adtheta_mean      =   6.2864141929107E-01
(PID.TID 0000.0001) %MON ad_dynstat_adtheta_sd        =   2.1395023457839E+00
(PID.TID 0000.0001) %MON ad_dynstat_adtheta_del2      =   1.5363368162647E-02
(PID.TID 0000.0001) %MON ad_dynstat_adsalt_max        =   3.9850061640509E+02
(PID.TID 0000.0001) %MON ad_dynstat_adsalt_min        =  -4.0702725404246E+02
(PID.TID 0000.0001) %MON ad_dynstat_adsalt_mean       =  -1.1445945044765E-01
(PID.TID 0000.0001) %MON ad_dynstat_adsalt_sd         =   5.9791017460458E+00
(PID.TID 0000.0001) %MON ad_dynstat_adsalt_del2       =   6.4375373753978E-02
(PID.TID 0000.0001) %MON ad_forcing_adqnet_max        =   0.0000000000000E+00
(PID.TID 0000.0001) %MON ad_forcing_adqnet_min        =   0.0000000000000E+00
(PID.TID 0000.0001) %MON ad_forcing_adqnet_mean       =   0.0000000000000E+00
(PID.TID 0000.0001) %MON ad_forcing_adqnet_sd         =   0.0000000000000E+00
(PID.TID 0000.0001) %MON ad_forcing_adqnet_del2       =   0.0000000000000E+00
(PID.TID 0000.0001) %MON ad_forcing_adqsw_max         =   2.3066113400776E-02
(PID.TID 0000.0001) %MON ad_forcing_adqsw_min         =  -5.5396879780549E-02
(PID.TID 0000.0001) %MON ad_forcing_adqsw_mean        =   3.4649271471200E-04
(PID.TID 0000.0001) %MON ad_forcing_adqsw_sd          =   1.2420821281257E-03
(PID.TID 0000.0001) %MON ad_forcing_adqsw_del2        =   5.0394149880340E-05
(PID.TID 0000.0001) %MON ad_forcing_adempmr_max       =   0.0000000000000E+00
(PID.TID 0000.0001) %MON ad_forcing_adempmr_min       =   0.0000000000000E+00
(PID.TID 0000.0001) %MON ad_forcing_adempmr_mean      =   0.0000000000000E+00
(PID.TID 0000.0001) %MON ad_forcing_adempmr_sd        =   0.0000000000000E+00
(PID.TID 0000.0001) %MON ad_forcing_adempmr_del2      =   0.0000000000000E+00
(PID.TID 0000.0001) %MON ad_forcing_adfu_max          =   0.0000000000000E+00
(PID.TID 0000.0001) %MON ad_forcing_adfu_min          =   0.0000000000000E+00
(PID.TID 0000.0001) %MON ad_forcing_adfu_mean         =   0.0000000000000E+00
(PID.TID 0000.0001) %MON ad_forcing_adfu_sd           =   0.0000000000000E+00
(PID.TID 0000.0001) %MON ad_forcing_adfu_del2         =   0.0000000000000E+00
(PID.TID 0000.0001) %MON ad_forcing_adfv_max          =   0.0000000000000E+00
(PID.TID 0000.0001) %MON ad_forcing_adfv_min          =   0.0000000000000E+00
(PID.TID 0000.0001) %MON ad_forcing_adfv_mean         =   0.0000000000000E+00
(PID.TID 0000.0001) %MON ad_forcing_adfv_sd           =   0.0000000000000E+00
(PID.TID 0000.0001) %MON ad_forcing_adfv_del2         =   0.0000000000000E+00
(PID.TID 0000.0001) %MON ad_advcfl_aduvel_max         =   3.6947265792488E+02
(PID.TID 0000.0001) %MON ad_advcfl_advvel_max         =   2.1233086214585E+02
(PID.TID 0000.0001) %MON ad_advcfl_adwvel_max         =   4.9152391386562E+05
(PID.TID 0000.0001) %MON ad_advcfl_adW_hf_max         =   5.9024086129243E+05
(PID.TID 0000.0001) // =======================================================
(PID.TID 0000.0001) // End MONITOR dynamic field statistics
(PID.TID 0000.0001) // =======================================================
 cg2d: Sum(rhs),rhsMax =  -8.67361737988404E-19  1.11502123092201E-03
(PID.TID 0000.0001)  MDS_READ_FIELD: opening file: adxx_hfl.0000000000.001.001.data
(PID.TID 0000.0001)  MDS_READ_FIELD: opening file: adxx_hfl.0000000000.002.001.data
(PID.TID 0000.0001)  MDS_READ_FIELD: opening file: adxx_hfl.0000000000.003.001.data
(PID.TID 0000.0001)  MDS_READ_FIELD: opening file: adxx_hfl.0000000000.004.001.data
(PID.TID 0000.0001)  MDS_READ_FIELD: opening file: adxx_hfl.0000000000.005.001.data
(PID.TID 0000.0001)  MDS_READ_FIELD: opening file: adxx_hfl.0000000000.006.001.data
(PID.TID 0000.0001)  MDS_READ_FIELD: opening file: adxx_sfl.0000000000.001.001.data
(PID.TID 0000.0001)  MDS_READ_FIELD: opening file: adxx_sfl.0000000000.002.001.data
(PID.TID 0000.0001)  MDS_READ_FIELD: opening file: adxx_sfl.0000000000.003.001.data
(PID.TID 0000.0001)  MDS_READ_FIELD: opening file: adxx_sfl.0000000000.004.001.data
(PID.TID 0000.0001)  MDS_READ_FIELD: opening file: adxx_sfl.0000000000.005.001.data
(PID.TID 0000.0001)  MDS_READ_FIELD: opening file: adxx_sfl.0000000000.006.001.data
(PID.TID 0000.0001)  MDS_READ_FIELD: opening file: adxx_tauv.0000000000.001.001.data
(PID.TID 0000.0001)  MDS_READ_FIELD: opening file: adxx_tauv.0000000000.002.001.data
(PID.TID 0000.0001)  MDS_READ_FIELD: opening file: adxx_tauv.0000000000.003.001.data
(PID.TID 0000.0001)  MDS_READ_FIELD: opening file: adxx_tauv.0000000000.004.001.data
(PID.TID 0000.0001)  MDS_READ_FIELD: opening file: adxx_tauv.0000000000.005.001.data
(PID.TID 0000.0001)  MDS_READ_FIELD: opening file: adxx_tauv.0000000000.006.001.data
(PID.TID 0000.0001)  MDS_READ_FIELD: opening file: adxx_tauu.0000000000.001.001.data
(PID.TID 0000.0001)  MDS_READ_FIELD: opening file: adxx_tauu.0000000000.002.001.data
(PID.TID 0000.0001)  MDS_READ_FIELD: opening file: adxx_tauu.0000000000.003.001.data
(PID.TID 0000.0001)  MDS_READ_FIELD: opening file: adxx_tauu.0000000000.004.001.data
(PID.TID 0000.0001)  MDS_READ_FIELD: opening file: adxx_tauu.0000000000.005.001.data
(PID.TID 0000.0001)  MDS_READ_FIELD: opening file: adxx_tauu.0000000000.006.001.data
(PID.TID 0000.0001) // =======================================================
(PID.TID 0000.0001) // Begin MONITOR dynamic field statistics
(PID.TID 0000.0001) // =======================================================
(PID.TID 0000.0001) %MON ad_time_tsnumber             =                 72000
(PID.TID 0000.0001) %MON ad_time_secondsf             =   6.2208000000000E+09
(PID.TID 0000.0001) %MON ad_dynstat_adeta_max         =   0.0000000000000E+00
(PID.TID 0000.0001) %MON ad_dynstat_adeta_min         =   0.0000000000000E+00
(PID.TID 0000.0001) %MON ad_dynstat_adeta_mean        =   0.0000000000000E+00
(PID.TID 0000.0001) %MON ad_dynstat_adeta_sd          =   0.0000000000000E+00
(PID.TID 0000.0001) %MON ad_dynstat_adeta_del2        =   0.0000000000000E+00
(PID.TID 0000.0001) %MON ad_dynstat_aduvel_max        =   8.2044812547783E+02
(PID.TID 0000.0001) %MON ad_dynstat_aduvel_min        =  -7.3132079205624E+02
(PID.TID 0000.0001) %MON ad_dynstat_aduvel_mean       =   7.9344099773004E-01
(PID.TID 0000.0001) %MON ad_dynstat_aduvel_sd         =   1.3455364122631E+01
(PID.TID 0000.0001) %MON ad_dynstat_aduvel_del2       =   1.4321878116862E-01
(PID.TID 0000.0001) %MON ad_dynstat_advvel_max        =   6.9655536586915E+02
(PID.TID 0000.0001) %MON ad_dynstat_advvel_min        =  -3.8913197246486E+02
(PID.TID 0000.0001) %MON ad_dynstat_advvel_mean       =   1.0219432430632E+00
(PID.TID 0000.0001) %MON ad_dynstat_advvel_sd         =   1.3251339545289E+01
(PID.TID 0000.0001) %MON ad_dynstat_advvel_del2       =   1.2156481034580E-01
(PID.TID 0000.0001) %MON ad_dynstat_adwvel_max        =   1.9878736232214E+02
(PID.TID 0000.0001) %MON ad_dynstat_adwvel_min        =  -1.4157941571290E+02
(PID.TID 0000.0001) %MON ad_dynstat_adwvel_mean       =  -5.4262619325307E-03
(PID.TID 0000.0001) %MON ad_dynstat_adwvel_sd         =   2.6794003869165E+00
(PID.TID 0000.0001) %MON ad_dynstat_adwvel_del2       =   3.3698169389865E-02
(PID.TID 0000.0001) %MON ad_dynstat_adtheta_max       =   1.2943876028897E+02
(PID.TID 0000.0001) %MON ad_dynstat_adtheta_min       =  -7.8334203991706E+01
(PID.TID 0000.0001) %MON ad_dynstat_adtheta_mean      =   6.2916365825160E-01
(PID.TID 0000.0001) %MON ad_dynstat_adtheta_sd        =   2.1515576417996E+00
(PID.TID 0000.0001) %MON ad_dynstat_adtheta_del2      =   1.5187733078690E-02
(PID.TID 0000.0001) %MON ad_dynstat_adsalt_max        =   3.8685013280952E+02
(PID.TID 0000.0001) %MON ad_dynstat_adsalt_min        =  -3.9985073207080E+02
(PID.TID 0000.0001) %MON ad_dynstat_adsalt_mean       =  -1.1868541039667E-01
(PID.TID 0000.0001) %MON ad_dynstat_adsalt_sd         =   6.1440313258326E+00
(PID.TID 0000.0001) %MON ad_dynstat_adsalt_del2       =   6.3739916542439E-02
(PID.TID 0000.0001) %MON ad_forcing_adqnet_max        =   0.0000000000000E+00
(PID.TID 0000.0001) %MON ad_forcing_adqnet_min        =   0.0000000000000E+00
(PID.TID 0000.0001) %MON ad_forcing_adqnet_mean       =   0.0000000000000E+00
(PID.TID 0000.0001) %MON ad_forcing_adqnet_sd         =   0.0000000000000E+00
(PID.TID 0000.0001) %MON ad_forcing_adqnet_del2       =   0.0000000000000E+00
(PID.TID 0000.0001) %MON ad_forcing_adqsw_max         =   2.4186615728472E-02
(PID.TID 0000.0001) %MON ad_forcing_adqsw_min         =  -5.7655585681804E-02
(PID.TID 0000.0001) %MON ad_forcing_adqsw_mean        =   3.6319539929038E-04
(PID.TID 0000.0001) %MON ad_forcing_adqsw_sd          =   1.2968565825105E-03
(PID.TID 0000.0001) %MON ad_forcing_adqsw_del2        =   5.2445483448537E-05
(PID.TID 0000.0001) %MON ad_forcing_adempmr_max       =   0.0000000000000E+00
(PID.TID 0000.0001) %MON ad_forcing_adempmr_min       =   0.0000000000000E+00
(PID.TID 0000.0001) %MON ad_forcing_adempmr_mean      =   0.0000000000000E+00
(PID.TID 0000.0001) %MON ad_forcing_adempmr_sd        =   0.0000000000000E+00
(PID.TID 0000.0001) %MON ad_forcing_adempmr_del2      =   0.0000000000000E+00
(PID.TID 0000.0001) %MON ad_forcing_adfu_max          =   0.0000000000000E+00
(PID.TID 0000.0001) %MON ad_forcing_adfu_min          =   0.0000000000000E+00
(PID.TID 0000.0001) %MON ad_forcing_adfu_mean         =   0.0000000000000E+00
(PID.TID 0000.0001) %MON ad_forcing_adfu_sd           =   0.0000000000000E+00
(PID.TID 0000.0001) %MON ad_forcing_adfu_del2         =   0.0000000000000E+00
(PID.TID 0000.0001) %MON ad_forcing_adfv_max          =   0.0000000000000E+00
(PID.TID 0000.0001) %MON ad_forcing_adfv_min          =   0.0000000000000E+00
(PID.TID 0000.0001) %MON ad_forcing_adfv_mean         =   0.0000000000000E+00
(PID.TID 0000.0001) %MON ad_forcing_adfv_sd           =   0.0000000000000E+00
(PID.TID 0000.0001) %MON ad_forcing_adfv_del2         =   0.0000000000000E+00
(PID.TID 0000.0001) %MON ad_advcfl_aduvel_max         =   3.5243833337124E+02
(PID.TID 0000.0001) %MON ad_advcfl_advvel_max         =   2.2303674936791E+02
(PID.TID 0000.0001) %MON ad_advcfl_adwvel_max         =   2.8625380174389E+05
(PID.TID 0000.0001) %MON ad_advcfl_adW_hf_max         =   3.4374359430334E+05
(PID.TID 0000.0001) // =======================================================
(PID.TID 0000.0001) // End MONITOR dynamic field statistics
(PID.TID 0000.0001) // =======================================================
(PID.TID 0000.0001)  MDS_READ_FIELD: opening file: xx_theta.0000000000.001.001.data
(PID.TID 0000.0001)  MDS_READ_FIELD: opening file: xx_theta.0000000000.002.001.data
(PID.TID 0000.0001)  MDS_READ_FIELD: opening file: xx_theta.0000000000.003.001.data
(PID.TID 0000.0001)  MDS_READ_FIELD: opening file: xx_theta.0000000000.004.001.data
(PID.TID 0000.0001)  MDS_READ_FIELD: opening file: xx_theta.0000000000.005.001.data
(PID.TID 0000.0001)  MDS_READ_FIELD: opening file: xx_theta.0000000000.006.001.data
(PID.TID 0000.0001)  MDS_READ_FIELD: opening file: adxx_diffkr.0000000000.001.001.data
(PID.TID 0000.0001)  MDS_READ_FIELD: opening file: adxx_diffkr.0000000000.002.001.data
(PID.TID 0000.0001)  MDS_READ_FIELD: opening file: adxx_diffkr.0000000000.003.001.data
(PID.TID 0000.0001)  MDS_READ_FIELD: opening file: adxx_diffkr.0000000000.004.001.data
(PID.TID 0000.0001)  MDS_READ_FIELD: opening file: adxx_diffkr.0000000000.005.001.data
(PID.TID 0000.0001)  MDS_READ_FIELD: opening file: adxx_diffkr.0000000000.006.001.data
(PID.TID 0000.0001)  MDS_READ_FIELD: opening file: adxx_salt.0000000000.001.001.data
(PID.TID 0000.0001)  MDS_READ_FIELD: opening file: adxx_salt.0000000000.002.001.data
(PID.TID 0000.0001)  MDS_READ_FIELD: opening file: adxx_salt.0000000000.003.001.data
(PID.TID 0000.0001)  MDS_READ_FIELD: opening file: adxx_salt.0000000000.004.001.data
(PID.TID 0000.0001)  MDS_READ_FIELD: opening file: adxx_salt.0000000000.005.001.data
(PID.TID 0000.0001)  MDS_READ_FIELD: opening file: adxx_salt.0000000000.006.001.data
(PID.TID 0000.0001)  MDS_READ_FIELD: opening file: adxx_theta.0000000000.001.001.data
(PID.TID 0000.0001)  MDS_READ_FIELD: opening file: adxx_theta.0000000000.002.001.data
(PID.TID 0000.0001)  MDS_READ_FIELD: opening file: adxx_theta.0000000000.003.001.data
(PID.TID 0000.0001)  MDS_READ_FIELD: opening file: adxx_theta.0000000000.004.001.data
(PID.TID 0000.0001)  MDS_READ_FIELD: opening file: adxx_theta.0000000000.005.001.data
(PID.TID 0000.0001)  MDS_READ_FIELD: opening file: adxx_theta.0000000000.006.001.data
 ph-check entering grdchk_main 
 ph-check fcref =   101217.626
grad-res -------------------------------
 grad-res  proc    #    i    j    k   bi   bj iobc               fc ref           fc + eps           fc - eps
 grad-res  proc    #    i    j    k   bi   bj iobc             adj grad            fd grad         1 - fd/adj
 ph-grd -->hit<--  1 1 1 1
(PID.TID 0000.0001)  MDS_READ_FIELD: opening file: adxx_theta.0000000000.001.001.data
(PID.TID 0000.0001)  MDS_READ_FIELD: opening file: adxx_theta.0000000000.002.001.data
(PID.TID 0000.0001)  MDS_READ_FIELD: opening file: adxx_theta.0000000000.003.001.data
(PID.TID 0000.0001)  MDS_READ_FIELD: opening file: adxx_theta.0000000000.004.001.data
(PID.TID 0000.0001)  MDS_READ_FIELD: opening file: adxx_theta.0000000000.005.001.data
(PID.TID 0000.0001)  MDS_READ_FIELD: opening file: adxx_theta.0000000000.006.001.data
(PID.TID 0000.0001)  MDS_READ_FIELD: opening file: xx_theta.0000000000.001.001.data
(PID.TID 0000.0001)  MDS_READ_FIELD: opening file: xx_theta.0000000000.002.001.data
(PID.TID 0000.0001)  MDS_READ_FIELD: opening file: xx_theta.0000000000.003.001.data
(PID.TID 0000.0001)  MDS_READ_FIELD: opening file: xx_theta.0000000000.004.001.data
(PID.TID 0000.0001)  MDS_READ_FIELD: opening file: xx_theta.0000000000.005.001.data
(PID.TID 0000.0001)  MDS_READ_FIELD: opening file: xx_theta.0000000000.006.001.data
(PID.TID 0000.0001)  MDS_READ_FIELD: opening global file: bathy_Hmin50.bin
(PID.TID 0000.0001) // =======================================================
(PID.TID 0000.0001) // Field Model R_low (ini_masks_etc) at iteration          1
(PID.TID 0000.0001) // CMIN =         -5.200000000000000E+03
(PID.TID 0000.0001) // CMAX =         -5.000000000000000E+01
(PID.TID 0000.0001) // CINT =          1.907407407407407E+02
(PID.TID 0000.0001) // SYMBOLS (CMIN->CMAX): -abcdefghijklmnopqrstuvwxyz+
(PID.TID 0000.0001) //                  0.0: .
(PID.TID 0000.0001) // RANGE I (Lo:Hi:Step):(    -3:   196:     1)
(PID.TID 0000.0001) // RANGE J (Lo:Hi:Step):(    36:    -3:    -1)
(PID.TID 0000.0001) // RANGE K (Lo:Hi:Step):(   1:   1:   1)
(PID.TID 0000.0001) // =======================================================
(PID.TID 0000.0001) K =   1
(PID.TID 0000.0001) //                I=6       I=16      I=26      I=36      I=38      I=48      I=58      I=68      I=70      I=80      I=90      I=100     I=102     I=112     I=122     I=132     I=134     I=144     I=154     I=164     I=166     I=176     I=186     I=196
(PID.TID 0000.0001) // |--J--|321012345|789012345|789012345|789012345|901234567|901234567|901234567|901234567|123456789|123456789|123456789|123456789|345678901|345678901|345678901|345678901|567890123|567890123|567890123|567890123|789012345|789012345|789012345|789012345|
(PID.TID 0000.0001) //     36 cbbc-ddcbcdehkhhmn..++..................................................okn.skko--a-fc----bba-cp.............tfeecccbbdeecccbbdeddedcdcccdddcddffggghiggfffdeeffijlihjlica---a--cgffel.+edfgeedflcbahgfllcbahgfllfhdffhkfffca-aady...llnabdoa--a
(PID.TID 0000.0001) //     35 dcac--cbbeefjkfefw+..........zpu........................................kqnzrqqk--b-da----bbbbfu..............fdddccaadcddccaadcdddcbbbbcdddcccdffffghgffffddefflligfiljfba---aafddehy...pwvlhfffcbagfccfcbagfcceeffffjlkjgaa---bfvheeln-aesaaab
(PID.TID 0000.0001) //     34 d--ba-abcehjnldcclz+........spps.......................................vkqn+xnnncabbcbba--aabfu+..............hcbaaaaaccbaaaaaccdccbaaabbddddccdffffghfeeeeedeffjiffefilhfcaaaacgceei.......zomggfcaecbbgfcaecbbccddefilihecbaacbaajfega-aesfeed
(PID.TID 0000.0001) //     33 --abbbccceiomkfdbbc+.......+s..........................................xsrxzz+z.fdcddb-----adu+...............hcbaa--accbaa--accddba--bbbddddccdfffhhgfeeddcceddhfeddfgikhfffdfgccffw........zohhgebbaaahgebbaaaaaccdfhlhfefdcccaabjefbaaafoosso
(PID.TID 0000.0001) //     32 --bddefhhkqqlgfaakqz..v.+..+.........................................++..u+....zigfdba----adu+................kdcaaa-acccaaa-accdcb---bbbcdddddefffggfeeedcccccbccbbdcdfgghhiihcbeiw.........+ynjgebaaaajgebaaaa-aacccfikkhecccbbbaaabaadfklnqpp
(PID.TID 0000.0001) //     31 abbcffijnpnqneaaat..umrr+s.z.........................................+++++.ztsvdlifeb--dfdfu+................+lkdca--abcdca--abcccb---bbbbddddeffflhfeeeecbbbbaaba-abbacbcdceffbbfw+..........++ujfbaaa-ujfbaaa----aacffiljgfffcca--adfikkiihhhf
(PID.TID 0000.0001) //     30 --adgillkkkifcadcx.ymmqzqikvnnps.....................................+++++wmegt-jlifcacdlqx+++...............mligea---abgea---abbbb---abaaddddeedkmeddefdbbbaaaabc---b--aaaaabaabm..............+viba---+viba-------acdefinmlgiieb-chnnnmlmlgffc
(PID.TID 0000.0001) //     29 --cfiljigfjd--efdozy...+ximpnnuz......................................+++yqddhp-iljhcbbchz+......++.........+mmhffc----affc----aaba------acdddcbcineddgdbaaa----cdd--a------aa-bfz...............+qe---a.+qe---aa---aedeegknmlgiigcdfhpokkimlfdb
(PID.TID 0000.0001) //     28 -abgkhfcccea-bdei........t............................................++zwgfcfk-gknhccbbhwwy.....+++........+njfeed-----eed-----aa-------abddcabcnfddegcaaa-----hlf------------dk+................+ja---..+ja------bffdddehfd--bedaacfhpnligiihd
(PID.TID 0000.0001) //     27 -acghfbaaaa-achmy......................+.......+++....................++vnbbbclefkpkeeecflmqxy....++........+lhfeecc----eecc------------aaadcbabcfhddccba-------zqd-----------irw.................++e---..++e-----mhmijddda--------ahhfiokhedegg
(PID.TID 0000.0001) //     26 -adhfca-----bfiv.......................+.......++sy...................+tq-fdbblcjknqiheddefhiksz++++........zkhfdccb----dccb------------aabdcaaaacfddbca-------a+xfa-abb-----vvv...................+wa--...+wa---mlmkijhc----------cjjffiheb-aad
(PID.TID 0000.0001) //     25 -achfa------ch+..................w.......w.......njo+................+x-----bcgidiqqojfefiiiijmy.++.........zkhfdbaa----dbaa-------daa---acccaaaacccca--------ac.+udaabbb----tei...................++qde...++qdeqnghiljcaaaaidaa----beedeeca--bb
(PID.TID 0000.0001) //     24 aaeifa--acbcei...................w.......w.......likn+.....++.....++znpa----bbdi-fnlmnjhinlksssw............qhfeca------ca--------addc--aeffaaaaaaccb-a----a--bd.++udbbaba---ven....................++xy....++xywnfgllcbbabegkecba----ddddcaacdc
(PID.TID 0000.0001) //     23 abfida-aabchjk...................zz......zz.....nhhijz....tqq.....+ujgzgd---abci-cegklkkknols..xuu..........zgfdba------ba--------bcd---affaaadffabbb-----aa-bcc.+.+ufb-----l.gx...........s.........++z.....++zzkfilfccccoz..ulkcd---bccnfddddd
(PID.TID 0000.0001) //     22 -afhfaa---bfgi....................zz..rn..zz..rnjffggm...nlmn+....+sffzya--aabcieaaffdfhimrmp...yuu.++.......zudba------ba--------adc---dda-adffe-aa--------aaac....+ufc-baaqvhh..........dcfeeh......++......++zggqvifefhz......zobbaccfwuffeee
(PID.TID 0000.0001) //     21 babcgca----abe.....................ysstl...ysstlgeeeeoz..ijklt+....lfjzzf---adfcfdaadcehllotq....yy+++zzs.....+zcba-----cba-------cdd--aaa----df------------aaac.....+upjdcy.vohq.......+idcdfeeefwz....efwz....+hhn.vklox.........gdccfjwrigffh
(PID.TID 0000.0001) //     20 fbbbcgfcaa-aae+.......................lc......lcgfdddhq.+hiilnz++.+oquxyz--adgkfdcaabcfmtooyxz......+yuiiy....++gb------gb--------ddcca-a-----acbaa------bbaaaab........ywxy.lulo.lv...kcdgddffefffilyx+fffilyx+fffk.+xyyy.........mgeimvskjklll
(PID.TID 0000.0001) //     19 zmfeccdghfeegcbt......................aa......aafifccgnrzgghjry.+++sr+lq.--edfkkoxtkblwnnsp.vv......skhggt...+++t-------t---------bdaf---------edd-------adlaaaa+..........vnhzy.tllqiedccdhggfggffiiggfgffiiggfcbdgy..yz..........xigqophijkkii
(PID.TID 0000.0001) //     18 ..wifedfkhfegbbcivlqfoz..............jaa.....jaacfihggokeeffgt..++++..hhlfdeddkez..qcz+.zwxtsttz..ysrkhot++++++zig------ig--------b--f---------egqqqaa----frb---+........+kkrhw.vqmlnieddcdehgggffgigedbffgigedbaaceiy.............zilrddefikkhh
(PID.TID 0000.0001) //     17 ..+wfeefikhgcbbccaaacgn.............icaa....icaaccfihfoedddeedy..++...nnqwgfeekeyy.z++..+zsjjllllljllpjos+++.+zhhi-----ehi-----e-----ea--------foqqoqqo--hlwgea-.........+nk+..xiioonhfefddegihhghigfdbaghigfdbaaabdgx..............nheddefiklhg
(PID.TID 0000.0001) //     16 ....wiheddeccdfhfbabdfl............jdbad...jdbaddddgifkccccdccd+.++..++ynvz.tkkq.mu....++zyslllllkhggkmpy++...ihhi-----ehi-----ea---feb-----a-acnoohfghknvmwnuca..........qhu..hhhkojgffgeefghihhiieedbahiieedbaaabcdy..............ygddeghiljgf
(PID.TID 0000.0001) //     15 ......ylea--acfihebcbbes..........sfcbbn..sfcbbngfffigcaaabdbcac+.+++++zgmpx...y.mm....++..zslwz.yhhhhnz+++...rhgc----abgc----ab----ige----acaaalllkddfiy..yswxb..........thk.xgghiligfghfefhhhhiiheedcdiiheedcdbbabdmz.............zfdeghikkifd
(PID.TID 0000.0001) //     14 ........c---acgkhdcc--di..........ofddch..ofddchohffikaaaaabaaa-aw+.+ysnggox++...qrv..........yzzzzrjil+++....qhgd-----agd-----a-----i---cccdeabkklldinqssy..xxv...........+y.uhghikihgfghefgihhhgeeeeedhgeeeeeddbaadhw.............nedeghjjhfed
(PID.TID 0000.0001) //     13 .......+b----cfkhec---afz.........nhfdff..nhfdffholghkaaaaaba-a---flkkuswyy++++y+zr...........zzzzz++ry++......yd-------d--------------aeecdeidfkkqnqlmqquukqqmf..............iihiijjhfefgefhjihiffgggffiffgggffecaabelx...........zjecehijhfecc
(PID.TID 0000.0001) //     12 .......ec----chjhec---ag..........skiqdd..skiqddeiiiifaaabae--a---dd--iu+++.+++sxq++..........+z+++++.+++....++.s-------s------------a-ceccdejhlllkqlkklssiccdee.............wjkkkjjjigeefffgjiiighiiihhighiiihhhdaabdffghtxx......mfccehjiffdb-
(PID.TID 0000.0001) //     11 ......pdca--achlheba--ai..........nkn.fd..nkn.fdemijidaaaabi-------a--q+....++.ziis...........+++++..........+yyza----b-za----b-----a--ccccddkhieekkossssfbbbbcd............njjijhhihijhgggggjjjjijkkkkjjijkkkkjjhcaacddeegpy.....xfdccdhjgfdda-
(PID.TID 0000.0001) //     10 ......wfdb--achlhea---an.........uos..dc.uos..dcemikkfdcaabi-------equ+.........mk...........................zyvuq----ccuq----cc----a---dcfhkopqjeissrnpfbbcccde..........zslihhigghgijjihhhhkllkkkkkkjkkkkkkkjkkkedccdeeeeipz..zwhccbcdhgfddcam
(PID.TID 0000.0001) //      9 ......vgec---bfikca--cjl+.......+nnv.+cc+nnv.+ccffhkkiddaadha-----as++..........pvz++........................zxuuk------uk------a---a----djmqrrnlllsoiddcccccdjf.........+zjijhfgfggffhjkkkiillljihhghgijihhghgihighdeeffgghimnnjgecbbcdgfeccbas
(PID.TID 0000.0001) //      8 .....zleca---afjfca--hdfz.......vkky.jcevkky.jceddefijffdddhb--a-afv............nn..ss.........................+yku-----yku--------------ejnpqqnninnritqdccchkmf+.......wihgghgeffffeefhijkjkljiigeeffefigeeffefffhjhhikkklljklmhffeeeggfdcbaay.
(PID.TID 0000.0001) //      7 ...+zohec--abcfkhecbchbdx.......qiht.faaqiht.faaaabdgijgfededcdcb-f+............nn...pz.........................+zu-----+zu--------------edefqgqddsz+......+yuddmm+....tiggfggfeeeefeeefiiiijkiihhedddddhheddddddddjjllliijhfkmmkkjjhijgdcba--q.
(PID.TID 0000.0001) //      6 ..+yomfddcaabefkifdchaadt......uqdeisc--qdeisc----dfefgifffkklldc--v............up...pp.........................v.x-----v.x---------a----fbbpqgzenx+........zdbcmllkhhfffffffgfeeeeeeeefhhhhijihhffddcbbhffddcbbbbdhhiihedddb-cfhhhjjjieca----+.
(PID.TID 0000.0001) //      5 ..+nhgffkghccfhkhffgdaackz....uoibcimlaaibcimlaaacfbddfjjhijeehf-a-c............zs...su.........................qk.yi---qk.yi-------gha-fjddqs+xkrz.........q-bchikdccdeeeeeeedddedddddgghhhhjhhgffcbbaagffcbbaaaaddfegecca----dfeefhfgdb-----+.
(PID.TID 0000.0001) //      4 .+ujhgfllfhdffhkfffca-aady...llnabdopfcbabdopfcbdgdbcdehlihgfddc--ms............................................okn.zd--okn.zd---eciiiicfkeeqy.ysz..........n-aafgdcbbdeddedcdcccdddcddffggghiggfffdbaa-fffdbaa---acdcccba--abvfedeffdcca----b+.
(PID.TID 0000.0001) //      3 +vjggfcceeffffjlkjgaa---bfvheeln-aesphfd-aesphfdhgabddeflihhgfecbaaayq+++++.....................................kqnz.vtpkqnz.vtpkllgdccfkkkkk..++..........+g---fecaaadcdddcbbbbcdddcccdffffghgffffdcaa-fffdcaa----abcaaaa-acxxmecdjmdbba----r+.
(PID.TID 0000.0001) //      2 qifeecbbccddefilihecbaacbaajfega-aesqhff-aesqhffiea-cdeflkkljifeddcba---bry+...................................vkqn+.sghkqn+.sghfcbcbbbdgfdek.++++.........+l---caaaaaccdccbaaabbddddccdffffghfeeeeecba-eeeecba------baaaa-euwxqdbcdkud-----sy+.
(PID.TID 0000.0001) //      1 ebbbbaaaaaccdfhlhfefdcccaabjefbaaafonhglaafonhglid--adfgkkkklkhffddca-----s++++................................xsrxz.tedsrxz.tedcbbbbaaadddet.++++.........+l------a-accddba--bbbddddccdfffhhgfeeddccba-eddccba-------aaaabgns.qcbcchyzqngll++..
(PID.TID 0000.0001) //      0 -aaaaaaa-aacccfikkhecccbbbaaabaadfkllilmdfkllilmgebaadfijjiiikjhffdcba-----lllgn.............................++..u+..zmd.u+..zmdfbd---a-aeef.xx+..........+++s-------accdcb---bbbcdddddefffggfeeedcccbbaedcccbba----aa--alrwwy.kcbccc+...++++...
(PID.TID 0000.0001) //     -1 --aaaaa----aacffiljgfffcca--adfikkiikimikkiikimiiheccfurkiffhijjigfecb-----l----.............................+++++.z+.wq++.z+.wqgbf-------dgzpoy+........+ys+yrb--aa-abcccb---bbbbddddeffflhfeeeecbbcbbaecbbcbbaa----a--bdflm.yuibbcc.......+...
(PID.TID 0000.0001) //     -2 --aaa-------acdefinmlgiieb-chnnnmlmlfklkmlmlfklklkhednwwsheeghhijjgfdca----g---a.............................+++++wmu++y++wmu++ywn--------fwvmgy+........+r-.+++-abc--abbbb---abaaddddeedkmeddefdbbbdcbadbbbdcbaa-------ba-hv.susfbcc.......+...
(PID.TID 0000.0001) //     -3 a--a---aa---aedeegknmlgiigcdfhpokkimdkmkkkimdkmknoiedcfjvpddegghhhhgfdcbaa-n---a..............................+++yqd.++++yqd.+++zvq--dafz.lqnggw+........+b-....abcc---aaba------acdddcbcineddgdbaaaeedbbaaaeedbaa----------nysqssfcd...........
(PID.TID 0000.0001) // =======================================================
(PID.TID 0000.0001) // END OF FIELD                                          =
(PID.TID 0000.0001) // =======================================================
(PID.TID 0000.0001) 
(PID.TID 0000.0001) // =======================================================
(PID.TID 0000.0001) // Field Model Ro_surf (ini_masks_etc) at iteration          1
(PID.TID 0000.0001) // CMIN =         -7.105427357601002E-15
(PID.TID 0000.0001) // CMAX =         -7.105427357601002E-15
(PID.TID 0000.0001) // CINT =          0.000000000000000E+00
(PID.TID 0000.0001) // SYMBOLS (CMIN->CMAX): -abcdefghijklmnopqrstuvwxyz+
(PID.TID 0000.0001) //                  0.0: .
(PID.TID 0000.0001) // RANGE I (Lo:Hi:Step):(    -3:   196:     1)
(PID.TID 0000.0001) // RANGE J (Lo:Hi:Step):(    36:    -3:    -1)
(PID.TID 0000.0001) // RANGE K (Lo:Hi:Step):(   1:   1:   1)
(PID.TID 0000.0001) // =======================================================
(PID.TID 0000.0001) // =======================================================
(PID.TID 0000.0001) // END OF FIELD                                          =
(PID.TID 0000.0001) // =======================================================
(PID.TID 0000.0001) 
(PID.TID 0000.0001) // =======================================================
(PID.TID 0000.0001) // Field hFacC at iteration          1
(PID.TID 0000.0001) // CMIN =          1.000000000000000E+00
(PID.TID 0000.0001) // CMAX =          1.000000000000000E+00
(PID.TID 0000.0001) // CINT =          0.000000000000000E+00
(PID.TID 0000.0001) // SYMBOLS (CMIN->CMAX): -abcdefghijklmnopqrstuvwxyz+
(PID.TID 0000.0001) //                  0.0: .
(PID.TID 0000.0001) // RANGE I (Lo:Hi:Step):(    -3:   196:     1)
(PID.TID 0000.0001) // RANGE J (Lo:Hi:Step):(    36:    -3:    -1)
(PID.TID 0000.0001) // RANGE K (Lo:Hi:Step):(   1:   1:   1)
(PID.TID 0000.0001) // =======================================================
(PID.TID 0000.0001) // =======================================================
(PID.TID 0000.0001) // END OF FIELD                                          =
(PID.TID 0000.0001) // =======================================================
(PID.TID 0000.0001) 
(PID.TID 0000.0001) // =======================================================
(PID.TID 0000.0001) // Field hFacW at iteration          1
(PID.TID 0000.0001) // CMIN =          1.000000000000000E+00
(PID.TID 0000.0001) // CMAX =          1.000000000000000E+00
(PID.TID 0000.0001) // CINT =          0.000000000000000E+00
(PID.TID 0000.0001) // SYMBOLS (CMIN->CMAX): -abcdefghijklmnopqrstuvwxyz+
(PID.TID 0000.0001) //                  0.0: .
(PID.TID 0000.0001) // RANGE I (Lo:Hi:Step):(    -3:   196:     1)
(PID.TID 0000.0001) // RANGE J (Lo:Hi:Step):(    36:    -3:    -1)
(PID.TID 0000.0001) // RANGE K (Lo:Hi:Step):(   1:   1:   1)
(PID.TID 0000.0001) // =======================================================
(PID.TID 0000.0001) // =======================================================
(PID.TID 0000.0001) // END OF FIELD                                          =
(PID.TID 0000.0001) // =======================================================
(PID.TID 0000.0001) 
(PID.TID 0000.0001) // =======================================================
(PID.TID 0000.0001) // Field hFacS at iteration          1
(PID.TID 0000.0001) // CMIN =          1.000000000000000E+00
(PID.TID 0000.0001) // CMAX =          1.000000000000000E+00
(PID.TID 0000.0001) // CINT =          0.000000000000000E+00
(PID.TID 0000.0001) // SYMBOLS (CMIN->CMAX): -abcdefghijklmnopqrstuvwxyz+
(PID.TID 0000.0001) //                  0.0: .
(PID.TID 0000.0001) // RANGE I (Lo:Hi:Step):(    -3:   196:     1)
(PID.TID 0000.0001) // RANGE J (Lo:Hi:Step):(    36:    -3:    -1)
(PID.TID 0000.0001) // RANGE K (Lo:Hi:Step):(   1:   1:   1)
(PID.TID 0000.0001) // =======================================================
(PID.TID 0000.0001) // =======================================================
(PID.TID 0000.0001) // END OF FIELD                                          =
(PID.TID 0000.0001) // =======================================================
(PID.TID 0000.0001) 
(PID.TID 0000.0001) INI_CG2D: CG2D normalisation factor =  1.9156564154949553E-04
(PID.TID 0000.0001) INI_CG2D: cg2dTolerance = 5.809016360175293E-07 (Area=3.6388673751E+14)
(PID.TID 0000.0001) 
(PID.TID 0000.0001)  MDS_READ_META: opening file: pickup.0000072000.meta
(PID.TID 0000.0001)  nRecords = 123 ; filePrec =  64 ; fileIter =     72000
(PID.TID 0000.0001)     nDims =   2 , dims:
(PID.TID 0000.0001)    1: 192   1 192
(PID.TID 0000.0001)    2:  32   1  32
(PID.TID 0000.0001)     nFlds =  11 , nFl3D =   8 , fields:
(PID.TID 0000.0001)  >Uvel    < >GuNm1   < >Vvel    < >GvNm1   < >Theta   < >GtNm1   < >Salt    < >GsNm1   < >EtaN    < >dEtaHdt < >EtaH    <
(PID.TID 0000.0001)   nTimRec =   0 , timeList:
(PID.TID 0000.0001) READ_MFLDS_3D_RL: read field: "Uvel    ", #   1 in fldList, rec=   1
(PID.TID 0000.0001)  MDS_READ_FIELD: opening global file: pickup.0000072000
(PID.TID 0000.0001) READ_MFLDS_3D_RL: read field: "Vvel    ", #   3 in fldList, rec=   3
(PID.TID 0000.0001)  MDS_READ_FIELD: opening global file: pickup.0000072000
(PID.TID 0000.0001) READ_MFLDS_3D_RL: read field: "Theta   ", #   5 in fldList, rec=   5
(PID.TID 0000.0001)  MDS_READ_FIELD: opening global file: pickup.0000072000
(PID.TID 0000.0001) READ_MFLDS_3D_RL: read field: "Salt    ", #   7 in fldList, rec=   7
(PID.TID 0000.0001)  MDS_READ_FIELD: opening global file: pickup.0000072000
(PID.TID 0000.0001) READ_MFLDS_3D_RL: read field: "GuNm1   ", #   2 in fldList, rec=   2
(PID.TID 0000.0001)  MDS_READ_FIELD: opening global file: pickup.0000072000
(PID.TID 0000.0001) READ_MFLDS_3D_RL: field: "GuNm2   " missing in file: pickup.0000072000
(PID.TID 0000.0001) READ_MFLDS_3D_RL: read field: "GvNm1   ", #   4 in fldList, rec=   4
(PID.TID 0000.0001)  MDS_READ_FIELD: opening global file: pickup.0000072000
(PID.TID 0000.0001) READ_MFLDS_3D_RL: field: "GvNm2   " missing in file: pickup.0000072000
(PID.TID 0000.0001) READ_MFLDS_3D_RL: read field: "EtaN    ", #   9 in fldList, rec= 121
(PID.TID 0000.0001)  MDS_READ_FIELD: opening global file: pickup.0000072000
(PID.TID 0000.0001) READ_MFLDS_3D_RL: read field: "dEtaHdt ", #  10 in fldList, rec= 122
(PID.TID 0000.0001)  MDS_READ_FIELD: opening global file: pickup.0000072000
(PID.TID 0000.0001) READ_MFLDS_3D_RL: read field: "EtaH    ", #  11 in fldList, rec= 123
(PID.TID 0000.0001)  MDS_READ_FIELD: opening global file: pickup.0000072000
(PID.TID 0000.0001)  MDS_READ_FIELD: opening global file: trenberth_taux.bin
(PID.TID 0000.0001)  MDS_READ_FIELD: opening global file: trenberth_tauy.bin
(PID.TID 0000.0001)  MDS_READ_FIELD: opening global file: shiQnet_cs32.bin
(PID.TID 0000.0001)  MDS_READ_FIELD: opening global file: shiEmPR_cs32.bin
(PID.TID 0000.0001)  MDS_READ_FIELD: opening global file: lev_surfT_cs_12m.bin
(PID.TID 0000.0001)  MDS_READ_FIELD: opening global file: lev_surfS_cs_12m.bin
(PID.TID 0000.0001)  MDS_READ_FIELD: opening file: xx_theta.0000000000.001.001.data
(PID.TID 0000.0001)  MDS_READ_FIELD: opening file: xx_theta.0000000000.002.001.data
(PID.TID 0000.0001)  MDS_READ_FIELD: opening file: xx_theta.0000000000.003.001.data
(PID.TID 0000.0001)  MDS_READ_FIELD: opening file: xx_theta.0000000000.004.001.data
(PID.TID 0000.0001)  MDS_READ_FIELD: opening file: xx_theta.0000000000.005.001.data
(PID.TID 0000.0001)  MDS_READ_FIELD: opening file: xx_theta.0000000000.006.001.data
(PID.TID 0000.0001)  MDS_READ_FIELD: opening file: xx_salt.0000000000.001.001.data
(PID.TID 0000.0001)  MDS_READ_FIELD: opening file: xx_salt.0000000000.002.001.data
(PID.TID 0000.0001)  MDS_READ_FIELD: opening file: xx_salt.0000000000.003.001.data
(PID.TID 0000.0001)  MDS_READ_FIELD: opening file: xx_salt.0000000000.004.001.data
(PID.TID 0000.0001)  MDS_READ_FIELD: opening file: xx_salt.0000000000.005.001.data
(PID.TID 0000.0001)  MDS_READ_FIELD: opening file: xx_salt.0000000000.006.001.data
(PID.TID 0000.0001)  MDS_READ_FIELD: opening file: xx_diffkr.0000000000.001.001.data
(PID.TID 0000.0001)  MDS_READ_FIELD: opening file: xx_diffkr.0000000000.002.001.data
(PID.TID 0000.0001)  MDS_READ_FIELD: opening file: xx_diffkr.0000000000.003.001.data
(PID.TID 0000.0001)  MDS_READ_FIELD: opening file: xx_diffkr.0000000000.004.001.data
(PID.TID 0000.0001)  MDS_READ_FIELD: opening file: xx_diffkr.0000000000.005.001.data
(PID.TID 0000.0001)  MDS_READ_FIELD: opening file: xx_diffkr.0000000000.006.001.data
(PID.TID 0000.0001) // =======================================================
(PID.TID 0000.0001) // Model current state
(PID.TID 0000.0001) // =======================================================
(PID.TID 0000.0001) 
S/R EXTERNAL_FIELDS_LOAD: Reading new data:   12    1     72000  6.220800000000E+09
(PID.TID 0000.0001)  MDS_READ_FIELD: opening global file: trenberth_taux.bin
(PID.TID 0000.0001)  MDS_READ_FIELD: opening global file: trenberth_taux.bin
(PID.TID 0000.0001)  MDS_READ_FIELD: opening global file: trenberth_tauy.bin
(PID.TID 0000.0001)  MDS_READ_FIELD: opening global file: trenberth_tauy.bin
(PID.TID 0000.0001)  MDS_READ_FIELD: opening global file: shiQnet_cs32.bin
(PID.TID 0000.0001)  MDS_READ_FIELD: opening global file: shiQnet_cs32.bin
(PID.TID 0000.0001)  MDS_READ_FIELD: opening global file: shiEmPR_cs32.bin
(PID.TID 0000.0001)  MDS_READ_FIELD: opening global file: shiEmPR_cs32.bin
(PID.TID 0000.0001)  MDS_READ_FIELD: opening global file: lev_surfT_cs_12m.bin
(PID.TID 0000.0001)  MDS_READ_FIELD: opening global file: lev_surfT_cs_12m.bin
(PID.TID 0000.0001)  MDS_READ_FIELD: opening global file: lev_surfS_cs_12m.bin
(PID.TID 0000.0001)  MDS_READ_FIELD: opening global file: lev_surfS_cs_12m.bin
(PID.TID 0000.0001)  MDS_READ_FIELD: opening file: xx_tauu.0000000000.001.001.data
(PID.TID 0000.0001)  MDS_READ_FIELD: opening file: xx_tauu.0000000000.002.001.data
(PID.TID 0000.0001)  MDS_READ_FIELD: opening file: xx_tauu.0000000000.003.001.data
(PID.TID 0000.0001)  MDS_READ_FIELD: opening file: xx_tauu.0000000000.004.001.data
(PID.TID 0000.0001)  MDS_READ_FIELD: opening file: xx_tauu.0000000000.005.001.data
(PID.TID 0000.0001)  MDS_READ_FIELD: opening file: xx_tauu.0000000000.006.001.data
(PID.TID 0000.0001)  MDS_READ_FIELD: opening file: xx_tauv.0000000000.001.001.data
(PID.TID 0000.0001)  MDS_READ_FIELD: opening file: xx_tauv.0000000000.002.001.data
(PID.TID 0000.0001)  MDS_READ_FIELD: opening file: xx_tauv.0000000000.003.001.data
(PID.TID 0000.0001)  MDS_READ_FIELD: opening file: xx_tauv.0000000000.004.001.data
(PID.TID 0000.0001)  MDS_READ_FIELD: opening file: xx_tauv.0000000000.005.001.data
(PID.TID 0000.0001)  MDS_READ_FIELD: opening file: xx_tauv.0000000000.006.001.data
(PID.TID 0000.0001)  MDS_READ_FIELD: opening file: xx_sfl.0000000000.001.001.data
(PID.TID 0000.0001)  MDS_READ_FIELD: opening file: xx_sfl.0000000000.002.001.data
(PID.TID 0000.0001)  MDS_READ_FIELD: opening file: xx_sfl.0000000000.003.001.data
(PID.TID 0000.0001)  MDS_READ_FIELD: opening file: xx_sfl.0000000000.004.001.data
(PID.TID 0000.0001)  MDS_READ_FIELD: opening file: xx_sfl.0000000000.005.001.data
(PID.TID 0000.0001)  MDS_READ_FIELD: opening file: xx_sfl.0000000000.006.001.data
(PID.TID 0000.0001)  MDS_READ_FIELD: opening file: xx_hfl.0000000000.001.001.data
(PID.TID 0000.0001)  MDS_READ_FIELD: opening file: xx_hfl.0000000000.002.001.data
(PID.TID 0000.0001)  MDS_READ_FIELD: opening file: xx_hfl.0000000000.003.001.data
(PID.TID 0000.0001)  MDS_READ_FIELD: opening file: xx_hfl.0000000000.004.001.data
(PID.TID 0000.0001)  MDS_READ_FIELD: opening file: xx_hfl.0000000000.005.001.data
(PID.TID 0000.0001)  MDS_READ_FIELD: opening file: xx_hfl.0000000000.006.001.data
(PID.TID 0000.0001) SOLVE_FOR_PRESSURE: putPmEinXvector =    F
 cg2d: Sum(rhs),rhsMax =  -9.40758582146373E-12  4.28440421776334E+00
 cg2d: Sum(rhs),rhsMax =  -9.74864633462857E-12  4.27982545042915E+00
 cg2d: Sum(rhs),rhsMax =  -9.74864633462857E-12  4.27358143070945E+00
 cg2d: Sum(rhs),rhsMax =  -9.80548975348938E-12  4.26757584302875E+00
 cg2d: Sum(rhs),rhsMax =  -9.18021214602049E-12  4.26162662636729E+00
 cg2d: Sum(rhs),rhsMax =  -9.40758582146373E-12  4.25572412659326E+00
 cg2d: Sum(rhs),rhsMax =  -9.35074240260292E-12  4.24991959226561E+00
 cg2d: Sum(rhs),rhsMax =  -9.23705556488130E-12  4.24428631727325E+00
 cg2d: Sum(rhs),rhsMax =  -9.37916411203332E-12  4.23890091051883E+00
 cg2d: Sum(rhs),rhsMax =  -9.69180291576777E-12  4.23383241080531E+00
 cg2d: Sum(rhs),rhsMax =  -9.97602001007181E-12  4.22913459658477E+00
 cg2d: Sum(rhs),rhsMax =  -9.69180291576777E-12  4.22484530815304E+00
 cg2d: Sum(rhs),rhsMax =  -9.60653778747655E-12  4.22098691419940E+00
 cg2d: Sum(rhs),rhsMax =  -9.69180291576777E-12  4.21756850890575E+00
 cg2d: Sum(rhs),rhsMax =  -9.60653778747655E-12  4.21458764143415E+00
S/R EXTERNAL_FIELDS_LOAD: Reading new data:    1    2     72015  6.222096000000E+09
(PID.TID 0000.0001)  MDS_READ_FIELD: opening global file: trenberth_taux.bin
(PID.TID 0000.0001)  MDS_READ_FIELD: opening global file: trenberth_taux.bin
(PID.TID 0000.0001)  MDS_READ_FIELD: opening global file: trenberth_tauy.bin
(PID.TID 0000.0001)  MDS_READ_FIELD: opening global file: trenberth_tauy.bin
(PID.TID 0000.0001)  MDS_READ_FIELD: opening global file: shiQnet_cs32.bin
(PID.TID 0000.0001)  MDS_READ_FIELD: opening global file: shiQnet_cs32.bin
(PID.TID 0000.0001)  MDS_READ_FIELD: opening global file: shiEmPR_cs32.bin
(PID.TID 0000.0001)  MDS_READ_FIELD: opening global file: shiEmPR_cs32.bin
(PID.TID 0000.0001)  MDS_READ_FIELD: opening global file: lev_surfT_cs_12m.bin
(PID.TID 0000.0001)  MDS_READ_FIELD: opening global file: lev_surfT_cs_12m.bin
(PID.TID 0000.0001)  MDS_READ_FIELD: opening global file: lev_surfS_cs_12m.bin
(PID.TID 0000.0001)  MDS_READ_FIELD: opening global file: lev_surfS_cs_12m.bin
 cg2d: Sum(rhs),rhsMax =  -1.00044417195022E-11  4.21203169029769E+00
 cg2d: Sum(rhs),rhsMax =  -9.40758582146373E-12  4.20976597494012E+00
 cg2d: Sum(rhs),rhsMax =  -9.66338120633736E-12  4.20805789028741E+00
 cg2d: Sum(rhs),rhsMax =  -9.40758582146373E-12  4.20662079794814E+00
 cg2d: Sum(rhs),rhsMax =  -9.35074240260292E-12  4.20551574149306E+00
(PID.TID 0000.0001) Did not write pickup because writePickupAtEnd = FALSE
(PID.TID 0000.0001)  MDS_READ_FIELD: opening global file: lev_T_cs_15k.bin
 --> objf_test(bi,bj)   =  0.213648981509310E+05
 --> objf_tracer(bi,bj) =  0.000000000000000E+00
 --> objf_atl(bi,bj)    =  0.000000000000000E+00
 --> objf_test(bi,bj)   =  0.114793796468496E+05
 --> objf_tracer(bi,bj) =  0.000000000000000E+00
 --> objf_atl(bi,bj)    =  0.000000000000000E+00
 --> objf_test(bi,bj)   =  0.181911445084082E+05
 --> objf_tracer(bi,bj) =  0.000000000000000E+00
 --> objf_atl(bi,bj)    =  0.000000000000000E+00
 --> objf_test(bi,bj)   =  0.231468902288000E+05
 --> objf_tracer(bi,bj) =  0.000000000000000E+00
 --> objf_atl(bi,bj)    =  0.000000000000000E+00
 --> objf_test(bi,bj)   =  0.145252639820183E+05
 --> objf_tracer(bi,bj) =  0.000000000000000E+00
 --> objf_atl(bi,bj)    =  0.000000000000000E+00
 --> objf_test(bi,bj)   =  0.125100819281148E+05
 --> objf_tracer(bi,bj) =  0.000000000000000E+00
 --> objf_atl(bi,bj)    =  0.000000000000000E+00
  local fc =  0.101217658445122E+06
 global fc =  0.101217658445122E+06
 ph-check fcpertplus =   101217.658
(PID.TID 0000.0001)  MDS_READ_FIELD: opening file: xx_theta.0000000000.001.001.data
(PID.TID 0000.0001)  MDS_READ_FIELD: opening file: xx_theta.0000000000.002.001.data
(PID.TID 0000.0001)  MDS_READ_FIELD: opening file: xx_theta.0000000000.003.001.data
(PID.TID 0000.0001)  MDS_READ_FIELD: opening file: xx_theta.0000000000.004.001.data
(PID.TID 0000.0001)  MDS_READ_FIELD: opening file: xx_theta.0000000000.005.001.data
(PID.TID 0000.0001)  MDS_READ_FIELD: opening file: xx_theta.0000000000.006.001.data
 ph-check fcpertminus =   101217.626
(PID.TID 0000.0001)  MDS_READ_FIELD: opening file: xx_theta.0000000000.001.001.data
(PID.TID 0000.0001)  MDS_READ_FIELD: opening file: xx_theta.0000000000.002.001.data
(PID.TID 0000.0001)  MDS_READ_FIELD: opening file: xx_theta.0000000000.003.001.data
(PID.TID 0000.0001)  MDS_READ_FIELD: opening file: xx_theta.0000000000.004.001.data
(PID.TID 0000.0001)  MDS_READ_FIELD: opening file: xx_theta.0000000000.005.001.data
(PID.TID 0000.0001)  MDS_READ_FIELD: opening file: xx_theta.0000000000.006.001.data
(PID.TID 0000.0001)  MDS_READ_FIELD: opening global file: bathy_Hmin50.bin
(PID.TID 0000.0001) // =======================================================
(PID.TID 0000.0001) // Field Model R_low (ini_masks_etc) at iteration          1
(PID.TID 0000.0001) // CMIN =         -5.200000000000000E+03
(PID.TID 0000.0001) // CMAX =         -5.000000000000000E+01
(PID.TID 0000.0001) // CINT =          1.907407407407407E+02
(PID.TID 0000.0001) // SYMBOLS (CMIN->CMAX): -abcdefghijklmnopqrstuvwxyz+
(PID.TID 0000.0001) //                  0.0: .
(PID.TID 0000.0001) // RANGE I (Lo:Hi:Step):(    -3:   196:     1)
(PID.TID 0000.0001) // RANGE J (Lo:Hi:Step):(    36:    -3:    -1)
(PID.TID 0000.0001) // RANGE K (Lo:Hi:Step):(   1:   1:   1)
(PID.TID 0000.0001) // =======================================================
(PID.TID 0000.0001) K =   1
(PID.TID 0000.0001) //                I=6       I=16      I=26      I=36      I=38      I=48      I=58      I=68      I=70      I=80      I=90      I=100     I=102     I=112     I=122     I=132     I=134     I=144     I=154     I=164     I=166     I=176     I=186     I=196
(PID.TID 0000.0001) // |--J--|321012345|789012345|789012345|789012345|901234567|901234567|901234567|901234567|123456789|123456789|123456789|123456789|345678901|345678901|345678901|345678901|567890123|567890123|567890123|567890123|789012345|789012345|789012345|789012345|
(PID.TID 0000.0001) //     36 cbbc-ddcbcdehkhhmn..++..................................................okn.skko--a-fc----bba-cp.............tfeecccbbdeecccbbdeddedcdcccdddcddffggghiggfffdeeffijlihjlica---a--cgffel.+edfgeedflcbahgfllcbahgfllfhdffhkfffca-aady...llnabdoa--a
(PID.TID 0000.0001) //     35 dcac--cbbeefjkfefw+..........zpu........................................kqnzrqqk--b-da----bbbbfu..............fdddccaadcddccaadcdddcbbbbcdddcccdffffghgffffddefflligfiljfba---aafddehy...pwvlhfffcbagfccfcbagfcceeffffjlkjgaa---bfvheeln-aesaaab
(PID.TID 0000.0001) //     34 d--ba-abcehjnldcclz+........spps.......................................vkqn+xnnncabbcbba--aabfu+..............hcbaaaaaccbaaaaaccdccbaaabbddddccdffffghfeeeeedeffjiffefilhfcaaaacgceei.......zomggfcaecbbgfcaecbbccddefilihecbaacbaajfega-aesfeed
(PID.TID 0000.0001) //     33 --abbbccceiomkfdbbc+.......+s..........................................xsrxzz+z.fdcddb-----adu+...............hcbaa--accbaa--accddba--bbbddddccdfffhhgfeeddcceddhfeddfgikhfffdfgccffw........zohhgebbaaahgebbaaaaaccdfhlhfefdcccaabjefbaaafoosso
(PID.TID 0000.0001) //     32 --bddefhhkqqlgfaakqz..v.+..+.........................................++..u+....zigfdba----adu+................kdcaaa-acccaaa-accdcb---bbbcdddddefffggfeeedcccccbccbbdcdfgghhiihcbeiw.........+ynjgebaaaajgebaaaa-aacccfikkhecccbbbaaabaadfklnqpp
(PID.TID 0000.0001) //     31 abbcffijnpnqneaaat..umrr+s.z.........................................+++++.ztsvdlifeb--dfdfu+................+lkdca--abcdca--abcccb---bbbbddddeffflhfeeeecbbbbaaba-abbacbcdceffbbfw+..........++ujfbaaa-ujfbaaa----aacffiljgfffcca--adfikkiihhhf
(PID.TID 0000.0001) //     30 --adgillkkkifcadcx.ymmqzqikvnnps.....................................+++++wmegt-jlifcacdlqx+++...............mligea---abgea---abbbb---abaaddddeedkmeddefdbbbaaaabc---b--aaaaabaabm..............+viba---+viba-------acdefinmlgiieb-chnnnmlmlgffc
(PID.TID 0000.0001) //     29 --cfiljigfjd--efdozy...+ximpnnuz......................................+++yqddhp-iljhcbbchz+......++.........+mmhffc----affc----aaba------acdddcbcineddgdbaaa----cdd--a------aa-bfz...............+qe---a.+qe---aa---aedeegknmlgiigcdfhpokkimlfdb
(PID.TID 0000.0001) //     28 -abgkhfcccea-bdei........t............................................++zwgfcfk-gknhccbbhwwy.....+++........+njfeed-----eed-----aa-------abddcabcnfddegcaaa-----hlf------------dk+................+ja---..+ja------bffdddehfd--bedaacfhpnligiihd
(PID.TID 0000.0001) //     27 -acghfbaaaa-achmy......................+.......+++....................++vnbbbclefkpkeeecflmqxy....++........+lhfeecc----eecc------------aaadcbabcfhddccba-------zqd-----------irw.................++e---..++e-----mhmijddda--------ahhfiokhedegg
(PID.TID 0000.0001) //     26 -adhfca-----bfiv.......................+.......++sy...................+tq-fdbblcjknqiheddefhiksz++++........zkhfdccb----dccb------------aabdcaaaacfddbca-------a+xfa-abb-----vvv...................+wa--...+wa---mlmkijhc----------cjjffiheb-aad
(PID.TID 0000.0001) //     25 -achfa------ch+..................w.......w.......njo+................+x-----bcgidiqqojfefiiiijmy.++.........zkhfdbaa----dbaa-------daa---acccaaaacccca--------ac.+udaabbb----tei...................++qde...++qdeqnghiljcaaaaidaa----beedeeca--bb
(PID.TID 0000.0001) //     24 aaeifa--acbcei...................w.......w.......likn+.....++.....++znpa----bbdi-fnlmnjhinlksssw............qhfeca------ca--------addc--aeffaaaaaaccb-a----a--bd.++udbbaba---ven....................++xy....++xywnfgllcbbabegkecba----ddddcaacdc
(PID.TID 0000.0001) //     23 abfida-aabchjk...................zz......zz.....nhhijz....tqq.....+ujgzgd---abci-cegklkkknols..xuu..........zgfdba------ba--------bcd---affaaadffabbb-----aa-bcc.+.+ufb-----l.gx...........s.........++z.....++zzkfilfccccoz..ulkcd---bccnfddddd
(PID.TID 0000.0001) //     22 -afhfaa---bfgi....................zz..rn..zz..rnjffggm...nlmn+....+sffzya--aabcieaaffdfhimrmp...yuu.++.......zudba------ba--------adc---dda-adffe-aa--------aaac....+ufc-baaqvhh..........dcfeeh......++......++zggqvifefhz......zobbaccfwuffeee
(PID.TID 0000.0001) //     21 babcgca----abe.....................ysstl...ysstlgeeeeoz..ijklt+....lfjzzf---adfcfdaadcehllotq....yy+++zzs.....+zcba-----cba-------cdd--aaa----df------------aaac.....+upjdcy.vohq.......+idcdfeeefwz....efwz....+hhn.vklox.........gdccfjwrigffh
(PID.TID 0000.0001) //     20 fbbbcgfcaa-aae+.......................lc......lcgfdddhq.+hiilnz++.+oquxyz--adgkfdcaabcfmtooyxz......+yuiiy....++gb------gb--------ddcca-a-----acbaa------bbaaaab........ywxy.lulo.lv...kcdgddffefffilyx+fffilyx+fffk.+xyyy.........mgeimvskjklll
(PID.TID 0000.0001) //     19 zmfeccdghfeegcbt......................aa......aafifccgnrzgghjry.+++sr+lq.--edfkkoxtkblwnnsp.vv......skhggt...+++t-------t---------bdaf---------edd-------adlaaaa+..........vnhzy.tllqiedccdhggfggffiiggfgffiiggfcbdgy..yz..........xigqophijkkii
(PID.TID 0000.0001) //     18 ..wifedfkhfegbbcivlqfoz..............jaa.....jaacfihggokeeffgt..++++..hhlfdeddkez..qcz+.zwxtsttz..ysrkhot++++++zig------ig--------b--f---------egqqqaa----frb---+........+kkrhw.vqmlnieddcdehgggffgigedbffgigedbaaceiy.............zilrddefikkhh
(PID.TID 0000.0001) //     17 ..+wfeefikhgcbbccaaacgn.............icaa....icaaccfihfoedddeedy..++...nnqwgfeekeyy.z++..+zsjjllllljllpjos+++.+zhhi-----ehi-----e-----ea--------foqqoqqo--hlwgea-.........+nk+..xiioonhfefddegihhghigfdbaghigfdbaaabdgx..............nheddefiklhg
(PID.TID 0000.0001) //     16 ....wiheddeccdfhfbabdfl............jdbad...jdbaddddgifkccccdccd+.++..++ynvz.tkkq.mu....++zyslllllkhggkmpy++...ihhi-----ehi-----ea---feb-----a-acnoohfghknvmwnuca..........qhu..hhhkojgffgeefghihhiieedbahiieedbaaabcdy..............ygddeghiljgf
(PID.TID 0000.0001) //     15 ......ylea--acfihebcbbes..........sfcbbn..sfcbbngfffigcaaabdbcac+.+++++zgmpx...y.mm....++..zslwz.yhhhhnz+++...rhgc----abgc----ab----ige----acaaalllkddfiy..yswxb..........thk.xgghiligfghfefhhhhiiheedcdiiheedcdbbabdmz.............zfdeghikkifd
(PID.TID 0000.0001) //     14 ........c---acgkhdcc--di..........ofddch..ofddchohffikaaaaabaaa-aw+.+ysnggox++...qrv..........yzzzzrjil+++....qhgd-----agd-----a-----i---cccdeabkklldinqssy..xxv...........+y.uhghikihgfghefgihhhgeeeeedhgeeeeeddbaadhw.............nedeghjjhfed
(PID.TID 0000.0001) //     13 .......+b----cfkhec---afz.........nhfdff..nhfdffholghkaaaaaba-a---flkkuswyy++++y+zr...........zzzzz++ry++......yd-------d--------------aeecdeidfkkqnqlmqquukqqmf..............iihiijjhfefgefhjihiffgggffiffgggffecaabelx...........zjecehijhfecc
(PID.TID 0000.0001) //     12 .......ec----chjhec---ag..........skiqdd..skiqddeiiiifaaabae--a---dd--iu+++.+++sxq++..........+z+++++.+++....++.s-------s------------a-ceccdejhlllkqlkklssiccdee.............wjkkkjjjigeefffgjiiighiiihhighiiihhhdaabdffghtxx......mfccehjiffdb-
(PID.TID 0000.0001) //     11 ......pdca--achlheba--ai..........nkn.fd..nkn.fdemijidaaaabi-------a--q+....++.ziis...........+++++..........+yyza----b-za----b-----a--ccccddkhieekkossssfbbbbcd............njjijhhihijhgggggjjjjijkkkkjjijkkkkjjhcaacddeegpy.....xfdccdhjgfdda-
(PID.TID 0000.0001) //     10 ......wfdb--achlhea---an.........uos..dc.uos..dcemikkfdcaabi-------equ+.........mk...........................zyvuq----ccuq----cc----a---dcfhkopqjeissrnpfbbcccde..........zslihhigghgijjihhhhkllkkkkkkjkkkkkkkjkkkedccdeeeeipz..zwhccbcdhgfddcam
(PID.TID 0000.0001) //      9 ......vgec---bfikca--cjl+.......+nnv.+cc+nnv.+ccffhkkiddaadha-----as++..........pvz++........................zxuuk------uk------a---a----djmqrrnlllsoiddcccccdjf.........+zjijhfgfggffhjkkkiillljihhghgijihhghgihighdeeffgghimnnjgecbbcdgfeccbas
(PID.TID 0000.0001) //      8 .....zleca---afjfca--hdfz.......vkky.jcevkky.jceddefijffdddhb--a-afv............nn..ss.........................+yku-----yku--------------ejnpqqnninnritqdccchkmf+.......wihgghgeffffeefhijkjkljiigeeffefigeeffefffhjhhikkklljklmhffeeeggfdcbaay.
(PID.TID 0000.0001) //      7 ...+zohec--abcfkhecbchbdx.......qiht.faaqiht.faaaabdgijgfededcdcb-f+............nn...pz.........................+zu-----+zu--------------edefqgqddsz+......+yuddmm+....tiggfggfeeeefeeefiiiijkiihhedddddhheddddddddjjllliijhfkmmkkjjhijgdcba--q.
(PID.TID 0000.0001) //      6 ..+yomfddcaabefkifdchaadt......uqdeisc--qdeisc----dfefgifffkklldc--v............up...pp.........................v.x-----v.x---------a----fbbpqgzenx+........zdbcmllkhhfffffffgfeeeeeeeefhhhhijihhffddcbbhffddcbbbbdhhiihedddb-cfhhhjjjieca----+.
(PID.TID 0000.0001) //      5 ..+nhgffkghccfhkhffgdaackz....uoibcimlaaibcimlaaacfbddfjjhijeehf-a-c............zs...su.........................qk.yi---qk.yi-------gha-fjddqs+xkrz.........q-bchikdccdeeeeeeedddedddddgghhhhjhhgffcbbaagffcbbaaaaddfegecca----dfeefhfgdb-----+.
(PID.TID 0000.0001) //      4 .+ujhgfllfhdffhkfffca-aady...llnabdopfcbabdopfcbdgdbcdehlihgfddc--ms............................................okn.zd--okn.zd---eciiiicfkeeqy.ysz..........n-aafgdcbbdeddedcdcccdddcddffggghiggfffdbaa-fffdbaa---acdcccba--abvfedeffdcca----b+.
(PID.TID 0000.0001) //      3 +vjggfcceeffffjlkjgaa---bfvheeln-aesphfd-aesphfdhgabddeflihhgfecbaaayq+++++.....................................kqnz.vtpkqnz.vtpkllgdccfkkkkk..++..........+g---fecaaadcdddcbbbbcdddcccdffffghgffffdcaa-fffdcaa----abcaaaa-acxxmecdjmdbba----r+.
(PID.TID 0000.0001) //      2 qifeecbbccddefilihecbaacbaajfega-aesqhff-aesqhffiea-cdeflkkljifeddcba---bry+...................................vkqn+.sghkqn+.sghfcbcbbbdgfdek.++++.........+l---caaaaaccdccbaaabbddddccdffffghfeeeeecba-eeeecba------baaaa-euwxqdbcdkud-----sy+.
(PID.TID 0000.0001) //      1 ebbbbaaaaaccdfhlhfefdcccaabjefbaaafonhglaafonhglid--adfgkkkklkhffddca-----s++++................................xsrxz.tedsrxz.tedcbbbbaaadddet.++++.........+l------a-accddba--bbbddddccdfffhhgfeeddccba-eddccba-------aaaabgns.qcbcchyzqngll++..
(PID.TID 0000.0001) //      0 -aaaaaaa-aacccfikkhecccbbbaaabaadfkllilmdfkllilmgebaadfijjiiikjhffdcba-----lllgn.............................++..u+..zmd.u+..zmdfbd---a-aeef.xx+..........+++s-------accdcb---bbbcdddddefffggfeeedcccbbaedcccbba----aa--alrwwy.kcbccc+...++++...
(PID.TID 0000.0001) //     -1 --aaaaa----aacffiljgfffcca--adfikkiikimikkiikimiiheccfurkiffhijjigfecb-----l----.............................+++++.z+.wq++.z+.wqgbf-------dgzpoy+........+ys+yrb--aa-abcccb---bbbbddddeffflhfeeeecbbcbbaecbbcbbaa----a--bdflm.yuibbcc.......+...
(PID.TID 0000.0001) //     -2 --aaa-------acdefinmlgiieb-chnnnmlmlfklkmlmlfklklkhednwwsheeghhijjgfdca----g---a.............................+++++wmu++y++wmu++ywn--------fwvmgy+........+r-.+++-abc--abbbb---abaaddddeedkmeddefdbbbdcbadbbbdcbaa-------ba-hv.susfbcc.......+...
(PID.TID 0000.0001) //     -3 a--a---aa---aedeegknmlgiigcdfhpokkimdkmkkkimdkmknoiedcfjvpddegghhhhgfdcbaa-n---a..............................+++yqd.++++yqd.+++zvq--dafz.lqnggw+........+b-....abcc---aaba------acdddcbcineddgdbaaaeedbbaaaeedbaa----------nysqssfcd...........
(PID.TID 0000.0001) // =======================================================
(PID.TID 0000.0001) // END OF FIELD                                          =
(PID.TID 0000.0001) // =======================================================
(PID.TID 0000.0001) 
(PID.TID 0000.0001) // =======================================================
(PID.TID 0000.0001) // Field Model Ro_surf (ini_masks_etc) at iteration          1
(PID.TID 0000.0001) // CMIN =         -7.105427357601002E-15
(PID.TID 0000.0001) // CMAX =         -7.105427357601002E-15
(PID.TID 0000.0001) // CINT =          0.000000000000000E+00
(PID.TID 0000.0001) // SYMBOLS (CMIN->CMAX): -abcdefghijklmnopqrstuvwxyz+
(PID.TID 0000.0001) //                  0.0: .
(PID.TID 0000.0001) // RANGE I (Lo:Hi:Step):(    -3:   196:     1)
(PID.TID 0000.0001) // RANGE J (Lo:Hi:Step):(    36:    -3:    -1)
(PID.TID 0000.0001) // RANGE K (Lo:Hi:Step):(   1:   1:   1)
(PID.TID 0000.0001) // =======================================================
(PID.TID 0000.0001) // =======================================================
(PID.TID 0000.0001) // END OF FIELD                                          =
(PID.TID 0000.0001) // =======================================================
(PID.TID 0000.0001) 
(PID.TID 0000.0001) // =======================================================
(PID.TID 0000.0001) // Field hFacC at iteration          1
(PID.TID 0000.0001) // CMIN =          1.000000000000000E+00
(PID.TID 0000.0001) // CMAX =          1.000000000000000E+00
(PID.TID 0000.0001) // CINT =          0.000000000000000E+00
(PID.TID 0000.0001) // SYMBOLS (CMIN->CMAX): -abcdefghijklmnopqrstuvwxyz+
(PID.TID 0000.0001) //                  0.0: .
(PID.TID 0000.0001) // RANGE I (Lo:Hi:Step):(    -3:   196:     1)
(PID.TID 0000.0001) // RANGE J (Lo:Hi:Step):(    36:    -3:    -1)
(PID.TID 0000.0001) // RANGE K (Lo:Hi:Step):(   1:   1:   1)
(PID.TID 0000.0001) // =======================================================
(PID.TID 0000.0001) // =======================================================
(PID.TID 0000.0001) // END OF FIELD                                          =
(PID.TID 0000.0001) // =======================================================
(PID.TID 0000.0001) 
(PID.TID 0000.0001) // =======================================================
(PID.TID 0000.0001) // Field hFacW at iteration          1
(PID.TID 0000.0001) // CMIN =          1.000000000000000E+00
(PID.TID 0000.0001) // CMAX =          1.000000000000000E+00
(PID.TID 0000.0001) // CINT =          0.000000000000000E+00
(PID.TID 0000.0001) // SYMBOLS (CMIN->CMAX): -abcdefghijklmnopqrstuvwxyz+
(PID.TID 0000.0001) //                  0.0: .
(PID.TID 0000.0001) // RANGE I (Lo:Hi:Step):(    -3:   196:     1)
(PID.TID 0000.0001) // RANGE J (Lo:Hi:Step):(    36:    -3:    -1)
(PID.TID 0000.0001) // RANGE K (Lo:Hi:Step):(   1:   1:   1)
(PID.TID 0000.0001) // =======================================================
(PID.TID 0000.0001) // =======================================================
(PID.TID 0000.0001) // END OF FIELD                                          =
(PID.TID 0000.0001) // =======================================================
(PID.TID 0000.0001) 
(PID.TID 0000.0001) // =======================================================
(PID.TID 0000.0001) // Field hFacS at iteration          1
(PID.TID 0000.0001) // CMIN =          1.000000000000000E+00
(PID.TID 0000.0001) // CMAX =          1.000000000000000E+00
(PID.TID 0000.0001) // CINT =          0.000000000000000E+00
(PID.TID 0000.0001) // SYMBOLS (CMIN->CMAX): -abcdefghijklmnopqrstuvwxyz+
(PID.TID 0000.0001) //                  0.0: .
(PID.TID 0000.0001) // RANGE I (Lo:Hi:Step):(    -3:   196:     1)
(PID.TID 0000.0001) // RANGE J (Lo:Hi:Step):(    36:    -3:    -1)
(PID.TID 0000.0001) // RANGE K (Lo:Hi:Step):(   1:   1:   1)
(PID.TID 0000.0001) // =======================================================
(PID.TID 0000.0001) // =======================================================
(PID.TID 0000.0001) // END OF FIELD                                          =
(PID.TID 0000.0001) // =======================================================
(PID.TID 0000.0001) 
(PID.TID 0000.0001) INI_CG2D: CG2D normalisation factor =  1.9156564154949553E-04
(PID.TID 0000.0001) INI_CG2D: cg2dTolerance = 5.809016360175293E-07 (Area=3.6388673751E+14)
(PID.TID 0000.0001) 
(PID.TID 0000.0001)  MDS_READ_META: opening file: pickup.0000072000.meta
(PID.TID 0000.0001)  nRecords = 123 ; filePrec =  64 ; fileIter =     72000
(PID.TID 0000.0001)     nDims =   2 , dims:
(PID.TID 0000.0001)    1: 192   1 192
(PID.TID 0000.0001)    2:  32   1  32
(PID.TID 0000.0001)     nFlds =  11 , nFl3D =   8 , fields:
(PID.TID 0000.0001)  >Uvel    < >GuNm1   < >Vvel    < >GvNm1   < >Theta   < >GtNm1   < >Salt    < >GsNm1   < >EtaN    < >dEtaHdt < >EtaH    <
(PID.TID 0000.0001)   nTimRec =   0 , timeList:
(PID.TID 0000.0001) READ_MFLDS_3D_RL: read field: "Uvel    ", #   1 in fldList, rec=   1
(PID.TID 0000.0001)  MDS_READ_FIELD: opening global file: pickup.0000072000
(PID.TID 0000.0001) READ_MFLDS_3D_RL: read field: "Vvel    ", #   3 in fldList, rec=   3
(PID.TID 0000.0001)  MDS_READ_FIELD: opening global file: pickup.0000072000
(PID.TID 0000.0001) READ_MFLDS_3D_RL: read field: "Theta   ", #   5 in fldList, rec=   5
(PID.TID 0000.0001)  MDS_READ_FIELD: opening global file: pickup.0000072000
(PID.TID 0000.0001) READ_MFLDS_3D_RL: read field: "Salt    ", #   7 in fldList, rec=   7
(PID.TID 0000.0001)  MDS_READ_FIELD: opening global file: pickup.0000072000
(PID.TID 0000.0001) READ_MFLDS_3D_RL: read field: "GuNm1   ", #   2 in fldList, rec=   2
(PID.TID 0000.0001)  MDS_READ_FIELD: opening global file: pickup.0000072000
(PID.TID 0000.0001) READ_MFLDS_3D_RL: field: "GuNm2   " missing in file: pickup.0000072000
(PID.TID 0000.0001) READ_MFLDS_3D_RL: read field: "GvNm1   ", #   4 in fldList, rec=   4
(PID.TID 0000.0001)  MDS_READ_FIELD: opening global file: pickup.0000072000
(PID.TID 0000.0001) READ_MFLDS_3D_RL: field: "GvNm2   " missing in file: pickup.0000072000
(PID.TID 0000.0001) READ_MFLDS_3D_RL: read field: "EtaN    ", #   9 in fldList, rec= 121
(PID.TID 0000.0001)  MDS_READ_FIELD: opening global file: pickup.0000072000
(PID.TID 0000.0001) READ_MFLDS_3D_RL: read field: "dEtaHdt ", #  10 in fldList, rec= 122
(PID.TID 0000.0001)  MDS_READ_FIELD: opening global file: pickup.0000072000
(PID.TID 0000.0001) READ_MFLDS_3D_RL: read field: "EtaH    ", #  11 in fldList, rec= 123
(PID.TID 0000.0001)  MDS_READ_FIELD: opening global file: pickup.0000072000
(PID.TID 0000.0001)  MDS_READ_FIELD: opening global file: trenberth_taux.bin
(PID.TID 0000.0001)  MDS_READ_FIELD: opening global file: trenberth_tauy.bin
(PID.TID 0000.0001)  MDS_READ_FIELD: opening global file: shiQnet_cs32.bin
(PID.TID 0000.0001)  MDS_READ_FIELD: opening global file: shiEmPR_cs32.bin
(PID.TID 0000.0001)  MDS_READ_FIELD: opening global file: lev_surfT_cs_12m.bin
(PID.TID 0000.0001)  MDS_READ_FIELD: opening global file: lev_surfS_cs_12m.bin
(PID.TID 0000.0001)  MDS_READ_FIELD: opening file: xx_theta.0000000000.001.001.data
(PID.TID 0000.0001)  MDS_READ_FIELD: opening file: xx_theta.0000000000.002.001.data
(PID.TID 0000.0001)  MDS_READ_FIELD: opening file: xx_theta.0000000000.003.001.data
(PID.TID 0000.0001)  MDS_READ_FIELD: opening file: xx_theta.0000000000.004.001.data
(PID.TID 0000.0001)  MDS_READ_FIELD: opening file: xx_theta.0000000000.005.001.data
(PID.TID 0000.0001)  MDS_READ_FIELD: opening file: xx_theta.0000000000.006.001.data
(PID.TID 0000.0001)  MDS_READ_FIELD: opening file: xx_salt.0000000000.001.001.data
(PID.TID 0000.0001)  MDS_READ_FIELD: opening file: xx_salt.0000000000.002.001.data
(PID.TID 0000.0001)  MDS_READ_FIELD: opening file: xx_salt.0000000000.003.001.data
(PID.TID 0000.0001)  MDS_READ_FIELD: opening file: xx_salt.0000000000.004.001.data
(PID.TID 0000.0001)  MDS_READ_FIELD: opening file: xx_salt.0000000000.005.001.data
(PID.TID 0000.0001)  MDS_READ_FIELD: opening file: xx_salt.0000000000.006.001.data
(PID.TID 0000.0001)  MDS_READ_FIELD: opening file: xx_diffkr.0000000000.001.001.data
(PID.TID 0000.0001)  MDS_READ_FIELD: opening file: xx_diffkr.0000000000.002.001.data
(PID.TID 0000.0001)  MDS_READ_FIELD: opening file: xx_diffkr.0000000000.003.001.data
(PID.TID 0000.0001)  MDS_READ_FIELD: opening file: xx_diffkr.0000000000.004.001.data
(PID.TID 0000.0001)  MDS_READ_FIELD: opening file: xx_diffkr.0000000000.005.001.data
(PID.TID 0000.0001)  MDS_READ_FIELD: opening file: xx_diffkr.0000000000.006.001.data
(PID.TID 0000.0001) // =======================================================
(PID.TID 0000.0001) // Model current state
(PID.TID 0000.0001) // =======================================================
(PID.TID 0000.0001) 
S/R EXTERNAL_FIELDS_LOAD: Reading new data:   12    1     72000  6.220800000000E+09
(PID.TID 0000.0001)  MDS_READ_FIELD: opening global file: trenberth_taux.bin
(PID.TID 0000.0001)  MDS_READ_FIELD: opening global file: trenberth_taux.bin
(PID.TID 0000.0001)  MDS_READ_FIELD: opening global file: trenberth_tauy.bin
(PID.TID 0000.0001)  MDS_READ_FIELD: opening global file: trenberth_tauy.bin
(PID.TID 0000.0001)  MDS_READ_FIELD: opening global file: shiQnet_cs32.bin
(PID.TID 0000.0001)  MDS_READ_FIELD: opening global file: shiQnet_cs32.bin
(PID.TID 0000.0001)  MDS_READ_FIELD: opening global file: shiEmPR_cs32.bin
(PID.TID 0000.0001)  MDS_READ_FIELD: opening global file: shiEmPR_cs32.bin
(PID.TID 0000.0001)  MDS_READ_FIELD: opening global file: lev_surfT_cs_12m.bin
(PID.TID 0000.0001)  MDS_READ_FIELD: opening global file: lev_surfT_cs_12m.bin
(PID.TID 0000.0001)  MDS_READ_FIELD: opening global file: lev_surfS_cs_12m.bin
(PID.TID 0000.0001)  MDS_READ_FIELD: opening global file: lev_surfS_cs_12m.bin
(PID.TID 0000.0001)  MDS_READ_FIELD: opening file: xx_tauu.0000000000.001.001.data
(PID.TID 0000.0001)  MDS_READ_FIELD: opening file: xx_tauu.0000000000.002.001.data
(PID.TID 0000.0001)  MDS_READ_FIELD: opening file: xx_tauu.0000000000.003.001.data
(PID.TID 0000.0001)  MDS_READ_FIELD: opening file: xx_tauu.0000000000.004.001.data
(PID.TID 0000.0001)  MDS_READ_FIELD: opening file: xx_tauu.0000000000.005.001.data
(PID.TID 0000.0001)  MDS_READ_FIELD: opening file: xx_tauu.0000000000.006.001.data
(PID.TID 0000.0001)  MDS_READ_FIELD: opening file: xx_tauv.0000000000.001.001.data
(PID.TID 0000.0001)  MDS_READ_FIELD: opening file: xx_tauv.0000000000.002.001.data
(PID.TID 0000.0001)  MDS_READ_FIELD: opening file: xx_tauv.0000000000.003.001.data
(PID.TID 0000.0001)  MDS_READ_FIELD: opening file: xx_tauv.0000000000.004.001.data
(PID.TID 0000.0001)  MDS_READ_FIELD: opening file: xx_tauv.0000000000.005.001.data
(PID.TID 0000.0001)  MDS_READ_FIELD: opening file: xx_tauv.0000000000.006.001.data
(PID.TID 0000.0001)  MDS_READ_FIELD: opening file: xx_sfl.0000000000.001.001.data
(PID.TID 0000.0001)  MDS_READ_FIELD: opening file: xx_sfl.0000000000.002.001.data
(PID.TID 0000.0001)  MDS_READ_FIELD: opening file: xx_sfl.0000000000.003.001.data
(PID.TID 0000.0001)  MDS_READ_FIELD: opening file: xx_sfl.0000000000.004.001.data
(PID.TID 0000.0001)  MDS_READ_FIELD: opening file: xx_sfl.0000000000.005.001.data
(PID.TID 0000.0001)  MDS_READ_FIELD: opening file: xx_sfl.0000000000.006.001.data
(PID.TID 0000.0001)  MDS_READ_FIELD: opening file: xx_hfl.0000000000.001.001.data
(PID.TID 0000.0001)  MDS_READ_FIELD: opening file: xx_hfl.0000000000.002.001.data
(PID.TID 0000.0001)  MDS_READ_FIELD: opening file: xx_hfl.0000000000.003.001.data
(PID.TID 0000.0001)  MDS_READ_FIELD: opening file: xx_hfl.0000000000.004.001.data
(PID.TID 0000.0001)  MDS_READ_FIELD: opening file: xx_hfl.0000000000.005.001.data
(PID.TID 0000.0001)  MDS_READ_FIELD: opening file: xx_hfl.0000000000.006.001.data
(PID.TID 0000.0001) SOLVE_FOR_PRESSURE: putPmEinXvector =    F
 cg2d: Sum(rhs),rhsMax =  -9.37916411203332E-12  4.28440421776334E+00
 cg2d: Sum(rhs),rhsMax =  -9.89075488178059E-12  4.27982545061221E+00
 cg2d: Sum(rhs),rhsMax =  -1.01465502666542E-11  4.27358143101882E+00
 cg2d: Sum(rhs),rhsMax =  -9.66338120633736E-12  4.26757584393961E+00
 cg2d: Sum(rhs),rhsMax =  -9.43600753089413E-12  4.26162662800362E+00
 cg2d: Sum(rhs),rhsMax =  -9.52127265918534E-12  4.25572412902181E+00
 cg2d: Sum(rhs),rhsMax =  -9.60653778747655E-12  4.24991959548483E+00
 cg2d: Sum(rhs),rhsMax =  -9.29389898374211E-12  4.24428632119539E+00
 cg2d: Sum(rhs),rhsMax =  -9.91917659121100E-12  4.23890091498407E+00
 cg2d: Sum(rhs),rhsMax =  -9.52127265918534E-12  4.23383241563831E+00
 cg2d: Sum(rhs),rhsMax =  -9.94759830064140E-12  4.22913460163995E+00
 cg2d: Sum(rhs),rhsMax =  -9.57811607804615E-12  4.22484531334581E+00
 cg2d: Sum(rhs),rhsMax =  -9.66338120633736E-12  4.22098691947879E+00
 cg2d: Sum(rhs),rhsMax =  -9.54969436861575E-12  4.21756851418837E+00
 cg2d: Sum(rhs),rhsMax =  -9.40758582146373E-12  4.21458764658324E+00
S/R EXTERNAL_FIELDS_LOAD: Reading new data:    1    2     72015  6.222096000000E+09
(PID.TID 0000.0001)  MDS_READ_FIELD: opening global file: trenberth_taux.bin
(PID.TID 0000.0001)  MDS_READ_FIELD: opening global file: trenberth_taux.bin
(PID.TID 0000.0001)  MDS_READ_FIELD: opening global file: trenberth_tauy.bin
(PID.TID 0000.0001)  MDS_READ_FIELD: opening global file: trenberth_tauy.bin
(PID.TID 0000.0001)  MDS_READ_FIELD: opening global file: shiQnet_cs32.bin
(PID.TID 0000.0001)  MDS_READ_FIELD: opening global file: shiQnet_cs32.bin
(PID.TID 0000.0001)  MDS_READ_FIELD: opening global file: shiEmPR_cs32.bin
(PID.TID 0000.0001)  MDS_READ_FIELD: opening global file: shiEmPR_cs32.bin
(PID.TID 0000.0001)  MDS_READ_FIELD: opening global file: lev_surfT_cs_12m.bin
(PID.TID 0000.0001)  MDS_READ_FIELD: opening global file: lev_surfT_cs_12m.bin
(PID.TID 0000.0001)  MDS_READ_FIELD: opening global file: lev_surfS_cs_12m.bin
(PID.TID 0000.0001)  MDS_READ_FIELD: opening global file: lev_surfS_cs_12m.bin
 cg2d: Sum(rhs),rhsMax =  -9.37916411203332E-12  4.21203169513220E+00
 cg2d: Sum(rhs),rhsMax =  -9.77706804405898E-12  4.20976597926837E+00
 cg2d: Sum(rhs),rhsMax =  -9.49285094975494E-12  4.20805789394849E+00
 cg2d: Sum(rhs),rhsMax =  -9.57811607804615E-12  4.20662080083141E+00
 cg2d: Sum(rhs),rhsMax =  -9.89075488178059E-12  4.20551574356745E+00
(PID.TID 0000.0001) Did not write pickup because writePickupAtEnd = FALSE
(PID.TID 0000.0001)  MDS_READ_FIELD: opening global file: lev_T_cs_15k.bin
 --> objf_test(bi,bj)   =  0.213648540072650E+05
 --> objf_tracer(bi,bj) =  0.000000000000000E+00
 --> objf_atl(bi,bj)    =  0.000000000000000E+00
 --> objf_test(bi,bj)   =  0.114793796461343E+05
 --> objf_tracer(bi,bj) =  0.000000000000000E+00
 --> objf_atl(bi,bj)    =  0.000000000000000E+00
 --> objf_test(bi,bj)   =  0.181911445075955E+05
 --> objf_tracer(bi,bj) =  0.000000000000000E+00
 --> objf_atl(bi,bj)    =  0.000000000000000E+00
 --> objf_test(bi,bj)   =  0.231468902311265E+05
 --> objf_tracer(bi,bj) =  0.000000000000000E+00
 --> objf_atl(bi,bj)    =  0.000000000000000E+00
 --> objf_test(bi,bj)   =  0.145252561303157E+05
 --> objf_tracer(bi,bj) =  0.000000000000000E+00
 --> objf_atl(bi,bj)    =  0.000000000000000E+00
 --> objf_test(bi,bj)   =  0.125100681706425E+05
 --> objf_tracer(bi,bj) =  0.000000000000000E+00
 --> objf_atl(bi,bj)    =  0.000000000000000E+00
  local fc =  0.101217592693079E+06
 global fc =  0.101217592693079E+06
(PID.TID 0000.0001)  MDS_READ_FIELD: opening file: xx_theta.0000000000.001.001.data
(PID.TID 0000.0001)  MDS_READ_FIELD: opening file: xx_theta.0000000000.002.001.data
(PID.TID 0000.0001)  MDS_READ_FIELD: opening file: xx_theta.0000000000.003.001.data
(PID.TID 0000.0001)  MDS_READ_FIELD: opening file: xx_theta.0000000000.004.001.data
(PID.TID 0000.0001)  MDS_READ_FIELD: opening file: xx_theta.0000000000.005.001.data
(PID.TID 0000.0001)  MDS_READ_FIELD: opening file: xx_theta.0000000000.006.001.data
grad-res -------------------------------
 grad-res     0    1    1    1    1    1    1    1   0.101217625557E+06 0.101217658445E+06 0.101217592693E+06
 grad-res     0    1    1    1  639    1    1    1   0.328769349045E+01 0.328760212578E+01 0.277898967131E-04
(PID.TID 0000.0001)   ADM  precision_derivative_cost =    1.01217625556549E+05
(PID.TID 0000.0001)   ADM  precision_derivative_grad =    3.28769349044597E+00
 ph-grd  ierr ---------------------------
 ph-grd  ierr =  0, icomp =  1, ichknum =  1
 ph-grd -->hit<--  2 1 1 1
(PID.TID 0000.0001)  MDS_READ_FIELD: opening file: adxx_theta.0000000000.001.001.data
(PID.TID 0000.0001)  MDS_READ_FIELD: opening file: adxx_theta.0000000000.002.001.data
(PID.TID 0000.0001)  MDS_READ_FIELD: opening file: adxx_theta.0000000000.003.001.data
(PID.TID 0000.0001)  MDS_READ_FIELD: opening file: adxx_theta.0000000000.004.001.data
(PID.TID 0000.0001)  MDS_READ_FIELD: opening file: adxx_theta.0000000000.005.001.data
(PID.TID 0000.0001)  MDS_READ_FIELD: opening file: adxx_theta.0000000000.006.001.data
(PID.TID 0000.0001)  MDS_READ_FIELD: opening file: xx_theta.0000000000.001.001.data
(PID.TID 0000.0001)  MDS_READ_FIELD: opening file: xx_theta.0000000000.002.001.data
(PID.TID 0000.0001)  MDS_READ_FIELD: opening file: xx_theta.0000000000.003.001.data
(PID.TID 0000.0001)  MDS_READ_FIELD: opening file: xx_theta.0000000000.004.001.data
(PID.TID 0000.0001)  MDS_READ_FIELD: opening file: xx_theta.0000000000.005.001.data
(PID.TID 0000.0001)  MDS_READ_FIELD: opening file: xx_theta.0000000000.006.001.data
(PID.TID 0000.0001)  MDS_READ_FIELD: opening global file: bathy_Hmin50.bin
(PID.TID 0000.0001) // =======================================================
(PID.TID 0000.0001) // Field Model R_low (ini_masks_etc) at iteration          1
(PID.TID 0000.0001) // CMIN =         -5.200000000000000E+03
(PID.TID 0000.0001) // CMAX =         -5.000000000000000E+01
(PID.TID 0000.0001) // CINT =          1.907407407407407E+02
(PID.TID 0000.0001) // SYMBOLS (CMIN->CMAX): -abcdefghijklmnopqrstuvwxyz+
(PID.TID 0000.0001) //                  0.0: .
(PID.TID 0000.0001) // RANGE I (Lo:Hi:Step):(    -3:   196:     1)
(PID.TID 0000.0001) // RANGE J (Lo:Hi:Step):(    36:    -3:    -1)
(PID.TID 0000.0001) // RANGE K (Lo:Hi:Step):(   1:   1:   1)
(PID.TID 0000.0001) // =======================================================
(PID.TID 0000.0001) K =   1
(PID.TID 0000.0001) //                I=6       I=16      I=26      I=36      I=38      I=48      I=58      I=68      I=70      I=80      I=90      I=100     I=102     I=112     I=122     I=132     I=134     I=144     I=154     I=164     I=166     I=176     I=186     I=196
(PID.TID 0000.0001) // |--J--|321012345|789012345|789012345|789012345|901234567|901234567|901234567|901234567|123456789|123456789|123456789|123456789|345678901|345678901|345678901|345678901|567890123|567890123|567890123|567890123|789012345|789012345|789012345|789012345|
(PID.TID 0000.0001) //     36 cbbc-ddcbcdehkhhmn..++..................................................okn.skko--a-fc----bba-cp.............tfeecccbbdeecccbbdeddedcdcccdddcddffggghiggfffdeeffijlihjlica---a--cgffel.+edfgeedflcbahgfllcbahgfllfhdffhkfffca-aady...llnabdoa--a
(PID.TID 0000.0001) //     35 dcac--cbbeefjkfefw+..........zpu........................................kqnzrqqk--b-da----bbbbfu..............fdddccaadcddccaadcdddcbbbbcdddcccdffffghgffffddefflligfiljfba---aafddehy...pwvlhfffcbagfccfcbagfcceeffffjlkjgaa---bfvheeln-aesaaab
(PID.TID 0000.0001) //     34 d--ba-abcehjnldcclz+........spps.......................................vkqn+xnnncabbcbba--aabfu+..............hcbaaaaaccbaaaaaccdccbaaabbddddccdffffghfeeeeedeffjiffefilhfcaaaacgceei.......zomggfcaecbbgfcaecbbccddefilihecbaacbaajfega-aesfeed
(PID.TID 0000.0001) //     33 --abbbccceiomkfdbbc+.......+s..........................................xsrxzz+z.fdcddb-----adu+...............hcbaa--accbaa--accddba--bbbddddccdfffhhgfeeddcceddhfeddfgikhfffdfgccffw........zohhgebbaaahgebbaaaaaccdfhlhfefdcccaabjefbaaafoosso
(PID.TID 0000.0001) //     32 --bddefhhkqqlgfaakqz..v.+..+.........................................++..u+....zigfdba----adu+................kdcaaa-acccaaa-accdcb---bbbcdddddefffggfeeedcccccbccbbdcdfgghhiihcbeiw.........+ynjgebaaaajgebaaaa-aacccfikkhecccbbbaaabaadfklnqpp
(PID.TID 0000.0001) //     31 abbcffijnpnqneaaat..umrr+s.z.........................................+++++.ztsvdlifeb--dfdfu+................+lkdca--abcdca--abcccb---bbbbddddeffflhfeeeecbbbbaaba-abbacbcdceffbbfw+..........++ujfbaaa-ujfbaaa----aacffiljgfffcca--adfikkiihhhf
(PID.TID 0000.0001) //     30 --adgillkkkifcadcx.ymmqzqikvnnps.....................................+++++wmegt-jlifcacdlqx+++...............mligea---abgea---abbbb---abaaddddeedkmeddefdbbbaaaabc---b--aaaaabaabm..............+viba---+viba-------acdefinmlgiieb-chnnnmlmlgffc
(PID.TID 0000.0001) //     29 --cfiljigfjd--efdozy...+ximpnnuz......................................+++yqddhp-iljhcbbchz+......++.........+mmhffc----affc----aaba------acdddcbcineddgdbaaa----cdd--a------aa-bfz...............+qe---a.+qe---aa---aedeegknmlgiigcdfhpokkimlfdb
(PID.TID 0000.0001) //     28 -abgkhfcccea-bdei........t............................................++zwgfcfk-gknhccbbhwwy.....+++........+njfeed-----eed-----aa-------abddcabcnfddegcaaa-----hlf------------dk+................+ja---..+ja------bffdddehfd--bedaacfhpnligiihd
(PID.TID 0000.0001) //     27 -acghfbaaaa-achmy......................+.......+++....................++vnbbbclefkpkeeecflmqxy....++........+lhfeecc----eecc------------aaadcbabcfhddccba-------zqd-----------irw.................++e---..++e-----mhmijddda--------ahhfiokhedegg
(PID.TID 0000.0001) //     26 -adhfca-----bfiv.......................+.......++sy...................+tq-fdbblcjknqiheddefhiksz++++........zkhfdccb----dccb------------aabdcaaaacfddbca-------a+xfa-abb-----vvv...................+wa--...+wa---mlmkijhc----------cjjffiheb-aad
(PID.TID 0000.0001) //     25 -achfa------ch+..................w.......w.......njo+................+x-----bcgidiqqojfefiiiijmy.++.........zkhfdbaa----dbaa-------daa---acccaaaacccca--------ac.+udaabbb----tei...................++qde...++qdeqnghiljcaaaaidaa----beedeeca--bb
(PID.TID 0000.0001) //     24 aaeifa--acbcei...................w.......w.......likn+.....++.....++znpa----bbdi-fnlmnjhinlksssw............qhfeca------ca--------addc--aeffaaaaaaccb-a----a--bd.++udbbaba---ven....................++xy....++xywnfgllcbbabegkecba----ddddcaacdc
(PID.TID 0000.0001) //     23 abfida-aabchjk...................zz......zz.....nhhijz....tqq.....+ujgzgd---abci-cegklkkknols..xuu..........zgfdba------ba--------bcd---affaaadffabbb-----aa-bcc.+.+ufb-----l.gx...........s.........++z.....++zzkfilfccccoz..ulkcd---bccnfddddd
(PID.TID 0000.0001) //     22 -afhfaa---bfgi....................zz..rn..zz..rnjffggm...nlmn+....+sffzya--aabcieaaffdfhimrmp...yuu.++.......zudba------ba--------adc---dda-adffe-aa--------aaac....+ufc-baaqvhh..........dcfeeh......++......++zggqvifefhz......zobbaccfwuffeee
(PID.TID 0000.0001) //     21 babcgca----abe.....................ysstl...ysstlgeeeeoz..ijklt+....lfjzzf---adfcfdaadcehllotq....yy+++zzs.....+zcba-----cba-------cdd--aaa----df------------aaac.....+upjdcy.vohq.......+idcdfeeefwz....efwz....+hhn.vklox.........gdccfjwrigffh
(PID.TID 0000.0001) //     20 fbbbcgfcaa-aae+.......................lc......lcgfdddhq.+hiilnz++.+oquxyz--adgkfdcaabcfmtooyxz......+yuiiy....++gb------gb--------ddcca-a-----acbaa------bbaaaab........ywxy.lulo.lv...kcdgddffefffilyx+fffilyx+fffk.+xyyy.........mgeimvskjklll
(PID.TID 0000.0001) //     19 zmfeccdghfeegcbt......................aa......aafifccgnrzgghjry.+++sr+lq.--edfkkoxtkblwnnsp.vv......skhggt...+++t-------t---------bdaf---------edd-------adlaaaa+..........vnhzy.tllqiedccdhggfggffiiggfgffiiggfcbdgy..yz..........xigqophijkkii
(PID.TID 0000.0001) //     18 ..wifedfkhfegbbcivlqfoz..............jaa.....jaacfihggokeeffgt..++++..hhlfdeddkez..qcz+.zwxtsttz..ysrkhot++++++zig------ig--------b--f---------egqqqaa----frb---+........+kkrhw.vqmlnieddcdehgggffgigedbffgigedbaaceiy.............zilrddefikkhh
(PID.TID 0000.0001) //     17 ..+wfeefikhgcbbccaaacgn.............icaa....icaaccfihfoedddeedy..++...nnqwgfeekeyy.z++..+zsjjllllljllpjos+++.+zhhi-----ehi-----e-----ea--------foqqoqqo--hlwgea-.........+nk+..xiioonhfefddegihhghigfdbaghigfdbaaabdgx..............nheddefiklhg
(PID.TID 0000.0001) //     16 ....wiheddeccdfhfbabdfl............jdbad...jdbaddddgifkccccdccd+.++..++ynvz.tkkq.mu....++zyslllllkhggkmpy++...ihhi-----ehi-----ea---feb-----a-acnoohfghknvmwnuca..........qhu..hhhkojgffgeefghihhiieedbahiieedbaaabcdy..............ygddeghiljgf
(PID.TID 0000.0001) //     15 ......ylea--acfihebcbbes..........sfcbbn..sfcbbngfffigcaaabdbcac+.+++++zgmpx...y.mm....++..zslwz.yhhhhnz+++...rhgc----abgc----ab----ige----acaaalllkddfiy..yswxb..........thk.xgghiligfghfefhhhhiiheedcdiiheedcdbbabdmz.............zfdeghikkifd
(PID.TID 0000.0001) //     14 ........c---acgkhdcc--di..........ofddch..ofddchohffikaaaaabaaa-aw+.+ysnggox++...qrv..........yzzzzrjil+++....qhgd-----agd-----a-----i---cccdeabkklldinqssy..xxv...........+y.uhghikihgfghefgihhhgeeeeedhgeeeeeddbaadhw.............nedeghjjhfed
(PID.TID 0000.0001) //     13 .......+b----cfkhec---afz.........nhfdff..nhfdffholghkaaaaaba-a---flkkuswyy++++y+zr...........zzzzz++ry++......yd-------d--------------aeecdeidfkkqnqlmqquukqqmf..............iihiijjhfefgefhjihiffgggffiffgggffecaabelx...........zjecehijhfecc
(PID.TID 0000.0001) //     12 .......ec----chjhec---ag..........skiqdd..skiqddeiiiifaaabae--a---dd--iu+++.+++sxq++..........+z+++++.+++....++.s-------s------------a-ceccdejhlllkqlkklssiccdee.............wjkkkjjjigeefffgjiiighiiihhighiiihhhdaabdffghtxx......mfccehjiffdb-
(PID.TID 0000.0001) //     11 ......pdca--achlheba--ai..........nkn.fd..nkn.fdemijidaaaabi-------a--q+....++.ziis...........+++++..........+yyza----b-za----b-----a--ccccddkhieekkossssfbbbbcd............njjijhhihijhgggggjjjjijkkkkjjijkkkkjjhcaacddeegpy.....xfdccdhjgfdda-
(PID.TID 0000.0001) //     10 ......wfdb--achlhea---an.........uos..dc.uos..dcemikkfdcaabi-------equ+.........mk...........................zyvuq----ccuq----cc----a---dcfhkopqjeissrnpfbbcccde..........zslihhigghgijjihhhhkllkkkkkkjkkkkkkkjkkkedccdeeeeipz..zwhccbcdhgfddcam
(PID.TID 0000.0001) //      9 ......vgec---bfikca--cjl+.......+nnv.+cc+nnv.+ccffhkkiddaadha-----as++..........pvz++........................zxuuk------uk------a---a----djmqrrnlllsoiddcccccdjf.........+zjijhfgfggffhjkkkiillljihhghgijihhghgihighdeeffgghimnnjgecbbcdgfeccbas
(PID.TID 0000.0001) //      8 .....zleca---afjfca--hdfz.......vkky.jcevkky.jceddefijffdddhb--a-afv............nn..ss.........................+yku-----yku--------------ejnpqqnninnritqdccchkmf+.......wihgghgeffffeefhijkjkljiigeeffefigeeffefffhjhhikkklljklmhffeeeggfdcbaay.
(PID.TID 0000.0001) //      7 ...+zohec--abcfkhecbchbdx.......qiht.faaqiht.faaaabdgijgfededcdcb-f+............nn...pz.........................+zu-----+zu--------------edefqgqddsz+......+yuddmm+....tiggfggfeeeefeeefiiiijkiihhedddddhheddddddddjjllliijhfkmmkkjjhijgdcba--q.
(PID.TID 0000.0001) //      6 ..+yomfddcaabefkifdchaadt......uqdeisc--qdeisc----dfefgifffkklldc--v............up...pp.........................v.x-----v.x---------a----fbbpqgzenx+........zdbcmllkhhfffffffgfeeeeeeeefhhhhijihhffddcbbhffddcbbbbdhhiihedddb-cfhhhjjjieca----+.
(PID.TID 0000.0001) //      5 ..+nhgffkghccfhkhffgdaackz....uoibcimlaaibcimlaaacfbddfjjhijeehf-a-c............zs...su.........................qk.yi---qk.yi-------gha-fjddqs+xkrz.........q-bchikdccdeeeeeeedddedddddgghhhhjhhgffcbbaagffcbbaaaaddfegecca----dfeefhfgdb-----+.
(PID.TID 0000.0001) //      4 .+ujhgfllfhdffhkfffca-aady...llnabdopfcbabdopfcbdgdbcdehlihgfddc--ms............................................okn.zd--okn.zd---eciiiicfkeeqy.ysz..........n-aafgdcbbdeddedcdcccdddcddffggghiggfffdbaa-fffdbaa---acdcccba--abvfedeffdcca----b+.
(PID.TID 0000.0001) //      3 +vjggfcceeffffjlkjgaa---bfvheeln-aesphfd-aesphfdhgabddeflihhgfecbaaayq+++++.....................................kqnz.vtpkqnz.vtpkllgdccfkkkkk..++..........+g---fecaaadcdddcbbbbcdddcccdffffghgffffdcaa-fffdcaa----abcaaaa-acxxmecdjmdbba----r+.
(PID.TID 0000.0001) //      2 qifeecbbccddefilihecbaacbaajfega-aesqhff-aesqhffiea-cdeflkkljifeddcba---bry+...................................vkqn+.sghkqn+.sghfcbcbbbdgfdek.++++.........+l---caaaaaccdccbaaabbddddccdffffghfeeeeecba-eeeecba------baaaa-euwxqdbcdkud-----sy+.
(PID.TID 0000.0001) //      1 ebbbbaaaaaccdfhlhfefdcccaabjefbaaafonhglaafonhglid--adfgkkkklkhffddca-----s++++................................xsrxz.tedsrxz.tedcbbbbaaadddet.++++.........+l------a-accddba--bbbddddccdfffhhgfeeddccba-eddccba-------aaaabgns.qcbcchyzqngll++..
(PID.TID 0000.0001) //      0 -aaaaaaa-aacccfikkhecccbbbaaabaadfkllilmdfkllilmgebaadfijjiiikjhffdcba-----lllgn.............................++..u+..zmd.u+..zmdfbd---a-aeef.xx+..........+++s-------accdcb---bbbcdddddefffggfeeedcccbbaedcccbba----aa--alrwwy.kcbccc+...++++...
(PID.TID 0000.0001) //     -1 --aaaaa----aacffiljgfffcca--adfikkiikimikkiikimiiheccfurkiffhijjigfecb-----l----.............................+++++.z+.wq++.z+.wqgbf-------dgzpoy+........+ys+yrb--aa-abcccb---bbbbddddeffflhfeeeecbbcbbaecbbcbbaa----a--bdflm.yuibbcc.......+...
(PID.TID 0000.0001) //     -2 --aaa-------acdefinmlgiieb-chnnnmlmlfklkmlmlfklklkhednwwsheeghhijjgfdca----g---a.............................+++++wmu++y++wmu++ywn--------fwvmgy+........+r-.+++-abc--abbbb---abaaddddeedkmeddefdbbbdcbadbbbdcbaa-------ba-hv.susfbcc.......+...
(PID.TID 0000.0001) //     -3 a--a---aa---aedeegknmlgiigcdfhpokkimdkmkkkimdkmknoiedcfjvpddegghhhhgfdcbaa-n---a..............................+++yqd.++++yqd.+++zvq--dafz.lqnggw+........+b-....abcc---aaba------acdddcbcineddgdbaaaeedbbaaaeedbaa----------nysqssfcd...........
(PID.TID 0000.0001) // =======================================================
(PID.TID 0000.0001) // END OF FIELD                                          =
(PID.TID 0000.0001) // =======================================================
(PID.TID 0000.0001) 
(PID.TID 0000.0001) // =======================================================
(PID.TID 0000.0001) // Field Model Ro_surf (ini_masks_etc) at iteration          1
(PID.TID 0000.0001) // CMIN =         -7.105427357601002E-15
(PID.TID 0000.0001) // CMAX =         -7.105427357601002E-15
(PID.TID 0000.0001) // CINT =          0.000000000000000E+00
(PID.TID 0000.0001) // SYMBOLS (CMIN->CMAX): -abcdefghijklmnopqrstuvwxyz+
(PID.TID 0000.0001) //                  0.0: .
(PID.TID 0000.0001) // RANGE I (Lo:Hi:Step):(    -3:   196:     1)
(PID.TID 0000.0001) // RANGE J (Lo:Hi:Step):(    36:    -3:    -1)
(PID.TID 0000.0001) // RANGE K (Lo:Hi:Step):(   1:   1:   1)
(PID.TID 0000.0001) // =======================================================
(PID.TID 0000.0001) // =======================================================
(PID.TID 0000.0001) // END OF FIELD                                          =
(PID.TID 0000.0001) // =======================================================
(PID.TID 0000.0001) 
(PID.TID 0000.0001) // =======================================================
(PID.TID 0000.0001) // Field hFacC at iteration          1
(PID.TID 0000.0001) // CMIN =          1.000000000000000E+00
(PID.TID 0000.0001) // CMAX =          1.000000000000000E+00
(PID.TID 0000.0001) // CINT =          0.000000000000000E+00
(PID.TID 0000.0001) // SYMBOLS (CMIN->CMAX): -abcdefghijklmnopqrstuvwxyz+
(PID.TID 0000.0001) //                  0.0: .
(PID.TID 0000.0001) // RANGE I (Lo:Hi:Step):(    -3:   196:     1)
(PID.TID 0000.0001) // RANGE J (Lo:Hi:Step):(    36:    -3:    -1)
(PID.TID 0000.0001) // RANGE K (Lo:Hi:Step):(   1:   1:   1)
(PID.TID 0000.0001) // =======================================================
(PID.TID 0000.0001) // =======================================================
(PID.TID 0000.0001) // END OF FIELD                                          =
(PID.TID 0000.0001) // =======================================================
(PID.TID 0000.0001) 
(PID.TID 0000.0001) // =======================================================
(PID.TID 0000.0001) // Field hFacW at iteration          1
(PID.TID 0000.0001) // CMIN =          1.000000000000000E+00
(PID.TID 0000.0001) // CMAX =          1.000000000000000E+00
(PID.TID 0000.0001) // CINT =          0.000000000000000E+00
(PID.TID 0000.0001) // SYMBOLS (CMIN->CMAX): -abcdefghijklmnopqrstuvwxyz+
(PID.TID 0000.0001) //                  0.0: .
(PID.TID 0000.0001) // RANGE I (Lo:Hi:Step):(    -3:   196:     1)
(PID.TID 0000.0001) // RANGE J (Lo:Hi:Step):(    36:    -3:    -1)
(PID.TID 0000.0001) // RANGE K (Lo:Hi:Step):(   1:   1:   1)
(PID.TID 0000.0001) // =======================================================
(PID.TID 0000.0001) // =======================================================
(PID.TID 0000.0001) // END OF FIELD                                          =
(PID.TID 0000.0001) // =======================================================
(PID.TID 0000.0001) 
(PID.TID 0000.0001) // =======================================================
(PID.TID 0000.0001) // Field hFacS at iteration          1
(PID.TID 0000.0001) // CMIN =          1.000000000000000E+00
(PID.TID 0000.0001) // CMAX =          1.000000000000000E+00
(PID.TID 0000.0001) // CINT =          0.000000000000000E+00
(PID.TID 0000.0001) // SYMBOLS (CMIN->CMAX): -abcdefghijklmnopqrstuvwxyz+
(PID.TID 0000.0001) //                  0.0: .
(PID.TID 0000.0001) // RANGE I (Lo:Hi:Step):(    -3:   196:     1)
(PID.TID 0000.0001) // RANGE J (Lo:Hi:Step):(    36:    -3:    -1)
(PID.TID 0000.0001) // RANGE K (Lo:Hi:Step):(   1:   1:   1)
(PID.TID 0000.0001) // =======================================================
(PID.TID 0000.0001) // =======================================================
(PID.TID 0000.0001) // END OF FIELD                                          =
(PID.TID 0000.0001) // =======================================================
(PID.TID 0000.0001) 
(PID.TID 0000.0001) INI_CG2D: CG2D normalisation factor =  1.9156564154949553E-04
(PID.TID 0000.0001) INI_CG2D: cg2dTolerance = 5.809016360175293E-07 (Area=3.6388673751E+14)
(PID.TID 0000.0001) 
(PID.TID 0000.0001)  MDS_READ_META: opening file: pickup.0000072000.meta
(PID.TID 0000.0001)  nRecords = 123 ; filePrec =  64 ; fileIter =     72000
(PID.TID 0000.0001)     nDims =   2 , dims:
(PID.TID 0000.0001)    1: 192   1 192
(PID.TID 0000.0001)    2:  32   1  32
(PID.TID 0000.0001)     nFlds =  11 , nFl3D =   8 , fields:
(PID.TID 0000.0001)  >Uvel    < >GuNm1   < >Vvel    < >GvNm1   < >Theta   < >GtNm1   < >Salt    < >GsNm1   < >EtaN    < >dEtaHdt < >EtaH    <
(PID.TID 0000.0001)   nTimRec =   0 , timeList:
(PID.TID 0000.0001) READ_MFLDS_3D_RL: read field: "Uvel    ", #   1 in fldList, rec=   1
(PID.TID 0000.0001)  MDS_READ_FIELD: opening global file: pickup.0000072000
(PID.TID 0000.0001) READ_MFLDS_3D_RL: read field: "Vvel    ", #   3 in fldList, rec=   3
(PID.TID 0000.0001)  MDS_READ_FIELD: opening global file: pickup.0000072000
(PID.TID 0000.0001) READ_MFLDS_3D_RL: read field: "Theta   ", #   5 in fldList, rec=   5
(PID.TID 0000.0001)  MDS_READ_FIELD: opening global file: pickup.0000072000
(PID.TID 0000.0001) READ_MFLDS_3D_RL: read field: "Salt    ", #   7 in fldList, rec=   7
(PID.TID 0000.0001)  MDS_READ_FIELD: opening global file: pickup.0000072000
(PID.TID 0000.0001) READ_MFLDS_3D_RL: read field: "GuNm1   ", #   2 in fldList, rec=   2
(PID.TID 0000.0001)  MDS_READ_FIELD: opening global file: pickup.0000072000
(PID.TID 0000.0001) READ_MFLDS_3D_RL: field: "GuNm2   " missing in file: pickup.0000072000
(PID.TID 0000.0001) READ_MFLDS_3D_RL: read field: "GvNm1   ", #   4 in fldList, rec=   4
(PID.TID 0000.0001)  MDS_READ_FIELD: opening global file: pickup.0000072000
(PID.TID 0000.0001) READ_MFLDS_3D_RL: field: "GvNm2   " missing in file: pickup.0000072000
(PID.TID 0000.0001) READ_MFLDS_3D_RL: read field: "EtaN    ", #   9 in fldList, rec= 121
(PID.TID 0000.0001)  MDS_READ_FIELD: opening global file: pickup.0000072000
(PID.TID 0000.0001) READ_MFLDS_3D_RL: read field: "dEtaHdt ", #  10 in fldList, rec= 122
(PID.TID 0000.0001)  MDS_READ_FIELD: opening global file: pickup.0000072000
(PID.TID 0000.0001) READ_MFLDS_3D_RL: read field: "EtaH    ", #  11 in fldList, rec= 123
(PID.TID 0000.0001)  MDS_READ_FIELD: opening global file: pickup.0000072000
(PID.TID 0000.0001)  MDS_READ_FIELD: opening global file: trenberth_taux.bin
(PID.TID 0000.0001)  MDS_READ_FIELD: opening global file: trenberth_tauy.bin
(PID.TID 0000.0001)  MDS_READ_FIELD: opening global file: shiQnet_cs32.bin
(PID.TID 0000.0001)  MDS_READ_FIELD: opening global file: shiEmPR_cs32.bin
(PID.TID 0000.0001)  MDS_READ_FIELD: opening global file: lev_surfT_cs_12m.bin
(PID.TID 0000.0001)  MDS_READ_FIELD: opening global file: lev_surfS_cs_12m.bin
(PID.TID 0000.0001)  MDS_READ_FIELD: opening file: xx_theta.0000000000.001.001.data
(PID.TID 0000.0001)  MDS_READ_FIELD: opening file: xx_theta.0000000000.002.001.data
(PID.TID 0000.0001)  MDS_READ_FIELD: opening file: xx_theta.0000000000.003.001.data
(PID.TID 0000.0001)  MDS_READ_FIELD: opening file: xx_theta.0000000000.004.001.data
(PID.TID 0000.0001)  MDS_READ_FIELD: opening file: xx_theta.0000000000.005.001.data
(PID.TID 0000.0001)  MDS_READ_FIELD: opening file: xx_theta.0000000000.006.001.data
(PID.TID 0000.0001)  MDS_READ_FIELD: opening file: xx_salt.0000000000.001.001.data
(PID.TID 0000.0001)  MDS_READ_FIELD: opening file: xx_salt.0000000000.002.001.data
(PID.TID 0000.0001)  MDS_READ_FIELD: opening file: xx_salt.0000000000.003.001.data
(PID.TID 0000.0001)  MDS_READ_FIELD: opening file: xx_salt.0000000000.004.001.data
(PID.TID 0000.0001)  MDS_READ_FIELD: opening file: xx_salt.0000000000.005.001.data
(PID.TID 0000.0001)  MDS_READ_FIELD: opening file: xx_salt.0000000000.006.001.data
(PID.TID 0000.0001)  MDS_READ_FIELD: opening file: xx_diffkr.0000000000.001.001.data
(PID.TID 0000.0001)  MDS_READ_FIELD: opening file: xx_diffkr.0000000000.002.001.data
(PID.TID 0000.0001)  MDS_READ_FIELD: opening file: xx_diffkr.0000000000.003.001.data
(PID.TID 0000.0001)  MDS_READ_FIELD: opening file: xx_diffkr.0000000000.004.001.data
(PID.TID 0000.0001)  MDS_READ_FIELD: opening file: xx_diffkr.0000000000.005.001.data
(PID.TID 0000.0001)  MDS_READ_FIELD: opening file: xx_diffkr.0000000000.006.001.data
(PID.TID 0000.0001) // =======================================================
(PID.TID 0000.0001) // Model current state
(PID.TID 0000.0001) // =======================================================
(PID.TID 0000.0001) 
S/R EXTERNAL_FIELDS_LOAD: Reading new data:   12    1     72000  6.220800000000E+09
(PID.TID 0000.0001)  MDS_READ_FIELD: opening global file: trenberth_taux.bin
(PID.TID 0000.0001)  MDS_READ_FIELD: opening global file: trenberth_taux.bin
(PID.TID 0000.0001)  MDS_READ_FIELD: opening global file: trenberth_tauy.bin
(PID.TID 0000.0001)  MDS_READ_FIELD: opening global file: trenberth_tauy.bin
(PID.TID 0000.0001)  MDS_READ_FIELD: opening global file: shiQnet_cs32.bin
(PID.TID 0000.0001)  MDS_READ_FIELD: opening global file: shiQnet_cs32.bin
(PID.TID 0000.0001)  MDS_READ_FIELD: opening global file: shiEmPR_cs32.bin
(PID.TID 0000.0001)  MDS_READ_FIELD: opening global file: shiEmPR_cs32.bin
(PID.TID 0000.0001)  MDS_READ_FIELD: opening global file: lev_surfT_cs_12m.bin
(PID.TID 0000.0001)  MDS_READ_FIELD: opening global file: lev_surfT_cs_12m.bin
(PID.TID 0000.0001)  MDS_READ_FIELD: opening global file: lev_surfS_cs_12m.bin
(PID.TID 0000.0001)  MDS_READ_FIELD: opening global file: lev_surfS_cs_12m.bin
(PID.TID 0000.0001)  MDS_READ_FIELD: opening file: xx_tauu.0000000000.001.001.data
(PID.TID 0000.0001)  MDS_READ_FIELD: opening file: xx_tauu.0000000000.002.001.data
(PID.TID 0000.0001)  MDS_READ_FIELD: opening file: xx_tauu.0000000000.003.001.data
(PID.TID 0000.0001)  MDS_READ_FIELD: opening file: xx_tauu.0000000000.004.001.data
(PID.TID 0000.0001)  MDS_READ_FIELD: opening file: xx_tauu.0000000000.005.001.data
(PID.TID 0000.0001)  MDS_READ_FIELD: opening file: xx_tauu.0000000000.006.001.data
(PID.TID 0000.0001)  MDS_READ_FIELD: opening file: xx_tauv.0000000000.001.001.data
(PID.TID 0000.0001)  MDS_READ_FIELD: opening file: xx_tauv.0000000000.002.001.data
(PID.TID 0000.0001)  MDS_READ_FIELD: opening file: xx_tauv.0000000000.003.001.data
(PID.TID 0000.0001)  MDS_READ_FIELD: opening file: xx_tauv.0000000000.004.001.data
(PID.TID 0000.0001)  MDS_READ_FIELD: opening file: xx_tauv.0000000000.005.001.data
(PID.TID 0000.0001)  MDS_READ_FIELD: opening file: xx_tauv.0000000000.006.001.data
(PID.TID 0000.0001)  MDS_READ_FIELD: opening file: xx_sfl.0000000000.001.001.data
(PID.TID 0000.0001)  MDS_READ_FIELD: opening file: xx_sfl.0000000000.002.001.data
(PID.TID 0000.0001)  MDS_READ_FIELD: opening file: xx_sfl.0000000000.003.001.data
(PID.TID 0000.0001)  MDS_READ_FIELD: opening file: xx_sfl.0000000000.004.001.data
(PID.TID 0000.0001)  MDS_READ_FIELD: opening file: xx_sfl.0000000000.005.001.data
(PID.TID 0000.0001)  MDS_READ_FIELD: opening file: xx_sfl.0000000000.006.001.data
(PID.TID 0000.0001)  MDS_READ_FIELD: opening file: xx_hfl.0000000000.001.001.data
(PID.TID 0000.0001)  MDS_READ_FIELD: opening file: xx_hfl.0000000000.002.001.data
(PID.TID 0000.0001)  MDS_READ_FIELD: opening file: xx_hfl.0000000000.003.001.data
(PID.TID 0000.0001)  MDS_READ_FIELD: opening file: xx_hfl.0000000000.004.001.data
(PID.TID 0000.0001)  MDS_READ_FIELD: opening file: xx_hfl.0000000000.005.001.data
(PID.TID 0000.0001)  MDS_READ_FIELD: opening file: xx_hfl.0000000000.006.001.data
(PID.TID 0000.0001) SOLVE_FOR_PRESSURE: putPmEinXvector =    F
 cg2d: Sum(rhs),rhsMax =  -9.40758582146373E-12  4.28440421776334E+00
 cg2d: Sum(rhs),rhsMax =  -9.86233317235019E-12  4.27982545049019E+00
 cg2d: Sum(rhs),rhsMax =  -9.83391146291979E-12  4.27358143052737E+00
 cg2d: Sum(rhs),rhsMax =  -9.63495949690696E-12  4.26757584268638E+00
 cg2d: Sum(rhs),rhsMax =  -9.69180291576777E-12  4.26162662577399E+00
 cg2d: Sum(rhs),rhsMax =  -9.57811607804615E-12  4.25572412570963E+00
 cg2d: Sum(rhs),rhsMax =  -9.72022462519817E-12  4.24991959109555E+00
 cg2d: Sum(rhs),rhsMax =  -9.80548975348938E-12  4.24428631586586E+00
 cg2d: Sum(rhs),rhsMax =  -9.77706804405898E-12  4.23890090891366E+00
 cg2d: Sum(rhs),rhsMax =  -1.01749719760846E-11  4.23383240908017E+00
 cg2d: Sum(rhs),rhsMax =  -9.86233317235019E-12  4.22913459478265E+00
 cg2d: Sum(rhs),rhsMax =  -9.86233317235019E-12  4.22484530630559E+00
 cg2d: Sum(rhs),rhsMax =  -9.97602001007181E-12  4.22098691233292E+00
 cg2d: Sum(rhs),rhsMax =  -9.52127265918534E-12  4.21756850705932E+00
 cg2d: Sum(rhs),rhsMax =  -9.54969436861575E-12  4.21458763964385E+00
S/R EXTERNAL_FIELDS_LOAD: Reading new data:    1    2     72015  6.222096000000E+09
(PID.TID 0000.0001)  MDS_READ_FIELD: opening global file: trenberth_taux.bin
(PID.TID 0000.0001)  MDS_READ_FIELD: opening global file: trenberth_taux.bin
(PID.TID 0000.0001)  MDS_READ_FIELD: opening global file: trenberth_tauy.bin
(PID.TID 0000.0001)  MDS_READ_FIELD: opening global file: trenberth_tauy.bin
(PID.TID 0000.0001)  MDS_READ_FIELD: opening global file: shiQnet_cs32.bin
(PID.TID 0000.0001)  MDS_READ_FIELD: opening global file: shiQnet_cs32.bin
(PID.TID 0000.0001)  MDS_READ_FIELD: opening global file: shiEmPR_cs32.bin
(PID.TID 0000.0001)  MDS_READ_FIELD: opening global file: shiEmPR_cs32.bin
(PID.TID 0000.0001)  MDS_READ_FIELD: opening global file: lev_surfT_cs_12m.bin
(PID.TID 0000.0001)  MDS_READ_FIELD: opening global file: lev_surfT_cs_12m.bin
(PID.TID 0000.0001)  MDS_READ_FIELD: opening global file: lev_surfS_cs_12m.bin
(PID.TID 0000.0001)  MDS_READ_FIELD: opening global file: lev_surfS_cs_12m.bin
 cg2d: Sum(rhs),rhsMax =  -9.49285094975494E-12  4.21203168862954E+00
 cg2d: Sum(rhs),rhsMax =  -9.57811607804615E-12  4.20976597345981E+00
 cg2d: Sum(rhs),rhsMax =  -9.63495949690696E-12  4.20805788905293E+00
 cg2d: Sum(rhs),rhsMax =  -9.91917659121100E-12  4.20662079699616E+00
 cg2d: Sum(rhs),rhsMax =  -9.89075488178059E-12  4.20551574084278E+00
(PID.TID 0000.0001) Did not write pickup because writePickupAtEnd = FALSE
(PID.TID 0000.0001)  MDS_READ_FIELD: opening global file: lev_T_cs_15k.bin
 --> objf_test(bi,bj)   =  0.213649065486456E+05
 --> objf_tracer(bi,bj) =  0.000000000000000E+00
 --> objf_atl(bi,bj)    =  0.000000000000000E+00
 --> objf_test(bi,bj)   =  0.114793796470998E+05
 --> objf_tracer(bi,bj) =  0.000000000000000E+00
 --> objf_atl(bi,bj)    =  0.000000000000000E+00
 --> objf_test(bi,bj)   =  0.181911445086957E+05
 --> objf_tracer(bi,bj) =  0.000000000000000E+00
 --> objf_atl(bi,bj)    =  0.000000000000000E+00
 --> objf_test(bi,bj)   =  0.231468902279569E+05
 --> objf_tracer(bi,bj) =  0.000000000000000E+00
 --> objf_atl(bi,bj)    =  0.000000000000000E+00
 --> objf_test(bi,bj)   =  0.145252609490905E+05
 --> objf_tracer(bi,bj) =  0.000000000000000E+00
 --> objf_atl(bi,bj)    =  0.000000000000000E+00
 --> objf_test(bi,bj)   =  0.125100808745721E+05
 --> objf_tracer(bi,bj) =  0.000000000000000E+00
 --> objf_atl(bi,bj)    =  0.000000000000000E+00
  local fc =  0.101217662756060E+06
 global fc =  0.101217662756060E+06
 ph-check fcpertplus =   101217.663
(PID.TID 0000.0001)  MDS_READ_FIELD: opening file: xx_theta.0000000000.001.001.data
(PID.TID 0000.0001)  MDS_READ_FIELD: opening file: xx_theta.0000000000.002.001.data
(PID.TID 0000.0001)  MDS_READ_FIELD: opening file: xx_theta.0000000000.003.001.data
(PID.TID 0000.0001)  MDS_READ_FIELD: opening file: xx_theta.0000000000.004.001.data
(PID.TID 0000.0001)  MDS_READ_FIELD: opening file: xx_theta.0000000000.005.001.data
(PID.TID 0000.0001)  MDS_READ_FIELD: opening file: xx_theta.0000000000.006.001.data
 ph-check fcpertminus =   101217.626
(PID.TID 0000.0001)  MDS_READ_FIELD: opening file: xx_theta.0000000000.001.001.data
(PID.TID 0000.0001)  MDS_READ_FIELD: opening file: xx_theta.0000000000.002.001.data
(PID.TID 0000.0001)  MDS_READ_FIELD: opening file: xx_theta.0000000000.003.001.data
(PID.TID 0000.0001)  MDS_READ_FIELD: opening file: xx_theta.0000000000.004.001.data
(PID.TID 0000.0001)  MDS_READ_FIELD: opening file: xx_theta.0000000000.005.001.data
(PID.TID 0000.0001)  MDS_READ_FIELD: opening file: xx_theta.0000000000.006.001.data
(PID.TID 0000.0001)  MDS_READ_FIELD: opening global file: bathy_Hmin50.bin
(PID.TID 0000.0001) // =======================================================
(PID.TID 0000.0001) // Field Model R_low (ini_masks_etc) at iteration          1
(PID.TID 0000.0001) // CMIN =         -5.200000000000000E+03
(PID.TID 0000.0001) // CMAX =         -5.000000000000000E+01
(PID.TID 0000.0001) // CINT =          1.907407407407407E+02
(PID.TID 0000.0001) // SYMBOLS (CMIN->CMAX): -abcdefghijklmnopqrstuvwxyz+
(PID.TID 0000.0001) //                  0.0: .
(PID.TID 0000.0001) // RANGE I (Lo:Hi:Step):(    -3:   196:     1)
(PID.TID 0000.0001) // RANGE J (Lo:Hi:Step):(    36:    -3:    -1)
(PID.TID 0000.0001) // RANGE K (Lo:Hi:Step):(   1:   1:   1)
(PID.TID 0000.0001) // =======================================================
(PID.TID 0000.0001) K =   1
(PID.TID 0000.0001) //                I=6       I=16      I=26      I=36      I=38      I=48      I=58      I=68      I=70      I=80      I=90      I=100     I=102     I=112     I=122     I=132     I=134     I=144     I=154     I=164     I=166     I=176     I=186     I=196
(PID.TID 0000.0001) // |--J--|321012345|789012345|789012345|789012345|901234567|901234567|901234567|901234567|123456789|123456789|123456789|123456789|345678901|345678901|345678901|345678901|567890123|567890123|567890123|567890123|789012345|789012345|789012345|789012345|
(PID.TID 0000.0001) //     36 cbbc-ddcbcdehkhhmn..++..................................................okn.skko--a-fc----bba-cp.............tfeecccbbdeecccbbdeddedcdcccdddcddffggghiggfffdeeffijlihjlica---a--cgffel.+edfgeedflcbahgfllcbahgfllfhdffhkfffca-aady...llnabdoa--a
(PID.TID 0000.0001) //     35 dcac--cbbeefjkfefw+..........zpu........................................kqnzrqqk--b-da----bbbbfu..............fdddccaadcddccaadcdddcbbbbcdddcccdffffghgffffddefflligfiljfba---aafddehy...pwvlhfffcbagfccfcbagfcceeffffjlkjgaa---bfvheeln-aesaaab
(PID.TID 0000.0001) //     34 d--ba-abcehjnldcclz+........spps.......................................vkqn+xnnncabbcbba--aabfu+..............hcbaaaaaccbaaaaaccdccbaaabbddddccdffffghfeeeeedeffjiffefilhfcaaaacgceei.......zomggfcaecbbgfcaecbbccddefilihecbaacbaajfega-aesfeed
(PID.TID 0000.0001) //     33 --abbbccceiomkfdbbc+.......+s..........................................xsrxzz+z.fdcddb-----adu+...............hcbaa--accbaa--accddba--bbbddddccdfffhhgfeeddcceddhfeddfgikhfffdfgccffw........zohhgebbaaahgebbaaaaaccdfhlhfefdcccaabjefbaaafoosso
(PID.TID 0000.0001) //     32 --bddefhhkqqlgfaakqz..v.+..+.........................................++..u+....zigfdba----adu+................kdcaaa-acccaaa-accdcb---bbbcdddddefffggfeeedcccccbccbbdcdfgghhiihcbeiw.........+ynjgebaaaajgebaaaa-aacccfikkhecccbbbaaabaadfklnqpp
(PID.TID 0000.0001) //     31 abbcffijnpnqneaaat..umrr+s.z.........................................+++++.ztsvdlifeb--dfdfu+................+lkdca--abcdca--abcccb---bbbbddddeffflhfeeeecbbbbaaba-abbacbcdceffbbfw+..........++ujfbaaa-ujfbaaa----aacffiljgfffcca--adfikkiihhhf
(PID.TID 0000.0001) //     30 --adgillkkkifcadcx.ymmqzqikvnnps.....................................+++++wmegt-jlifcacdlqx+++...............mligea---abgea---abbbb---abaaddddeedkmeddefdbbbaaaabc---b--aaaaabaabm..............+viba---+viba-------acdefinmlgiieb-chnnnmlmlgffc
(PID.TID 0000.0001) //     29 --cfiljigfjd--efdozy...+ximpnnuz......................................+++yqddhp-iljhcbbchz+......++.........+mmhffc----affc----aaba------acdddcbcineddgdbaaa----cdd--a------aa-bfz...............+qe---a.+qe---aa---aedeegknmlgiigcdfhpokkimlfdb
(PID.TID 0000.0001) //     28 -abgkhfcccea-bdei........t............................................++zwgfcfk-gknhccbbhwwy.....+++........+njfeed-----eed-----aa-------abddcabcnfddegcaaa-----hlf------------dk+................+ja---..+ja------bffdddehfd--bedaacfhpnligiihd
(PID.TID 0000.0001) //     27 -acghfbaaaa-achmy......................+.......+++....................++vnbbbclefkpkeeecflmqxy....++........+lhfeecc----eecc------------aaadcbabcfhddccba-------zqd-----------irw.................++e---..++e-----mhmijddda--------ahhfiokhedegg
(PID.TID 0000.0001) //     26 -adhfca-----bfiv.......................+.......++sy...................+tq-fdbblcjknqiheddefhiksz++++........zkhfdccb----dccb------------aabdcaaaacfddbca-------a+xfa-abb-----vvv...................+wa--...+wa---mlmkijhc----------cjjffiheb-aad
(PID.TID 0000.0001) //     25 -achfa------ch+..................w.......w.......njo+................+x-----bcgidiqqojfefiiiijmy.++.........zkhfdbaa----dbaa-------daa---acccaaaacccca--------ac.+udaabbb----tei...................++qde...++qdeqnghiljcaaaaidaa----beedeeca--bb
(PID.TID 0000.0001) //     24 aaeifa--acbcei...................w.......w.......likn+.....++.....++znpa----bbdi-fnlmnjhinlksssw............qhfeca------ca--------addc--aeffaaaaaaccb-a----a--bd.++udbbaba---ven....................++xy....++xywnfgllcbbabegkecba----ddddcaacdc
(PID.TID 0000.0001) //     23 abfida-aabchjk...................zz......zz.....nhhijz....tqq.....+ujgzgd---abci-cegklkkknols..xuu..........zgfdba------ba--------bcd---affaaadffabbb-----aa-bcc.+.+ufb-----l.gx...........s.........++z.....++zzkfilfccccoz..ulkcd---bccnfddddd
(PID.TID 0000.0001) //     22 -afhfaa---bfgi....................zz..rn..zz..rnjffggm...nlmn+....+sffzya--aabcieaaffdfhimrmp...yuu.++.......zudba------ba--------adc---dda-adffe-aa--------aaac....+ufc-baaqvhh..........dcfeeh......++......++zggqvifefhz......zobbaccfwuffeee
(PID.TID 0000.0001) //     21 babcgca----abe.....................ysstl...ysstlgeeeeoz..ijklt+....lfjzzf---adfcfdaadcehllotq....yy+++zzs.....+zcba-----cba-------cdd--aaa----df------------aaac.....+upjdcy.vohq.......+idcdfeeefwz....efwz....+hhn.vklox.........gdccfjwrigffh
(PID.TID 0000.0001) //     20 fbbbcgfcaa-aae+.......................lc......lcgfdddhq.+hiilnz++.+oquxyz--adgkfdcaabcfmtooyxz......+yuiiy....++gb------gb--------ddcca-a-----acbaa------bbaaaab........ywxy.lulo.lv...kcdgddffefffilyx+fffilyx+fffk.+xyyy.........mgeimvskjklll
(PID.TID 0000.0001) //     19 zmfeccdghfeegcbt......................aa......aafifccgnrzgghjry.+++sr+lq.--edfkkoxtkblwnnsp.vv......skhggt...+++t-------t---------bdaf---------edd-------adlaaaa+..........vnhzy.tllqiedccdhggfggffiiggfgffiiggfcbdgy..yz..........xigqophijkkii
(PID.TID 0000.0001) //     18 ..wifedfkhfegbbcivlqfoz..............jaa.....jaacfihggokeeffgt..++++..hhlfdeddkez..qcz+.zwxtsttz..ysrkhot++++++zig------ig--------b--f---------egqqqaa----frb---+........+kkrhw.vqmlnieddcdehgggffgigedbffgigedbaaceiy.............zilrddefikkhh
(PID.TID 0000.0001) //     17 ..+wfeefikhgcbbccaaacgn.............icaa....icaaccfihfoedddeedy..++...nnqwgfeekeyy.z++..+zsjjllllljllpjos+++.+zhhi-----ehi-----e-----ea--------foqqoqqo--hlwgea-.........+nk+..xiioonhfefddegihhghigfdbaghigfdbaaabdgx..............nheddefiklhg
(PID.TID 0000.0001) //     16 ....wiheddeccdfhfbabdfl............jdbad...jdbaddddgifkccccdccd+.++..++ynvz.tkkq.mu....++zyslllllkhggkmpy++...ihhi-----ehi-----ea---feb-----a-acnoohfghknvmwnuca..........qhu..hhhkojgffgeefghihhiieedbahiieedbaaabcdy..............ygddeghiljgf
(PID.TID 0000.0001) //     15 ......ylea--acfihebcbbes..........sfcbbn..sfcbbngfffigcaaabdbcac+.+++++zgmpx...y.mm....++..zslwz.yhhhhnz+++...rhgc----abgc----ab----ige----acaaalllkddfiy..yswxb..........thk.xgghiligfghfefhhhhiiheedcdiiheedcdbbabdmz.............zfdeghikkifd
(PID.TID 0000.0001) //     14 ........c---acgkhdcc--di..........ofddch..ofddchohffikaaaaabaaa-aw+.+ysnggox++...qrv..........yzzzzrjil+++....qhgd-----agd-----a-----i---cccdeabkklldinqssy..xxv...........+y.uhghikihgfghefgihhhgeeeeedhgeeeeeddbaadhw.............nedeghjjhfed
(PID.TID 0000.0001) //     13 .......+b----cfkhec---afz.........nhfdff..nhfdffholghkaaaaaba-a---flkkuswyy++++y+zr...........zzzzz++ry++......yd-------d--------------aeecdeidfkkqnqlmqquukqqmf..............iihiijjhfefgefhjihiffgggffiffgggffecaabelx...........zjecehijhfecc
(PID.TID 0000.0001) //     12 .......ec----chjhec---ag..........skiqdd..skiqddeiiiifaaabae--a---dd--iu+++.+++sxq++..........+z+++++.+++....++.s-------s------------a-ceccdejhlllkqlkklssiccdee.............wjkkkjjjigeefffgjiiighiiihhighiiihhhdaabdffghtxx......mfccehjiffdb-
(PID.TID 0000.0001) //     11 ......pdca--achlheba--ai..........nkn.fd..nkn.fdemijidaaaabi-------a--q+....++.ziis...........+++++..........+yyza----b-za----b-----a--ccccddkhieekkossssfbbbbcd............njjijhhihijhgggggjjjjijkkkkjjijkkkkjjhcaacddeegpy.....xfdccdhjgfdda-
(PID.TID 0000.0001) //     10 ......wfdb--achlhea---an.........uos..dc.uos..dcemikkfdcaabi-------equ+.........mk...........................zyvuq----ccuq----cc----a---dcfhkopqjeissrnpfbbcccde..........zslihhigghgijjihhhhkllkkkkkkjkkkkkkkjkkkedccdeeeeipz..zwhccbcdhgfddcam
(PID.TID 0000.0001) //      9 ......vgec---bfikca--cjl+.......+nnv.+cc+nnv.+ccffhkkiddaadha-----as++..........pvz++........................zxuuk------uk------a---a----djmqrrnlllsoiddcccccdjf.........+zjijhfgfggffhjkkkiillljihhghgijihhghgihighdeeffgghimnnjgecbbcdgfeccbas
(PID.TID 0000.0001) //      8 .....zleca---afjfca--hdfz.......vkky.jcevkky.jceddefijffdddhb--a-afv............nn..ss.........................+yku-----yku--------------ejnpqqnninnritqdccchkmf+.......wihgghgeffffeefhijkjkljiigeeffefigeeffefffhjhhikkklljklmhffeeeggfdcbaay.
(PID.TID 0000.0001) //      7 ...+zohec--abcfkhecbchbdx.......qiht.faaqiht.faaaabdgijgfededcdcb-f+............nn...pz.........................+zu-----+zu--------------edefqgqddsz+......+yuddmm+....tiggfggfeeeefeeefiiiijkiihhedddddhheddddddddjjllliijhfkmmkkjjhijgdcba--q.
(PID.TID 0000.0001) //      6 ..+yomfddcaabefkifdchaadt......uqdeisc--qdeisc----dfefgifffkklldc--v............up...pp.........................v.x-----v.x---------a----fbbpqgzenx+........zdbcmllkhhfffffffgfeeeeeeeefhhhhijihhffddcbbhffddcbbbbdhhiihedddb-cfhhhjjjieca----+.
(PID.TID 0000.0001) //      5 ..+nhgffkghccfhkhffgdaackz....uoibcimlaaibcimlaaacfbddfjjhijeehf-a-c............zs...su.........................qk.yi---qk.yi-------gha-fjddqs+xkrz.........q-bchikdccdeeeeeeedddedddddgghhhhjhhgffcbbaagffcbbaaaaddfegecca----dfeefhfgdb-----+.
(PID.TID 0000.0001) //      4 .+ujhgfllfhdffhkfffca-aady...llnabdopfcbabdopfcbdgdbcdehlihgfddc--ms............................................okn.zd--okn.zd---eciiiicfkeeqy.ysz..........n-aafgdcbbdeddedcdcccdddcddffggghiggfffdbaa-fffdbaa---acdcccba--abvfedeffdcca----b+.
(PID.TID 0000.0001) //      3 +vjggfcceeffffjlkjgaa---bfvheeln-aesphfd-aesphfdhgabddeflihhgfecbaaayq+++++.....................................kqnz.vtpkqnz.vtpkllgdccfkkkkk..++..........+g---fecaaadcdddcbbbbcdddcccdffffghgffffdcaa-fffdcaa----abcaaaa-acxxmecdjmdbba----r+.
(PID.TID 0000.0001) //      2 qifeecbbccddefilihecbaacbaajfega-aesqhff-aesqhffiea-cdeflkkljifeddcba---bry+...................................vkqn+.sghkqn+.sghfcbcbbbdgfdek.++++.........+l---caaaaaccdccbaaabbddddccdffffghfeeeeecba-eeeecba------baaaa-euwxqdbcdkud-----sy+.
(PID.TID 0000.0001) //      1 ebbbbaaaaaccdfhlhfefdcccaabjefbaaafonhglaafonhglid--adfgkkkklkhffddca-----s++++................................xsrxz.tedsrxz.tedcbbbbaaadddet.++++.........+l------a-accddba--bbbddddccdfffhhgfeeddccba-eddccba-------aaaabgns.qcbcchyzqngll++..
(PID.TID 0000.0001) //      0 -aaaaaaa-aacccfikkhecccbbbaaabaadfkllilmdfkllilmgebaadfijjiiikjhffdcba-----lllgn.............................++..u+..zmd.u+..zmdfbd---a-aeef.xx+..........+++s-------accdcb---bbbcdddddefffggfeeedcccbbaedcccbba----aa--alrwwy.kcbccc+...++++...
(PID.TID 0000.0001) //     -1 --aaaaa----aacffiljgfffcca--adfikkiikimikkiikimiiheccfurkiffhijjigfecb-----l----.............................+++++.z+.wq++.z+.wqgbf-------dgzpoy+........+ys+yrb--aa-abcccb---bbbbddddeffflhfeeeecbbcbbaecbbcbbaa----a--bdflm.yuibbcc.......+...
(PID.TID 0000.0001) //     -2 --aaa-------acdefinmlgiieb-chnnnmlmlfklkmlmlfklklkhednwwsheeghhijjgfdca----g---a.............................+++++wmu++y++wmu++ywn--------fwvmgy+........+r-.+++-abc--abbbb---abaaddddeedkmeddefdbbbdcbadbbbdcbaa-------ba-hv.susfbcc.......+...
(PID.TID 0000.0001) //     -3 a--a---aa---aedeegknmlgiigcdfhpokkimdkmkkkimdkmknoiedcfjvpddegghhhhgfdcbaa-n---a..............................+++yqd.++++yqd.+++zvq--dafz.lqnggw+........+b-....abcc---aaba------acdddcbcineddgdbaaaeedbbaaaeedbaa----------nysqssfcd...........
(PID.TID 0000.0001) // =======================================================
(PID.TID 0000.0001) // END OF FIELD                                          =
(PID.TID 0000.0001) // =======================================================
(PID.TID 0000.0001) 
(PID.TID 0000.0001) // =======================================================
(PID.TID 0000.0001) // Field Model Ro_surf (ini_masks_etc) at iteration          1
(PID.TID 0000.0001) // CMIN =         -7.105427357601002E-15
(PID.TID 0000.0001) // CMAX =         -7.105427357601002E-15
(PID.TID 0000.0001) // CINT =          0.000000000000000E+00
(PID.TID 0000.0001) // SYMBOLS (CMIN->CMAX): -abcdefghijklmnopqrstuvwxyz+
(PID.TID 0000.0001) //                  0.0: .
(PID.TID 0000.0001) // RANGE I (Lo:Hi:Step):(    -3:   196:     1)
(PID.TID 0000.0001) // RANGE J (Lo:Hi:Step):(    36:    -3:    -1)
(PID.TID 0000.0001) // RANGE K (Lo:Hi:Step):(   1:   1:   1)
(PID.TID 0000.0001) // =======================================================
(PID.TID 0000.0001) // =======================================================
(PID.TID 0000.0001) // END OF FIELD                                          =
(PID.TID 0000.0001) // =======================================================
(PID.TID 0000.0001) 
(PID.TID 0000.0001) // =======================================================
(PID.TID 0000.0001) // Field hFacC at iteration          1
(PID.TID 0000.0001) // CMIN =          1.000000000000000E+00
(PID.TID 0000.0001) // CMAX =          1.000000000000000E+00
(PID.TID 0000.0001) // CINT =          0.000000000000000E+00
(PID.TID 0000.0001) // SYMBOLS (CMIN->CMAX): -abcdefghijklmnopqrstuvwxyz+
(PID.TID 0000.0001) //                  0.0: .
(PID.TID 0000.0001) // RANGE I (Lo:Hi:Step):(    -3:   196:     1)
(PID.TID 0000.0001) // RANGE J (Lo:Hi:Step):(    36:    -3:    -1)
(PID.TID 0000.0001) // RANGE K (Lo:Hi:Step):(   1:   1:   1)
(PID.TID 0000.0001) // =======================================================
(PID.TID 0000.0001) // =======================================================
(PID.TID 0000.0001) // END OF FIELD                                          =
(PID.TID 0000.0001) // =======================================================
(PID.TID 0000.0001) 
(PID.TID 0000.0001) // =======================================================
(PID.TID 0000.0001) // Field hFacW at iteration          1
(PID.TID 0000.0001) // CMIN =          1.000000000000000E+00
(PID.TID 0000.0001) // CMAX =          1.000000000000000E+00
(PID.TID 0000.0001) // CINT =          0.000000000000000E+00
(PID.TID 0000.0001) // SYMBOLS (CMIN->CMAX): -abcdefghijklmnopqrstuvwxyz+
(PID.TID 0000.0001) //                  0.0: .
(PID.TID 0000.0001) // RANGE I (Lo:Hi:Step):(    -3:   196:     1)
(PID.TID 0000.0001) // RANGE J (Lo:Hi:Step):(    36:    -3:    -1)
(PID.TID 0000.0001) // RANGE K (Lo:Hi:Step):(   1:   1:   1)
(PID.TID 0000.0001) // =======================================================
(PID.TID 0000.0001) // =======================================================
(PID.TID 0000.0001) // END OF FIELD                                          =
(PID.TID 0000.0001) // =======================================================
(PID.TID 0000.0001) 
(PID.TID 0000.0001) // =======================================================
(PID.TID 0000.0001) // Field hFacS at iteration          1
(PID.TID 0000.0001) // CMIN =          1.000000000000000E+00
(PID.TID 0000.0001) // CMAX =          1.000000000000000E+00
(PID.TID 0000.0001) // CINT =          0.000000000000000E+00
(PID.TID 0000.0001) // SYMBOLS (CMIN->CMAX): -abcdefghijklmnopqrstuvwxyz+
(PID.TID 0000.0001) //                  0.0: .
(PID.TID 0000.0001) // RANGE I (Lo:Hi:Step):(    -3:   196:     1)
(PID.TID 0000.0001) // RANGE J (Lo:Hi:Step):(    36:    -3:    -1)
(PID.TID 0000.0001) // RANGE K (Lo:Hi:Step):(   1:   1:   1)
(PID.TID 0000.0001) // =======================================================
(PID.TID 0000.0001) // =======================================================
(PID.TID 0000.0001) // END OF FIELD                                          =
(PID.TID 0000.0001) // =======================================================
(PID.TID 0000.0001) 
(PID.TID 0000.0001) INI_CG2D: CG2D normalisation factor =  1.9156564154949553E-04
(PID.TID 0000.0001) INI_CG2D: cg2dTolerance = 5.809016360175293E-07 (Area=3.6388673751E+14)
(PID.TID 0000.0001) 
(PID.TID 0000.0001)  MDS_READ_META: opening file: pickup.0000072000.meta
(PID.TID 0000.0001)  nRecords = 123 ; filePrec =  64 ; fileIter =     72000
(PID.TID 0000.0001)     nDims =   2 , dims:
(PID.TID 0000.0001)    1: 192   1 192
(PID.TID 0000.0001)    2:  32   1  32
(PID.TID 0000.0001)     nFlds =  11 , nFl3D =   8 , fields:
(PID.TID 0000.0001)  >Uvel    < >GuNm1   < >Vvel    < >GvNm1   < >Theta   < >GtNm1   < >Salt    < >GsNm1   < >EtaN    < >dEtaHdt < >EtaH    <
(PID.TID 0000.0001)   nTimRec =   0 , timeList:
(PID.TID 0000.0001) READ_MFLDS_3D_RL: read field: "Uvel    ", #   1 in fldList, rec=   1
(PID.TID 0000.0001)  MDS_READ_FIELD: opening global file: pickup.0000072000
(PID.TID 0000.0001) READ_MFLDS_3D_RL: read field: "Vvel    ", #   3 in fldList, rec=   3
(PID.TID 0000.0001)  MDS_READ_FIELD: opening global file: pickup.0000072000
(PID.TID 0000.0001) READ_MFLDS_3D_RL: read field: "Theta   ", #   5 in fldList, rec=   5
(PID.TID 0000.0001)  MDS_READ_FIELD: opening global file: pickup.0000072000
(PID.TID 0000.0001) READ_MFLDS_3D_RL: read field: "Salt    ", #   7 in fldList, rec=   7
(PID.TID 0000.0001)  MDS_READ_FIELD: opening global file: pickup.0000072000
(PID.TID 0000.0001) READ_MFLDS_3D_RL: read field: "GuNm1   ", #   2 in fldList, rec=   2
(PID.TID 0000.0001)  MDS_READ_FIELD: opening global file: pickup.0000072000
(PID.TID 0000.0001) READ_MFLDS_3D_RL: field: "GuNm2   " missing in file: pickup.0000072000
(PID.TID 0000.0001) READ_MFLDS_3D_RL: read field: "GvNm1   ", #   4 in fldList, rec=   4
(PID.TID 0000.0001)  MDS_READ_FIELD: opening global file: pickup.0000072000
(PID.TID 0000.0001) READ_MFLDS_3D_RL: field: "GvNm2   " missing in file: pickup.0000072000
(PID.TID 0000.0001) READ_MFLDS_3D_RL: read field: "EtaN    ", #   9 in fldList, rec= 121
(PID.TID 0000.0001)  MDS_READ_FIELD: opening global file: pickup.0000072000
(PID.TID 0000.0001) READ_MFLDS_3D_RL: read field: "dEtaHdt ", #  10 in fldList, rec= 122
(PID.TID 0000.0001)  MDS_READ_FIELD: opening global file: pickup.0000072000
(PID.TID 0000.0001) READ_MFLDS_3D_RL: read field: "EtaH    ", #  11 in fldList, rec= 123
(PID.TID 0000.0001)  MDS_READ_FIELD: opening global file: pickup.0000072000
(PID.TID 0000.0001)  MDS_READ_FIELD: opening global file: trenberth_taux.bin
(PID.TID 0000.0001)  MDS_READ_FIELD: opening global file: trenberth_tauy.bin
(PID.TID 0000.0001)  MDS_READ_FIELD: opening global file: shiQnet_cs32.bin
(PID.TID 0000.0001)  MDS_READ_FIELD: opening global file: shiEmPR_cs32.bin
(PID.TID 0000.0001)  MDS_READ_FIELD: opening global file: lev_surfT_cs_12m.bin
(PID.TID 0000.0001)  MDS_READ_FIELD: opening global file: lev_surfS_cs_12m.bin
(PID.TID 0000.0001)  MDS_READ_FIELD: opening file: xx_theta.0000000000.001.001.data
(PID.TID 0000.0001)  MDS_READ_FIELD: opening file: xx_theta.0000000000.002.001.data
(PID.TID 0000.0001)  MDS_READ_FIELD: opening file: xx_theta.0000000000.003.001.data
(PID.TID 0000.0001)  MDS_READ_FIELD: opening file: xx_theta.0000000000.004.001.data
(PID.TID 0000.0001)  MDS_READ_FIELD: opening file: xx_theta.0000000000.005.001.data
(PID.TID 0000.0001)  MDS_READ_FIELD: opening file: xx_theta.0000000000.006.001.data
(PID.TID 0000.0001)  MDS_READ_FIELD: opening file: xx_salt.0000000000.001.001.data
(PID.TID 0000.0001)  MDS_READ_FIELD: opening file: xx_salt.0000000000.002.001.data
(PID.TID 0000.0001)  MDS_READ_FIELD: opening file: xx_salt.0000000000.003.001.data
(PID.TID 0000.0001)  MDS_READ_FIELD: opening file: xx_salt.0000000000.004.001.data
(PID.TID 0000.0001)  MDS_READ_FIELD: opening file: xx_salt.0000000000.005.001.data
(PID.TID 0000.0001)  MDS_READ_FIELD: opening file: xx_salt.0000000000.006.001.data
(PID.TID 0000.0001)  MDS_READ_FIELD: opening file: xx_diffkr.0000000000.001.001.data
(PID.TID 0000.0001)  MDS_READ_FIELD: opening file: xx_diffkr.0000000000.002.001.data
(PID.TID 0000.0001)  MDS_READ_FIELD: opening file: xx_diffkr.0000000000.003.001.data
(PID.TID 0000.0001)  MDS_READ_FIELD: opening file: xx_diffkr.0000000000.004.001.data
(PID.TID 0000.0001)  MDS_READ_FIELD: opening file: xx_diffkr.0000000000.005.001.data
(PID.TID 0000.0001)  MDS_READ_FIELD: opening file: xx_diffkr.0000000000.006.001.data
(PID.TID 0000.0001) // =======================================================
(PID.TID 0000.0001) // Model current state
(PID.TID 0000.0001) // =======================================================
(PID.TID 0000.0001) 
S/R EXTERNAL_FIELDS_LOAD: Reading new data:   12    1     72000  6.220800000000E+09
(PID.TID 0000.0001)  MDS_READ_FIELD: opening global file: trenberth_taux.bin
(PID.TID 0000.0001)  MDS_READ_FIELD: opening global file: trenberth_taux.bin
(PID.TID 0000.0001)  MDS_READ_FIELD: opening global file: trenberth_tauy.bin
(PID.TID 0000.0001)  MDS_READ_FIELD: opening global file: trenberth_tauy.bin
(PID.TID 0000.0001)  MDS_READ_FIELD: opening global file: shiQnet_cs32.bin
(PID.TID 0000.0001)  MDS_READ_FIELD: opening global file: shiQnet_cs32.bin
(PID.TID 0000.0001)  MDS_READ_FIELD: opening global file: shiEmPR_cs32.bin
(PID.TID 0000.0001)  MDS_READ_FIELD: opening global file: shiEmPR_cs32.bin
(PID.TID 0000.0001)  MDS_READ_FIELD: opening global file: lev_surfT_cs_12m.bin
(PID.TID 0000.0001)  MDS_READ_FIELD: opening global file: lev_surfT_cs_12m.bin
(PID.TID 0000.0001)  MDS_READ_FIELD: opening global file: lev_surfS_cs_12m.bin
(PID.TID 0000.0001)  MDS_READ_FIELD: opening global file: lev_surfS_cs_12m.bin
(PID.TID 0000.0001)  MDS_READ_FIELD: opening file: xx_tauu.0000000000.001.001.data
(PID.TID 0000.0001)  MDS_READ_FIELD: opening file: xx_tauu.0000000000.002.001.data
(PID.TID 0000.0001)  MDS_READ_FIELD: opening file: xx_tauu.0000000000.003.001.data
(PID.TID 0000.0001)  MDS_READ_FIELD: opening file: xx_tauu.0000000000.004.001.data
(PID.TID 0000.0001)  MDS_READ_FIELD: opening file: xx_tauu.0000000000.005.001.data
(PID.TID 0000.0001)  MDS_READ_FIELD: opening file: xx_tauu.0000000000.006.001.data
(PID.TID 0000.0001)  MDS_READ_FIELD: opening file: xx_tauv.0000000000.001.001.data
(PID.TID 0000.0001)  MDS_READ_FIELD: opening file: xx_tauv.0000000000.002.001.data
(PID.TID 0000.0001)  MDS_READ_FIELD: opening file: xx_tauv.0000000000.003.001.data
(PID.TID 0000.0001)  MDS_READ_FIELD: opening file: xx_tauv.0000000000.004.001.data
(PID.TID 0000.0001)  MDS_READ_FIELD: opening file: xx_tauv.0000000000.005.001.data
(PID.TID 0000.0001)  MDS_READ_FIELD: opening file: xx_tauv.0000000000.006.001.data
(PID.TID 0000.0001)  MDS_READ_FIELD: opening file: xx_sfl.0000000000.001.001.data
(PID.TID 0000.0001)  MDS_READ_FIELD: opening file: xx_sfl.0000000000.002.001.data
(PID.TID 0000.0001)  MDS_READ_FIELD: opening file: xx_sfl.0000000000.003.001.data
(PID.TID 0000.0001)  MDS_READ_FIELD: opening file: xx_sfl.0000000000.004.001.data
(PID.TID 0000.0001)  MDS_READ_FIELD: opening file: xx_sfl.0000000000.005.001.data
(PID.TID 0000.0001)  MDS_READ_FIELD: opening file: xx_sfl.0000000000.006.001.data
(PID.TID 0000.0001)  MDS_READ_FIELD: opening file: xx_hfl.0000000000.001.001.data
(PID.TID 0000.0001)  MDS_READ_FIELD: opening file: xx_hfl.0000000000.002.001.data
(PID.TID 0000.0001)  MDS_READ_FIELD: opening file: xx_hfl.0000000000.003.001.data
(PID.TID 0000.0001)  MDS_READ_FIELD: opening file: xx_hfl.0000000000.004.001.data
(PID.TID 0000.0001)  MDS_READ_FIELD: opening file: xx_hfl.0000000000.005.001.data
(PID.TID 0000.0001)  MDS_READ_FIELD: opening file: xx_hfl.0000000000.006.001.data
(PID.TID 0000.0001) SOLVE_FOR_PRESSURE: putPmEinXvector =    F
 cg2d: Sum(rhs),rhsMax =  -9.43600753089413E-12  4.28440421776334E+00
 cg2d: Sum(rhs),rhsMax =  -9.54969436861575E-12  4.27982545055295E+00
 cg2d: Sum(rhs),rhsMax =  -9.77706804405898E-12  4.27358143119610E+00
 cg2d: Sum(rhs),rhsMax =  -9.66338120633736E-12  4.26757584427961E+00
 cg2d: Sum(rhs),rhsMax =  -9.69180291576777E-12  4.26162662859361E+00
 cg2d: Sum(rhs),rhsMax =  -9.72022462519817E-12  4.25572412990417E+00
 cg2d: Sum(rhs),rhsMax =  -9.52127265918534E-12  4.24991959665274E+00
 cg2d: Sum(rhs),rhsMax =  -9.66338120633736E-12  4.24428632261011E+00
 cg2d: Sum(rhs),rhsMax =  -9.49285094975494E-12  4.23890091658479E+00
 cg2d: Sum(rhs),rhsMax =  -9.72022462519817E-12  4.23383241736528E+00
 cg2d: Sum(rhs),rhsMax =  -9.66338120633736E-12  4.22913460343591E+00
 cg2d: Sum(rhs),rhsMax =  -9.77706804405898E-12  4.22484531519102E+00
 cg2d: Sum(rhs),rhsMax =  -9.83391146291979E-12  4.22098692134078E+00
 cg2d: Sum(rhs),rhsMax =  -9.52127265918534E-12  4.21756851604016E+00
 cg2d: Sum(rhs),rhsMax =  -9.77706804405898E-12  4.21458764837716E+00
S/R EXTERNAL_FIELDS_LOAD: Reading new data:    1    2     72015  6.222096000000E+09
(PID.TID 0000.0001)  MDS_READ_FIELD: opening global file: trenberth_taux.bin
(PID.TID 0000.0001)  MDS_READ_FIELD: opening global file: trenberth_taux.bin
(PID.TID 0000.0001)  MDS_READ_FIELD: opening global file: trenberth_tauy.bin
(PID.TID 0000.0001)  MDS_READ_FIELD: opening global file: trenberth_tauy.bin
(PID.TID 0000.0001)  MDS_READ_FIELD: opening global file: shiQnet_cs32.bin
(PID.TID 0000.0001)  MDS_READ_FIELD: opening global file: shiQnet_cs32.bin
(PID.TID 0000.0001)  MDS_READ_FIELD: opening global file: shiEmPR_cs32.bin
(PID.TID 0000.0001)  MDS_READ_FIELD: opening global file: shiEmPR_cs32.bin
(PID.TID 0000.0001)  MDS_READ_FIELD: opening global file: lev_surfT_cs_12m.bin
(PID.TID 0000.0001)  MDS_READ_FIELD: opening global file: lev_surfT_cs_12m.bin
(PID.TID 0000.0001)  MDS_READ_FIELD: opening global file: lev_surfS_cs_12m.bin
(PID.TID 0000.0001)  MDS_READ_FIELD: opening global file: lev_surfS_cs_12m.bin
 cg2d: Sum(rhs),rhsMax =  -9.57811607804615E-12  4.21203169680098E+00
 cg2d: Sum(rhs),rhsMax =  -9.69180291576777E-12  4.20976598075294E+00
 cg2d: Sum(rhs),rhsMax =  -9.74864633462857E-12  4.20805789518083E+00
 cg2d: Sum(rhs),rhsMax =  -9.63495949690696E-12  4.20662080178243E+00
 cg2d: Sum(rhs),rhsMax =  -9.52127265918534E-12  4.20551574421837E+00
(PID.TID 0000.0001) Did not write pickup because writePickupAtEnd = FALSE
(PID.TID 0000.0001)  MDS_READ_FIELD: opening global file: lev_T_cs_15k.bin
 --> objf_test(bi,bj)   =  0.213648456224113E+05
 --> objf_tracer(bi,bj) =  0.000000000000000E+00
 --> objf_atl(bi,bj)    =  0.000000000000000E+00
 --> objf_test(bi,bj)   =  0.114793796458840E+05
 --> objf_tracer(bi,bj) =  0.000000000000000E+00
 --> objf_atl(bi,bj)    =  0.000000000000000E+00
 --> objf_test(bi,bj)   =  0.181911445073072E+05
 --> objf_tracer(bi,bj) =  0.000000000000000E+00
 --> objf_atl(bi,bj)    =  0.000000000000000E+00
 --> objf_test(bi,bj)   =  0.231468902319697E+05
 --> objf_tracer(bi,bj) =  0.000000000000000E+00
 --> objf_atl(bi,bj)    =  0.000000000000000E+00
 --> objf_test(bi,bj)   =  0.145252591604268E+05
 --> objf_tracer(bi,bj) =  0.000000000000000E+00
 --> objf_atl(bi,bj)    =  0.000000000000000E+00
 --> objf_test(bi,bj)   =  0.125100692230964E+05
 --> objf_tracer(bi,bj) =  0.000000000000000E+00
 --> objf_atl(bi,bj)    =  0.000000000000000E+00
  local fc =  0.101217588391095E+06
 global fc =  0.101217588391095E+06
(PID.TID 0000.0001)  MDS_READ_FIELD: opening file: xx_theta.0000000000.001.001.data
(PID.TID 0000.0001)  MDS_READ_FIELD: opening file: xx_theta.0000000000.002.001.data
(PID.TID 0000.0001)  MDS_READ_FIELD: opening file: xx_theta.0000000000.003.001.data
(PID.TID 0000.0001)  MDS_READ_FIELD: opening file: xx_theta.0000000000.004.001.data
(PID.TID 0000.0001)  MDS_READ_FIELD: opening file: xx_theta.0000000000.005.001.data
(PID.TID 0000.0001)  MDS_READ_FIELD: opening file: xx_theta.0000000000.006.001.data
grad-res -------------------------------
 grad-res     0    2    2    1    1    1    1    1   0.101217625557E+06 0.101217662756E+06 0.101217588391E+06
 grad-res     0    2    2    2  639    1    1    1   0.371822502657E+01 0.371824825052E+01 -.624597659127E-05
(PID.TID 0000.0001)   ADM  precision_derivative_cost =    1.01217625556549E+05
(PID.TID 0000.0001)   ADM  precision_derivative_grad =    3.71822502656942E+00
 ph-grd  ierr ---------------------------
 ph-grd  ierr =  0, icomp =  2, ichknum =  2
 ph-grd -->hit<--  3 1 1 1
(PID.TID 0000.0001)  MDS_READ_FIELD: opening file: adxx_theta.0000000000.001.001.data
(PID.TID 0000.0001)  MDS_READ_FIELD: opening file: adxx_theta.0000000000.002.001.data
(PID.TID 0000.0001)  MDS_READ_FIELD: opening file: adxx_theta.0000000000.003.001.data
(PID.TID 0000.0001)  MDS_READ_FIELD: opening file: adxx_theta.0000000000.004.001.data
(PID.TID 0000.0001)  MDS_READ_FIELD: opening file: adxx_theta.0000000000.005.001.data
(PID.TID 0000.0001)  MDS_READ_FIELD: opening file: adxx_theta.0000000000.006.001.data
(PID.TID 0000.0001)  MDS_READ_FIELD: opening file: xx_theta.0000000000.001.001.data
(PID.TID 0000.0001)  MDS_READ_FIELD: opening file: xx_theta.0000000000.002.001.data
(PID.TID 0000.0001)  MDS_READ_FIELD: opening file: xx_theta.0000000000.003.001.data
(PID.TID 0000.0001)  MDS_READ_FIELD: opening file: xx_theta.0000000000.004.001.data
(PID.TID 0000.0001)  MDS_READ_FIELD: opening file: xx_theta.0000000000.005.001.data
(PID.TID 0000.0001)  MDS_READ_FIELD: opening file: xx_theta.0000000000.006.001.data
(PID.TID 0000.0001)  MDS_READ_FIELD: opening global file: bathy_Hmin50.bin
(PID.TID 0000.0001) // =======================================================
(PID.TID 0000.0001) // Field Model R_low (ini_masks_etc) at iteration          1
(PID.TID 0000.0001) // CMIN =         -5.200000000000000E+03
(PID.TID 0000.0001) // CMAX =         -5.000000000000000E+01
(PID.TID 0000.0001) // CINT =          1.907407407407407E+02
(PID.TID 0000.0001) // SYMBOLS (CMIN->CMAX): -abcdefghijklmnopqrstuvwxyz+
(PID.TID 0000.0001) //                  0.0: .
(PID.TID 0000.0001) // RANGE I (Lo:Hi:Step):(    -3:   196:     1)
(PID.TID 0000.0001) // RANGE J (Lo:Hi:Step):(    36:    -3:    -1)
(PID.TID 0000.0001) // RANGE K (Lo:Hi:Step):(   1:   1:   1)
(PID.TID 0000.0001) // =======================================================
(PID.TID 0000.0001) K =   1
(PID.TID 0000.0001) //                I=6       I=16      I=26      I=36      I=38      I=48      I=58      I=68      I=70      I=80      I=90      I=100     I=102     I=112     I=122     I=132     I=134     I=144     I=154     I=164     I=166     I=176     I=186     I=196
(PID.TID 0000.0001) // |--J--|321012345|789012345|789012345|789012345|901234567|901234567|901234567|901234567|123456789|123456789|123456789|123456789|345678901|345678901|345678901|345678901|567890123|567890123|567890123|567890123|789012345|789012345|789012345|789012345|
(PID.TID 0000.0001) //     36 cbbc-ddcbcdehkhhmn..++..................................................okn.skko--a-fc----bba-cp.............tfeecccbbdeecccbbdeddedcdcccdddcddffggghiggfffdeeffijlihjlica---a--cgffel.+edfgeedflcbahgfllcbahgfllfhdffhkfffca-aady...llnabdoa--a
(PID.TID 0000.0001) //     35 dcac--cbbeefjkfefw+..........zpu........................................kqnzrqqk--b-da----bbbbfu..............fdddccaadcddccaadcdddcbbbbcdddcccdffffghgffffddefflligfiljfba---aafddehy...pwvlhfffcbagfccfcbagfcceeffffjlkjgaa---bfvheeln-aesaaab
(PID.TID 0000.0001) //     34 d--ba-abcehjnldcclz+........spps.......................................vkqn+xnnncabbcbba--aabfu+..............hcbaaaaaccbaaaaaccdccbaaabbddddccdffffghfeeeeedeffjiffefilhfcaaaacgceei.......zomggfcaecbbgfcaecbbccddefilihecbaacbaajfega-aesfeed
(PID.TID 0000.0001) //     33 --abbbccceiomkfdbbc+.......+s..........................................xsrxzz+z.fdcddb-----adu+...............hcbaa--accbaa--accddba--bbbddddccdfffhhgfeeddcceddhfeddfgikhfffdfgccffw........zohhgebbaaahgebbaaaaaccdfhlhfefdcccaabjefbaaafoosso
(PID.TID 0000.0001) //     32 --bddefhhkqqlgfaakqz..v.+..+.........................................++..u+....zigfdba----adu+................kdcaaa-acccaaa-accdcb---bbbcdddddefffggfeeedcccccbccbbdcdfgghhiihcbeiw.........+ynjgebaaaajgebaaaa-aacccfikkhecccbbbaaabaadfklnqpp
(PID.TID 0000.0001) //     31 abbcffijnpnqneaaat..umrr+s.z.........................................+++++.ztsvdlifeb--dfdfu+................+lkdca--abcdca--abcccb---bbbbddddeffflhfeeeecbbbbaaba-abbacbcdceffbbfw+..........++ujfbaaa-ujfbaaa----aacffiljgfffcca--adfikkiihhhf
(PID.TID 0000.0001) //     30 --adgillkkkifcadcx.ymmqzqikvnnps.....................................+++++wmegt-jlifcacdlqx+++...............mligea---abgea---abbbb---abaaddddeedkmeddefdbbbaaaabc---b--aaaaabaabm..............+viba---+viba-------acdefinmlgiieb-chnnnmlmlgffc
(PID.TID 0000.0001) //     29 --cfiljigfjd--efdozy...+ximpnnuz......................................+++yqddhp-iljhcbbchz+......++.........+mmhffc----affc----aaba------acdddcbcineddgdbaaa----cdd--a------aa-bfz...............+qe---a.+qe---aa---aedeegknmlgiigcdfhpokkimlfdb
(PID.TID 0000.0001) //     28 -abgkhfcccea-bdei........t............................................++zwgfcfk-gknhccbbhwwy.....+++........+njfeed-----eed-----aa-------abddcabcnfddegcaaa-----hlf------------dk+................+ja---..+ja------bffdddehfd--bedaacfhpnligiihd
(PID.TID 0000.0001) //     27 -acghfbaaaa-achmy......................+.......+++....................++vnbbbclefkpkeeecflmqxy....++........+lhfeecc----eecc------------aaadcbabcfhddccba-------zqd-----------irw.................++e---..++e-----mhmijddda--------ahhfiokhedegg
(PID.TID 0000.0001) //     26 -adhfca-----bfiv.......................+.......++sy...................+tq-fdbblcjknqiheddefhiksz++++........zkhfdccb----dccb------------aabdcaaaacfddbca-------a+xfa-abb-----vvv...................+wa--...+wa---mlmkijhc----------cjjffiheb-aad
(PID.TID 0000.0001) //     25 -achfa------ch+..................w.......w.......njo+................+x-----bcgidiqqojfefiiiijmy.++.........zkhfdbaa----dbaa-------daa---acccaaaacccca--------ac.+udaabbb----tei...................++qde...++qdeqnghiljcaaaaidaa----beedeeca--bb
(PID.TID 0000.0001) //     24 aaeifa--acbcei...................w.......w.......likn+.....++.....++znpa----bbdi-fnlmnjhinlksssw............qhfeca------ca--------addc--aeffaaaaaaccb-a----a--bd.++udbbaba---ven....................++xy....++xywnfgllcbbabegkecba----ddddcaacdc
(PID.TID 0000.0001) //     23 abfida-aabchjk...................zz......zz.....nhhijz....tqq.....+ujgzgd---abci-cegklkkknols..xuu..........zgfdba------ba--------bcd---affaaadffabbb-----aa-bcc.+.+ufb-----l.gx...........s.........++z.....++zzkfilfccccoz..ulkcd---bccnfddddd
(PID.TID 0000.0001) //     22 -afhfaa---bfgi....................zz..rn..zz..rnjffggm...nlmn+....+sffzya--aabcieaaffdfhimrmp...yuu.++.......zudba------ba--------adc---dda-adffe-aa--------aaac....+ufc-baaqvhh..........dcfeeh......++......++zggqvifefhz......zobbaccfwuffeee
(PID.TID 0000.0001) //     21 babcgca----abe.....................ysstl...ysstlgeeeeoz..ijklt+....lfjzzf---adfcfdaadcehllotq....yy+++zzs.....+zcba-----cba-------cdd--aaa----df------------aaac.....+upjdcy.vohq.......+idcdfeeefwz....efwz....+hhn.vklox.........gdccfjwrigffh
(PID.TID 0000.0001) //     20 fbbbcgfcaa-aae+.......................lc......lcgfdddhq.+hiilnz++.+oquxyz--adgkfdcaabcfmtooyxz......+yuiiy....++gb------gb--------ddcca-a-----acbaa------bbaaaab........ywxy.lulo.lv...kcdgddffefffilyx+fffilyx+fffk.+xyyy.........mgeimvskjklll
(PID.TID 0000.0001) //     19 zmfeccdghfeegcbt......................aa......aafifccgnrzgghjry.+++sr+lq.--edfkkoxtkblwnnsp.vv......skhggt...+++t-------t---------bdaf---------edd-------adlaaaa+..........vnhzy.tllqiedccdhggfggffiiggfgffiiggfcbdgy..yz..........xigqophijkkii
(PID.TID 0000.0001) //     18 ..wifedfkhfegbbcivlqfoz..............jaa.....jaacfihggokeeffgt..++++..hhlfdeddkez..qcz+.zwxtsttz..ysrkhot++++++zig------ig--------b--f---------egqqqaa----frb---+........+kkrhw.vqmlnieddcdehgggffgigedbffgigedbaaceiy.............zilrddefikkhh
(PID.TID 0000.0001) //     17 ..+wfeefikhgcbbccaaacgn.............icaa....icaaccfihfoedddeedy..++...nnqwgfeekeyy.z++..+zsjjllllljllpjos+++.+zhhi-----ehi-----e-----ea--------foqqoqqo--hlwgea-.........+nk+..xiioonhfefddegihhghigfdbaghigfdbaaabdgx..............nheddefiklhg
(PID.TID 0000.0001) //     16 ....wiheddeccdfhfbabdfl............jdbad...jdbaddddgifkccccdccd+.++..++ynvz.tkkq.mu....++zyslllllkhggkmpy++...ihhi-----ehi-----ea---feb-----a-acnoohfghknvmwnuca..........qhu..hhhkojgffgeefghihhiieedbahiieedbaaabcdy..............ygddeghiljgf
(PID.TID 0000.0001) //     15 ......ylea--acfihebcbbes..........sfcbbn..sfcbbngfffigcaaabdbcac+.+++++zgmpx...y.mm....++..zslwz.yhhhhnz+++...rhgc----abgc----ab----ige----acaaalllkddfiy..yswxb..........thk.xgghiligfghfefhhhhiiheedcdiiheedcdbbabdmz.............zfdeghikkifd
(PID.TID 0000.0001) //     14 ........c---acgkhdcc--di..........ofddch..ofddchohffikaaaaabaaa-aw+.+ysnggox++...qrv..........yzzzzrjil+++....qhgd-----agd-----a-----i---cccdeabkklldinqssy..xxv...........+y.uhghikihgfghefgihhhgeeeeedhgeeeeeddbaadhw.............nedeghjjhfed
(PID.TID 0000.0001) //     13 .......+b----cfkhec---afz.........nhfdff..nhfdffholghkaaaaaba-a---flkkuswyy++++y+zr...........zzzzz++ry++......yd-------d--------------aeecdeidfkkqnqlmqquukqqmf..............iihiijjhfefgefhjihiffgggffiffgggffecaabelx...........zjecehijhfecc
(PID.TID 0000.0001) //     12 .......ec----chjhec---ag..........skiqdd..skiqddeiiiifaaabae--a---dd--iu+++.+++sxq++..........+z+++++.+++....++.s-------s------------a-ceccdejhlllkqlkklssiccdee.............wjkkkjjjigeefffgjiiighiiihhighiiihhhdaabdffghtxx......mfccehjiffdb-
(PID.TID 0000.0001) //     11 ......pdca--achlheba--ai..........nkn.fd..nkn.fdemijidaaaabi-------a--q+....++.ziis...........+++++..........+yyza----b-za----b-----a--ccccddkhieekkossssfbbbbcd............njjijhhihijhgggggjjjjijkkkkjjijkkkkjjhcaacddeegpy.....xfdccdhjgfdda-
(PID.TID 0000.0001) //     10 ......wfdb--achlhea---an.........uos..dc.uos..dcemikkfdcaabi-------equ+.........mk...........................zyvuq----ccuq----cc----a---dcfhkopqjeissrnpfbbcccde..........zslihhigghgijjihhhhkllkkkkkkjkkkkkkkjkkkedccdeeeeipz..zwhccbcdhgfddcam
(PID.TID 0000.0001) //      9 ......vgec---bfikca--cjl+.......+nnv.+cc+nnv.+ccffhkkiddaadha-----as++..........pvz++........................zxuuk------uk------a---a----djmqrrnlllsoiddcccccdjf.........+zjijhfgfggffhjkkkiillljihhghgijihhghgihighdeeffgghimnnjgecbbcdgfeccbas
(PID.TID 0000.0001) //      8 .....zleca---afjfca--hdfz.......vkky.jcevkky.jceddefijffdddhb--a-afv............nn..ss.........................+yku-----yku--------------ejnpqqnninnritqdccchkmf+.......wihgghgeffffeefhijkjkljiigeeffefigeeffefffhjhhikkklljklmhffeeeggfdcbaay.
(PID.TID 0000.0001) //      7 ...+zohec--abcfkhecbchbdx.......qiht.faaqiht.faaaabdgijgfededcdcb-f+............nn...pz.........................+zu-----+zu--------------edefqgqddsz+......+yuddmm+....tiggfggfeeeefeeefiiiijkiihhedddddhheddddddddjjllliijhfkmmkkjjhijgdcba--q.
(PID.TID 0000.0001) //      6 ..+yomfddcaabefkifdchaadt......uqdeisc--qdeisc----dfefgifffkklldc--v............up...pp.........................v.x-----v.x---------a----fbbpqgzenx+........zdbcmllkhhfffffffgfeeeeeeeefhhhhijihhffddcbbhffddcbbbbdhhiihedddb-cfhhhjjjieca----+.
(PID.TID 0000.0001) //      5 ..+nhgffkghccfhkhffgdaackz....uoibcimlaaibcimlaaacfbddfjjhijeehf-a-c............zs...su.........................qk.yi---qk.yi-------gha-fjddqs+xkrz.........q-bchikdccdeeeeeeedddedddddgghhhhjhhgffcbbaagffcbbaaaaddfegecca----dfeefhfgdb-----+.
(PID.TID 0000.0001) //      4 .+ujhgfllfhdffhkfffca-aady...llnabdopfcbabdopfcbdgdbcdehlihgfddc--ms............................................okn.zd--okn.zd---eciiiicfkeeqy.ysz..........n-aafgdcbbdeddedcdcccdddcddffggghiggfffdbaa-fffdbaa---acdcccba--abvfedeffdcca----b+.
(PID.TID 0000.0001) //      3 +vjggfcceeffffjlkjgaa---bfvheeln-aesphfd-aesphfdhgabddeflihhgfecbaaayq+++++.....................................kqnz.vtpkqnz.vtpkllgdccfkkkkk..++..........+g---fecaaadcdddcbbbbcdddcccdffffghgffffdcaa-fffdcaa----abcaaaa-acxxmecdjmdbba----r+.
(PID.TID 0000.0001) //      2 qifeecbbccddefilihecbaacbaajfega-aesqhff-aesqhffiea-cdeflkkljifeddcba---bry+...................................vkqn+.sghkqn+.sghfcbcbbbdgfdek.++++.........+l---caaaaaccdccbaaabbddddccdffffghfeeeeecba-eeeecba------baaaa-euwxqdbcdkud-----sy+.
(PID.TID 0000.0001) //      1 ebbbbaaaaaccdfhlhfefdcccaabjefbaaafonhglaafonhglid--adfgkkkklkhffddca-----s++++................................xsrxz.tedsrxz.tedcbbbbaaadddet.++++.........+l------a-accddba--bbbddddccdfffhhgfeeddccba-eddccba-------aaaabgns.qcbcchyzqngll++..
(PID.TID 0000.0001) //      0 -aaaaaaa-aacccfikkhecccbbbaaabaadfkllilmdfkllilmgebaadfijjiiikjhffdcba-----lllgn.............................++..u+..zmd.u+..zmdfbd---a-aeef.xx+..........+++s-------accdcb---bbbcdddddefffggfeeedcccbbaedcccbba----aa--alrwwy.kcbccc+...++++...
(PID.TID 0000.0001) //     -1 --aaaaa----aacffiljgfffcca--adfikkiikimikkiikimiiheccfurkiffhijjigfecb-----l----.............................+++++.z+.wq++.z+.wqgbf-------dgzpoy+........+ys+yrb--aa-abcccb---bbbbddddeffflhfeeeecbbcbbaecbbcbbaa----a--bdflm.yuibbcc.......+...
(PID.TID 0000.0001) //     -2 --aaa-------acdefinmlgiieb-chnnnmlmlfklkmlmlfklklkhednwwsheeghhijjgfdca----g---a.............................+++++wmu++y++wmu++ywn--------fwvmgy+........+r-.+++-abc--abbbb---abaaddddeedkmeddefdbbbdcbadbbbdcbaa-------ba-hv.susfbcc.......+...
(PID.TID 0000.0001) //     -3 a--a---aa---aedeegknmlgiigcdfhpokkimdkmkkkimdkmknoiedcfjvpddegghhhhgfdcbaa-n---a..............................+++yqd.++++yqd.+++zvq--dafz.lqnggw+........+b-....abcc---aaba------acdddcbcineddgdbaaaeedbbaaaeedbaa----------nysqssfcd...........
(PID.TID 0000.0001) // =======================================================
(PID.TID 0000.0001) // END OF FIELD                                          =
(PID.TID 0000.0001) // =======================================================
(PID.TID 0000.0001) 
(PID.TID 0000.0001) // =======================================================
(PID.TID 0000.0001) // Field Model Ro_surf (ini_masks_etc) at iteration          1
(PID.TID 0000.0001) // CMIN =         -7.105427357601002E-15
(PID.TID 0000.0001) // CMAX =         -7.105427357601002E-15
(PID.TID 0000.0001) // CINT =          0.000000000000000E+00
(PID.TID 0000.0001) // SYMBOLS (CMIN->CMAX): -abcdefghijklmnopqrstuvwxyz+
(PID.TID 0000.0001) //                  0.0: .
(PID.TID 0000.0001) // RANGE I (Lo:Hi:Step):(    -3:   196:     1)
(PID.TID 0000.0001) // RANGE J (Lo:Hi:Step):(    36:    -3:    -1)
(PID.TID 0000.0001) // RANGE K (Lo:Hi:Step):(   1:   1:   1)
(PID.TID 0000.0001) // =======================================================
(PID.TID 0000.0001) // =======================================================
(PID.TID 0000.0001) // END OF FIELD                                          =
(PID.TID 0000.0001) // =======================================================
(PID.TID 0000.0001) 
(PID.TID 0000.0001) // =======================================================
(PID.TID 0000.0001) // Field hFacC at iteration          1
(PID.TID 0000.0001) // CMIN =          1.000000000000000E+00
(PID.TID 0000.0001) // CMAX =          1.000000000000000E+00
(PID.TID 0000.0001) // CINT =          0.000000000000000E+00
(PID.TID 0000.0001) // SYMBOLS (CMIN->CMAX): -abcdefghijklmnopqrstuvwxyz+
(PID.TID 0000.0001) //                  0.0: .
(PID.TID 0000.0001) // RANGE I (Lo:Hi:Step):(    -3:   196:     1)
(PID.TID 0000.0001) // RANGE J (Lo:Hi:Step):(    36:    -3:    -1)
(PID.TID 0000.0001) // RANGE K (Lo:Hi:Step):(   1:   1:   1)
(PID.TID 0000.0001) // =======================================================
(PID.TID 0000.0001) // =======================================================
(PID.TID 0000.0001) // END OF FIELD                                          =
(PID.TID 0000.0001) // =======================================================
(PID.TID 0000.0001) 
(PID.TID 0000.0001) // =======================================================
(PID.TID 0000.0001) // Field hFacW at iteration          1
(PID.TID 0000.0001) // CMIN =          1.000000000000000E+00
(PID.TID 0000.0001) // CMAX =          1.000000000000000E+00
(PID.TID 0000.0001) // CINT =          0.000000000000000E+00
(PID.TID 0000.0001) // SYMBOLS (CMIN->CMAX): -abcdefghijklmnopqrstuvwxyz+
(PID.TID 0000.0001) //                  0.0: .
(PID.TID 0000.0001) // RANGE I (Lo:Hi:Step):(    -3:   196:     1)
(PID.TID 0000.0001) // RANGE J (Lo:Hi:Step):(    36:    -3:    -1)
(PID.TID 0000.0001) // RANGE K (Lo:Hi:Step):(   1:   1:   1)
(PID.TID 0000.0001) // =======================================================
(PID.TID 0000.0001) // =======================================================
(PID.TID 0000.0001) // END OF FIELD                                          =
(PID.TID 0000.0001) // =======================================================
(PID.TID 0000.0001) 
(PID.TID 0000.0001) // =======================================================
(PID.TID 0000.0001) // Field hFacS at iteration          1
(PID.TID 0000.0001) // CMIN =          1.000000000000000E+00
(PID.TID 0000.0001) // CMAX =          1.000000000000000E+00
(PID.TID 0000.0001) // CINT =          0.000000000000000E+00
(PID.TID 0000.0001) // SYMBOLS (CMIN->CMAX): -abcdefghijklmnopqrstuvwxyz+
(PID.TID 0000.0001) //                  0.0: .
(PID.TID 0000.0001) // RANGE I (Lo:Hi:Step):(    -3:   196:     1)
(PID.TID 0000.0001) // RANGE J (Lo:Hi:Step):(    36:    -3:    -1)
(PID.TID 0000.0001) // RANGE K (Lo:Hi:Step):(   1:   1:   1)
(PID.TID 0000.0001) // =======================================================
(PID.TID 0000.0001) // =======================================================
(PID.TID 0000.0001) // END OF FIELD                                          =
(PID.TID 0000.0001) // =======================================================
(PID.TID 0000.0001) 
(PID.TID 0000.0001) INI_CG2D: CG2D normalisation factor =  1.9156564154949553E-04
(PID.TID 0000.0001) INI_CG2D: cg2dTolerance = 5.809016360175293E-07 (Area=3.6388673751E+14)
(PID.TID 0000.0001) 
(PID.TID 0000.0001)  MDS_READ_META: opening file: pickup.0000072000.meta
(PID.TID 0000.0001)  nRecords = 123 ; filePrec =  64 ; fileIter =     72000
(PID.TID 0000.0001)     nDims =   2 , dims:
(PID.TID 0000.0001)    1: 192   1 192
(PID.TID 0000.0001)    2:  32   1  32
(PID.TID 0000.0001)     nFlds =  11 , nFl3D =   8 , fields:
(PID.TID 0000.0001)  >Uvel    < >GuNm1   < >Vvel    < >GvNm1   < >Theta   < >GtNm1   < >Salt    < >GsNm1   < >EtaN    < >dEtaHdt < >EtaH    <
(PID.TID 0000.0001)   nTimRec =   0 , timeList:
(PID.TID 0000.0001) READ_MFLDS_3D_RL: read field: "Uvel    ", #   1 in fldList, rec=   1
(PID.TID 0000.0001)  MDS_READ_FIELD: opening global file: pickup.0000072000
(PID.TID 0000.0001) READ_MFLDS_3D_RL: read field: "Vvel    ", #   3 in fldList, rec=   3
(PID.TID 0000.0001)  MDS_READ_FIELD: opening global file: pickup.0000072000
(PID.TID 0000.0001) READ_MFLDS_3D_RL: read field: "Theta   ", #   5 in fldList, rec=   5
(PID.TID 0000.0001)  MDS_READ_FIELD: opening global file: pickup.0000072000
(PID.TID 0000.0001) READ_MFLDS_3D_RL: read field: "Salt    ", #   7 in fldList, rec=   7
(PID.TID 0000.0001)  MDS_READ_FIELD: opening global file: pickup.0000072000
(PID.TID 0000.0001) READ_MFLDS_3D_RL: read field: "GuNm1   ", #   2 in fldList, rec=   2
(PID.TID 0000.0001)  MDS_READ_FIELD: opening global file: pickup.0000072000
(PID.TID 0000.0001) READ_MFLDS_3D_RL: field: "GuNm2   " missing in file: pickup.0000072000
(PID.TID 0000.0001) READ_MFLDS_3D_RL: read field: "GvNm1   ", #   4 in fldList, rec=   4
(PID.TID 0000.0001)  MDS_READ_FIELD: opening global file: pickup.0000072000
(PID.TID 0000.0001) READ_MFLDS_3D_RL: field: "GvNm2   " missing in file: pickup.0000072000
(PID.TID 0000.0001) READ_MFLDS_3D_RL: read field: "EtaN    ", #   9 in fldList, rec= 121
(PID.TID 0000.0001)  MDS_READ_FIELD: opening global file: pickup.0000072000
(PID.TID 0000.0001) READ_MFLDS_3D_RL: read field: "dEtaHdt ", #  10 in fldList, rec= 122
(PID.TID 0000.0001)  MDS_READ_FIELD: opening global file: pickup.0000072000
(PID.TID 0000.0001) READ_MFLDS_3D_RL: read field: "EtaH    ", #  11 in fldList, rec= 123
(PID.TID 0000.0001)  MDS_READ_FIELD: opening global file: pickup.0000072000
(PID.TID 0000.0001)  MDS_READ_FIELD: opening global file: trenberth_taux.bin
(PID.TID 0000.0001)  MDS_READ_FIELD: opening global file: trenberth_tauy.bin
(PID.TID 0000.0001)  MDS_READ_FIELD: opening global file: shiQnet_cs32.bin
(PID.TID 0000.0001)  MDS_READ_FIELD: opening global file: shiEmPR_cs32.bin
(PID.TID 0000.0001)  MDS_READ_FIELD: opening global file: lev_surfT_cs_12m.bin
(PID.TID 0000.0001)  MDS_READ_FIELD: opening global file: lev_surfS_cs_12m.bin
(PID.TID 0000.0001)  MDS_READ_FIELD: opening file: xx_theta.0000000000.001.001.data
(PID.TID 0000.0001)  MDS_READ_FIELD: opening file: xx_theta.0000000000.002.001.data
(PID.TID 0000.0001)  MDS_READ_FIELD: opening file: xx_theta.0000000000.003.001.data
(PID.TID 0000.0001)  MDS_READ_FIELD: opening file: xx_theta.0000000000.004.001.data
(PID.TID 0000.0001)  MDS_READ_FIELD: opening file: xx_theta.0000000000.005.001.data
(PID.TID 0000.0001)  MDS_READ_FIELD: opening file: xx_theta.0000000000.006.001.data
(PID.TID 0000.0001)  MDS_READ_FIELD: opening file: xx_salt.0000000000.001.001.data
(PID.TID 0000.0001)  MDS_READ_FIELD: opening file: xx_salt.0000000000.002.001.data
(PID.TID 0000.0001)  MDS_READ_FIELD: opening file: xx_salt.0000000000.003.001.data
(PID.TID 0000.0001)  MDS_READ_FIELD: opening file: xx_salt.0000000000.004.001.data
(PID.TID 0000.0001)  MDS_READ_FIELD: opening file: xx_salt.0000000000.005.001.data
(PID.TID 0000.0001)  MDS_READ_FIELD: opening file: xx_salt.0000000000.006.001.data
(PID.TID 0000.0001)  MDS_READ_FIELD: opening file: xx_diffkr.0000000000.001.001.data
(PID.TID 0000.0001)  MDS_READ_FIELD: opening file: xx_diffkr.0000000000.002.001.data
(PID.TID 0000.0001)  MDS_READ_FIELD: opening file: xx_diffkr.0000000000.003.001.data
(PID.TID 0000.0001)  MDS_READ_FIELD: opening file: xx_diffkr.0000000000.004.001.data
(PID.TID 0000.0001)  MDS_READ_FIELD: opening file: xx_diffkr.0000000000.005.001.data
(PID.TID 0000.0001)  MDS_READ_FIELD: opening file: xx_diffkr.0000000000.006.001.data
(PID.TID 0000.0001) // =======================================================
(PID.TID 0000.0001) // Model current state
(PID.TID 0000.0001) // =======================================================
(PID.TID 0000.0001) 
S/R EXTERNAL_FIELDS_LOAD: Reading new data:   12    1     72000  6.220800000000E+09
(PID.TID 0000.0001)  MDS_READ_FIELD: opening global file: trenberth_taux.bin
(PID.TID 0000.0001)  MDS_READ_FIELD: opening global file: trenberth_taux.bin
(PID.TID 0000.0001)  MDS_READ_FIELD: opening global file: trenberth_tauy.bin
(PID.TID 0000.0001)  MDS_READ_FIELD: opening global file: trenberth_tauy.bin
(PID.TID 0000.0001)  MDS_READ_FIELD: opening global file: shiQnet_cs32.bin
(PID.TID 0000.0001)  MDS_READ_FIELD: opening global file: shiQnet_cs32.bin
(PID.TID 0000.0001)  MDS_READ_FIELD: opening global file: shiEmPR_cs32.bin
(PID.TID 0000.0001)  MDS_READ_FIELD: opening global file: shiEmPR_cs32.bin
(PID.TID 0000.0001)  MDS_READ_FIELD: opening global file: lev_surfT_cs_12m.bin
(PID.TID 0000.0001)  MDS_READ_FIELD: opening global file: lev_surfT_cs_12m.bin
(PID.TID 0000.0001)  MDS_READ_FIELD: opening global file: lev_surfS_cs_12m.bin
(PID.TID 0000.0001)  MDS_READ_FIELD: opening global file: lev_surfS_cs_12m.bin
(PID.TID 0000.0001)  MDS_READ_FIELD: opening file: xx_tauu.0000000000.001.001.data
(PID.TID 0000.0001)  MDS_READ_FIELD: opening file: xx_tauu.0000000000.002.001.data
(PID.TID 0000.0001)  MDS_READ_FIELD: opening file: xx_tauu.0000000000.003.001.data
(PID.TID 0000.0001)  MDS_READ_FIELD: opening file: xx_tauu.0000000000.004.001.data
(PID.TID 0000.0001)  MDS_READ_FIELD: opening file: xx_tauu.0000000000.005.001.data
(PID.TID 0000.0001)  MDS_READ_FIELD: opening file: xx_tauu.0000000000.006.001.data
(PID.TID 0000.0001)  MDS_READ_FIELD: opening file: xx_tauv.0000000000.001.001.data
(PID.TID 0000.0001)  MDS_READ_FIELD: opening file: xx_tauv.0000000000.002.001.data
(PID.TID 0000.0001)  MDS_READ_FIELD: opening file: xx_tauv.0000000000.003.001.data
(PID.TID 0000.0001)  MDS_READ_FIELD: opening file: xx_tauv.0000000000.004.001.data
(PID.TID 0000.0001)  MDS_READ_FIELD: opening file: xx_tauv.0000000000.005.001.data
(PID.TID 0000.0001)  MDS_READ_FIELD: opening file: xx_tauv.0000000000.006.001.data
(PID.TID 0000.0001)  MDS_READ_FIELD: opening file: xx_sfl.0000000000.001.001.data
(PID.TID 0000.0001)  MDS_READ_FIELD: opening file: xx_sfl.0000000000.002.001.data
(PID.TID 0000.0001)  MDS_READ_FIELD: opening file: xx_sfl.0000000000.003.001.data
(PID.TID 0000.0001)  MDS_READ_FIELD: opening file: xx_sfl.0000000000.004.001.data
(PID.TID 0000.0001)  MDS_READ_FIELD: opening file: xx_sfl.0000000000.005.001.data
(PID.TID 0000.0001)  MDS_READ_FIELD: opening file: xx_sfl.0000000000.006.001.data
(PID.TID 0000.0001)  MDS_READ_FIELD: opening file: xx_hfl.0000000000.001.001.data
(PID.TID 0000.0001)  MDS_READ_FIELD: opening file: xx_hfl.0000000000.002.001.data
(PID.TID 0000.0001)  MDS_READ_FIELD: opening file: xx_hfl.0000000000.003.001.data
(PID.TID 0000.0001)  MDS_READ_FIELD: opening file: xx_hfl.0000000000.004.001.data
(PID.TID 0000.0001)  MDS_READ_FIELD: opening file: xx_hfl.0000000000.005.001.data
(PID.TID 0000.0001)  MDS_READ_FIELD: opening file: xx_hfl.0000000000.006.001.data
(PID.TID 0000.0001) SOLVE_FOR_PRESSURE: putPmEinXvector =    F
 cg2d: Sum(rhs),rhsMax =  -9.40758582146373E-12  4.28440421776334E+00
 cg2d: Sum(rhs),rhsMax =  -9.66338120633736E-12  4.27982545041508E+00
 cg2d: Sum(rhs),rhsMax =  -9.37916411203332E-12  4.27358143043637E+00
 cg2d: Sum(rhs),rhsMax =  -9.83391146291979E-12  4.26757584241030E+00
 cg2d: Sum(rhs),rhsMax =  -9.60653778747655E-12  4.26162662527293E+00
 cg2d: Sum(rhs),rhsMax =  -9.97602001007181E-12  4.25572412497173E+00
 cg2d: Sum(rhs),rhsMax =  -9.83391146291979E-12  4.24991959014330E+00
 cg2d: Sum(rhs),rhsMax =  -9.72022462519817E-12  4.24428631471524E+00
 cg2d: Sum(rhs),rhsMax =  -9.54969436861575E-12  4.23890090762366E+00
 cg2d: Sum(rhs),rhsMax =  -9.69180291576777E-12  4.23383240768761E+00
 cg2d: Sum(rhs),rhsMax =  -9.60653778747655E-12  4.22913459331919E+00
 cg2d: Sum(rhs),rhsMax =  -9.40758582146373E-12  4.22484530480418E+00
 cg2d: Sum(rhs),rhsMax =  -9.86233317235019E-12  4.22098691081593E+00
 cg2d: Sum(rhs),rhsMax =  -9.57811607804615E-12  4.21756850554492E+00
 cg2d: Sum(rhs),rhsMax =  -9.23705556488130E-12  4.21458763818688E+00
S/R EXTERNAL_FIELDS_LOAD: Reading new data:    1    2     72015  6.222096000000E+09
(PID.TID 0000.0001)  MDS_READ_FIELD: opening global file: trenberth_taux.bin
(PID.TID 0000.0001)  MDS_READ_FIELD: opening global file: trenberth_taux.bin
(PID.TID 0000.0001)  MDS_READ_FIELD: opening global file: trenberth_tauy.bin
(PID.TID 0000.0001)  MDS_READ_FIELD: opening global file: trenberth_tauy.bin
(PID.TID 0000.0001)  MDS_READ_FIELD: opening global file: shiQnet_cs32.bin
(PID.TID 0000.0001)  MDS_READ_FIELD: opening global file: shiQnet_cs32.bin
(PID.TID 0000.0001)  MDS_READ_FIELD: opening global file: shiEmPR_cs32.bin
(PID.TID 0000.0001)  MDS_READ_FIELD: opening global file: shiEmPR_cs32.bin
(PID.TID 0000.0001)  MDS_READ_FIELD: opening global file: lev_surfT_cs_12m.bin
(PID.TID 0000.0001)  MDS_READ_FIELD: opening global file: lev_surfT_cs_12m.bin
(PID.TID 0000.0001)  MDS_READ_FIELD: opening global file: lev_surfS_cs_12m.bin
(PID.TID 0000.0001)  MDS_READ_FIELD: opening global file: lev_surfS_cs_12m.bin
 cg2d: Sum(rhs),rhsMax =  -9.00968188943807E-12  4.21203168728381E+00
 cg2d: Sum(rhs),rhsMax =  -9.63495949690696E-12  4.20976597229007E+00
 cg2d: Sum(rhs),rhsMax =  -9.69180291576777E-12  4.20805788809901E+00
 cg2d: Sum(rhs),rhsMax =  -9.63495949690696E-12  4.20662079629432E+00
 cg2d: Sum(rhs),rhsMax =  -9.12336872715969E-12  4.20551574040592E+00
(PID.TID 0000.0001) Did not write pickup because writePickupAtEnd = FALSE
(PID.TID 0000.0001)  MDS_READ_FIELD: opening global file: lev_T_cs_15k.bin
 --> objf_test(bi,bj)   =  0.213649066058178E+05
 --> objf_tracer(bi,bj) =  0.000000000000000E+00
 --> objf_atl(bi,bj)    =  0.000000000000000E+00
 --> objf_test(bi,bj)   =  0.114793796472962E+05
 --> objf_tracer(bi,bj) =  0.000000000000000E+00
 --> objf_atl(bi,bj)    =  0.000000000000000E+00
 --> objf_test(bi,bj)   =  0.181911445089426E+05
 --> objf_tracer(bi,bj) =  0.000000000000000E+00
 --> objf_atl(bi,bj)    =  0.000000000000000E+00
 --> objf_test(bi,bj)   =  0.231468902271955E+05
 --> objf_tracer(bi,bj) =  0.000000000000000E+00
 --> objf_atl(bi,bj)    =  0.000000000000000E+00
 --> objf_test(bi,bj)   =  0.145252601676128E+05
 --> objf_tracer(bi,bj) =  0.000000000000000E+00
 --> objf_atl(bi,bj)    =  0.000000000000000E+00
 --> objf_test(bi,bj)   =  0.125100781858542E+05
 --> objf_tracer(bi,bj) =  0.000000000000000E+00
 --> objf_atl(bi,bj)    =  0.000000000000000E+00
  local fc =  0.101217659342719E+06
 global fc =  0.101217659342719E+06
 ph-check fcpertplus =   101217.659
(PID.TID 0000.0001)  MDS_READ_FIELD: opening file: xx_theta.0000000000.001.001.data
(PID.TID 0000.0001)  MDS_READ_FIELD: opening file: xx_theta.0000000000.002.001.data
(PID.TID 0000.0001)  MDS_READ_FIELD: opening file: xx_theta.0000000000.003.001.data
(PID.TID 0000.0001)  MDS_READ_FIELD: opening file: xx_theta.0000000000.004.001.data
(PID.TID 0000.0001)  MDS_READ_FIELD: opening file: xx_theta.0000000000.005.001.data
(PID.TID 0000.0001)  MDS_READ_FIELD: opening file: xx_theta.0000000000.006.001.data
 ph-check fcpertminus =   101217.626
(PID.TID 0000.0001)  MDS_READ_FIELD: opening file: xx_theta.0000000000.001.001.data
(PID.TID 0000.0001)  MDS_READ_FIELD: opening file: xx_theta.0000000000.002.001.data
(PID.TID 0000.0001)  MDS_READ_FIELD: opening file: xx_theta.0000000000.003.001.data
(PID.TID 0000.0001)  MDS_READ_FIELD: opening file: xx_theta.0000000000.004.001.data
(PID.TID 0000.0001)  MDS_READ_FIELD: opening file: xx_theta.0000000000.005.001.data
(PID.TID 0000.0001)  MDS_READ_FIELD: opening file: xx_theta.0000000000.006.001.data
(PID.TID 0000.0001)  MDS_READ_FIELD: opening global file: bathy_Hmin50.bin
(PID.TID 0000.0001) // =======================================================
(PID.TID 0000.0001) // Field Model R_low (ini_masks_etc) at iteration          1
(PID.TID 0000.0001) // CMIN =         -5.200000000000000E+03
(PID.TID 0000.0001) // CMAX =         -5.000000000000000E+01
(PID.TID 0000.0001) // CINT =          1.907407407407407E+02
(PID.TID 0000.0001) // SYMBOLS (CMIN->CMAX): -abcdefghijklmnopqrstuvwxyz+
(PID.TID 0000.0001) //                  0.0: .
(PID.TID 0000.0001) // RANGE I (Lo:Hi:Step):(    -3:   196:     1)
(PID.TID 0000.0001) // RANGE J (Lo:Hi:Step):(    36:    -3:    -1)
(PID.TID 0000.0001) // RANGE K (Lo:Hi:Step):(   1:   1:   1)
(PID.TID 0000.0001) // =======================================================
(PID.TID 0000.0001) K =   1
(PID.TID 0000.0001) //                I=6       I=16      I=26      I=36      I=38      I=48      I=58      I=68      I=70      I=80      I=90      I=100     I=102     I=112     I=122     I=132     I=134     I=144     I=154     I=164     I=166     I=176     I=186     I=196
(PID.TID 0000.0001) // |--J--|321012345|789012345|789012345|789012345|901234567|901234567|901234567|901234567|123456789|123456789|123456789|123456789|345678901|345678901|345678901|345678901|567890123|567890123|567890123|567890123|789012345|789012345|789012345|789012345|
(PID.TID 0000.0001) //     36 cbbc-ddcbcdehkhhmn..++..................................................okn.skko--a-fc----bba-cp.............tfeecccbbdeecccbbdeddedcdcccdddcddffggghiggfffdeeffijlihjlica---a--cgffel.+edfgeedflcbahgfllcbahgfllfhdffhkfffca-aady...llnabdoa--a
(PID.TID 0000.0001) //     35 dcac--cbbeefjkfefw+..........zpu........................................kqnzrqqk--b-da----bbbbfu..............fdddccaadcddccaadcdddcbbbbcdddcccdffffghgffffddefflligfiljfba---aafddehy...pwvlhfffcbagfccfcbagfcceeffffjlkjgaa---bfvheeln-aesaaab
(PID.TID 0000.0001) //     34 d--ba-abcehjnldcclz+........spps.......................................vkqn+xnnncabbcbba--aabfu+..............hcbaaaaaccbaaaaaccdccbaaabbddddccdffffghfeeeeedeffjiffefilhfcaaaacgceei.......zomggfcaecbbgfcaecbbccddefilihecbaacbaajfega-aesfeed
(PID.TID 0000.0001) //     33 --abbbccceiomkfdbbc+.......+s..........................................xsrxzz+z.fdcddb-----adu+...............hcbaa--accbaa--accddba--bbbddddccdfffhhgfeeddcceddhfeddfgikhfffdfgccffw........zohhgebbaaahgebbaaaaaccdfhlhfefdcccaabjefbaaafoosso
(PID.TID 0000.0001) //     32 --bddefhhkqqlgfaakqz..v.+..+.........................................++..u+....zigfdba----adu+................kdcaaa-acccaaa-accdcb---bbbcdddddefffggfeeedcccccbccbbdcdfgghhiihcbeiw.........+ynjgebaaaajgebaaaa-aacccfikkhecccbbbaaabaadfklnqpp
(PID.TID 0000.0001) //     31 abbcffijnpnqneaaat..umrr+s.z.........................................+++++.ztsvdlifeb--dfdfu+................+lkdca--abcdca--abcccb---bbbbddddeffflhfeeeecbbbbaaba-abbacbcdceffbbfw+..........++ujfbaaa-ujfbaaa----aacffiljgfffcca--adfikkiihhhf
(PID.TID 0000.0001) //     30 --adgillkkkifcadcx.ymmqzqikvnnps.....................................+++++wmegt-jlifcacdlqx+++...............mligea---abgea---abbbb---abaaddddeedkmeddefdbbbaaaabc---b--aaaaabaabm..............+viba---+viba-------acdefinmlgiieb-chnnnmlmlgffc
(PID.TID 0000.0001) //     29 --cfiljigfjd--efdozy...+ximpnnuz......................................+++yqddhp-iljhcbbchz+......++.........+mmhffc----affc----aaba------acdddcbcineddgdbaaa----cdd--a------aa-bfz...............+qe---a.+qe---aa---aedeegknmlgiigcdfhpokkimlfdb
(PID.TID 0000.0001) //     28 -abgkhfcccea-bdei........t............................................++zwgfcfk-gknhccbbhwwy.....+++........+njfeed-----eed-----aa-------abddcabcnfddegcaaa-----hlf------------dk+................+ja---..+ja------bffdddehfd--bedaacfhpnligiihd
(PID.TID 0000.0001) //     27 -acghfbaaaa-achmy......................+.......+++....................++vnbbbclefkpkeeecflmqxy....++........+lhfeecc----eecc------------aaadcbabcfhddccba-------zqd-----------irw.................++e---..++e-----mhmijddda--------ahhfiokhedegg
(PID.TID 0000.0001) //     26 -adhfca-----bfiv.......................+.......++sy...................+tq-fdbblcjknqiheddefhiksz++++........zkhfdccb----dccb------------aabdcaaaacfddbca-------a+xfa-abb-----vvv...................+wa--...+wa---mlmkijhc----------cjjffiheb-aad
(PID.TID 0000.0001) //     25 -achfa------ch+..................w.......w.......njo+................+x-----bcgidiqqojfefiiiijmy.++.........zkhfdbaa----dbaa-------daa---acccaaaacccca--------ac.+udaabbb----tei...................++qde...++qdeqnghiljcaaaaidaa----beedeeca--bb
(PID.TID 0000.0001) //     24 aaeifa--acbcei...................w.......w.......likn+.....++.....++znpa----bbdi-fnlmnjhinlksssw............qhfeca------ca--------addc--aeffaaaaaaccb-a----a--bd.++udbbaba---ven....................++xy....++xywnfgllcbbabegkecba----ddddcaacdc
(PID.TID 0000.0001) //     23 abfida-aabchjk...................zz......zz.....nhhijz....tqq.....+ujgzgd---abci-cegklkkknols..xuu..........zgfdba------ba--------bcd---affaaadffabbb-----aa-bcc.+.+ufb-----l.gx...........s.........++z.....++zzkfilfccccoz..ulkcd---bccnfddddd
(PID.TID 0000.0001) //     22 -afhfaa---bfgi....................zz..rn..zz..rnjffggm...nlmn+....+sffzya--aabcieaaffdfhimrmp...yuu.++.......zudba------ba--------adc---dda-adffe-aa--------aaac....+ufc-baaqvhh..........dcfeeh......++......++zggqvifefhz......zobbaccfwuffeee
(PID.TID 0000.0001) //     21 babcgca----abe.....................ysstl...ysstlgeeeeoz..ijklt+....lfjzzf---adfcfdaadcehllotq....yy+++zzs.....+zcba-----cba-------cdd--aaa----df------------aaac.....+upjdcy.vohq.......+idcdfeeefwz....efwz....+hhn.vklox.........gdccfjwrigffh
(PID.TID 0000.0001) //     20 fbbbcgfcaa-aae+.......................lc......lcgfdddhq.+hiilnz++.+oquxyz--adgkfdcaabcfmtooyxz......+yuiiy....++gb------gb--------ddcca-a-----acbaa------bbaaaab........ywxy.lulo.lv...kcdgddffefffilyx+fffilyx+fffk.+xyyy.........mgeimvskjklll
(PID.TID 0000.0001) //     19 zmfeccdghfeegcbt......................aa......aafifccgnrzgghjry.+++sr+lq.--edfkkoxtkblwnnsp.vv......skhggt...+++t-------t---------bdaf---------edd-------adlaaaa+..........vnhzy.tllqiedccdhggfggffiiggfgffiiggfcbdgy..yz..........xigqophijkkii
(PID.TID 0000.0001) //     18 ..wifedfkhfegbbcivlqfoz..............jaa.....jaacfihggokeeffgt..++++..hhlfdeddkez..qcz+.zwxtsttz..ysrkhot++++++zig------ig--------b--f---------egqqqaa----frb---+........+kkrhw.vqmlnieddcdehgggffgigedbffgigedbaaceiy.............zilrddefikkhh
(PID.TID 0000.0001) //     17 ..+wfeefikhgcbbccaaacgn.............icaa....icaaccfihfoedddeedy..++...nnqwgfeekeyy.z++..+zsjjllllljllpjos+++.+zhhi-----ehi-----e-----ea--------foqqoqqo--hlwgea-.........+nk+..xiioonhfefddegihhghigfdbaghigfdbaaabdgx..............nheddefiklhg
(PID.TID 0000.0001) //     16 ....wiheddeccdfhfbabdfl............jdbad...jdbaddddgifkccccdccd+.++..++ynvz.tkkq.mu....++zyslllllkhggkmpy++...ihhi-----ehi-----ea---feb-----a-acnoohfghknvmwnuca..........qhu..hhhkojgffgeefghihhiieedbahiieedbaaabcdy..............ygddeghiljgf
(PID.TID 0000.0001) //     15 ......ylea--acfihebcbbes..........sfcbbn..sfcbbngfffigcaaabdbcac+.+++++zgmpx...y.mm....++..zslwz.yhhhhnz+++...rhgc----abgc----ab----ige----acaaalllkddfiy..yswxb..........thk.xgghiligfghfefhhhhiiheedcdiiheedcdbbabdmz.............zfdeghikkifd
(PID.TID 0000.0001) //     14 ........c---acgkhdcc--di..........ofddch..ofddchohffikaaaaabaaa-aw+.+ysnggox++...qrv..........yzzzzrjil+++....qhgd-----agd-----a-----i---cccdeabkklldinqssy..xxv...........+y.uhghikihgfghefgihhhgeeeeedhgeeeeeddbaadhw.............nedeghjjhfed
(PID.TID 0000.0001) //     13 .......+b----cfkhec---afz.........nhfdff..nhfdffholghkaaaaaba-a---flkkuswyy++++y+zr...........zzzzz++ry++......yd-------d--------------aeecdeidfkkqnqlmqquukqqmf..............iihiijjhfefgefhjihiffgggffiffgggffecaabelx...........zjecehijhfecc
(PID.TID 0000.0001) //     12 .......ec----chjhec---ag..........skiqdd..skiqddeiiiifaaabae--a---dd--iu+++.+++sxq++..........+z+++++.+++....++.s-------s------------a-ceccdejhlllkqlkklssiccdee.............wjkkkjjjigeefffgjiiighiiihhighiiihhhdaabdffghtxx......mfccehjiffdb-
(PID.TID 0000.0001) //     11 ......pdca--achlheba--ai..........nkn.fd..nkn.fdemijidaaaabi-------a--q+....++.ziis...........+++++..........+yyza----b-za----b-----a--ccccddkhieekkossssfbbbbcd............njjijhhihijhgggggjjjjijkkkkjjijkkkkjjhcaacddeegpy.....xfdccdhjgfdda-
(PID.TID 0000.0001) //     10 ......wfdb--achlhea---an.........uos..dc.uos..dcemikkfdcaabi-------equ+.........mk...........................zyvuq----ccuq----cc----a---dcfhkopqjeissrnpfbbcccde..........zslihhigghgijjihhhhkllkkkkkkjkkkkkkkjkkkedccdeeeeipz..zwhccbcdhgfddcam
(PID.TID 0000.0001) //      9 ......vgec---bfikca--cjl+.......+nnv.+cc+nnv.+ccffhkkiddaadha-----as++..........pvz++........................zxuuk------uk------a---a----djmqrrnlllsoiddcccccdjf.........+zjijhfgfggffhjkkkiillljihhghgijihhghgihighdeeffgghimnnjgecbbcdgfeccbas
(PID.TID 0000.0001) //      8 .....zleca---afjfca--hdfz.......vkky.jcevkky.jceddefijffdddhb--a-afv............nn..ss.........................+yku-----yku--------------ejnpqqnninnritqdccchkmf+.......wihgghgeffffeefhijkjkljiigeeffefigeeffefffhjhhikkklljklmhffeeeggfdcbaay.
(PID.TID 0000.0001) //      7 ...+zohec--abcfkhecbchbdx.......qiht.faaqiht.faaaabdgijgfededcdcb-f+............nn...pz.........................+zu-----+zu--------------edefqgqddsz+......+yuddmm+....tiggfggfeeeefeeefiiiijkiihhedddddhheddddddddjjllliijhfkmmkkjjhijgdcba--q.
(PID.TID 0000.0001) //      6 ..+yomfddcaabefkifdchaadt......uqdeisc--qdeisc----dfefgifffkklldc--v............up...pp.........................v.x-----v.x---------a----fbbpqgzenx+........zdbcmllkhhfffffffgfeeeeeeeefhhhhijihhffddcbbhffddcbbbbdhhiihedddb-cfhhhjjjieca----+.
(PID.TID 0000.0001) //      5 ..+nhgffkghccfhkhffgdaackz....uoibcimlaaibcimlaaacfbddfjjhijeehf-a-c............zs...su.........................qk.yi---qk.yi-------gha-fjddqs+xkrz.........q-bchikdccdeeeeeeedddedddddgghhhhjhhgffcbbaagffcbbaaaaddfegecca----dfeefhfgdb-----+.
(PID.TID 0000.0001) //      4 .+ujhgfllfhdffhkfffca-aady...llnabdopfcbabdopfcbdgdbcdehlihgfddc--ms............................................okn.zd--okn.zd---eciiiicfkeeqy.ysz..........n-aafgdcbbdeddedcdcccdddcddffggghiggfffdbaa-fffdbaa---acdcccba--abvfedeffdcca----b+.
(PID.TID 0000.0001) //      3 +vjggfcceeffffjlkjgaa---bfvheeln-aesphfd-aesphfdhgabddeflihhgfecbaaayq+++++.....................................kqnz.vtpkqnz.vtpkllgdccfkkkkk..++..........+g---fecaaadcdddcbbbbcdddcccdffffghgffffdcaa-fffdcaa----abcaaaa-acxxmecdjmdbba----r+.
(PID.TID 0000.0001) //      2 qifeecbbccddefilihecbaacbaajfega-aesqhff-aesqhffiea-cdeflkkljifeddcba---bry+...................................vkqn+.sghkqn+.sghfcbcbbbdgfdek.++++.........+l---caaaaaccdccbaaabbddddccdffffghfeeeeecba-eeeecba------baaaa-euwxqdbcdkud-----sy+.
(PID.TID 0000.0001) //      1 ebbbbaaaaaccdfhlhfefdcccaabjefbaaafonhglaafonhglid--adfgkkkklkhffddca-----s++++................................xsrxz.tedsrxz.tedcbbbbaaadddet.++++.........+l------a-accddba--bbbddddccdfffhhgfeeddccba-eddccba-------aaaabgns.qcbcchyzqngll++..
(PID.TID 0000.0001) //      0 -aaaaaaa-aacccfikkhecccbbbaaabaadfkllilmdfkllilmgebaadfijjiiikjhffdcba-----lllgn.............................++..u+..zmd.u+..zmdfbd---a-aeef.xx+..........+++s-------accdcb---bbbcdddddefffggfeeedcccbbaedcccbba----aa--alrwwy.kcbccc+...++++...
(PID.TID 0000.0001) //     -1 --aaaaa----aacffiljgfffcca--adfikkiikimikkiikimiiheccfurkiffhijjigfecb-----l----.............................+++++.z+.wq++.z+.wqgbf-------dgzpoy+........+ys+yrb--aa-abcccb---bbbbddddeffflhfeeeecbbcbbaecbbcbbaa----a--bdflm.yuibbcc.......+...
(PID.TID 0000.0001) //     -2 --aaa-------acdefinmlgiieb-chnnnmlmlfklkmlmlfklklkhednwwsheeghhijjgfdca----g---a.............................+++++wmu++y++wmu++ywn--------fwvmgy+........+r-.+++-abc--abbbb---abaaddddeedkmeddefdbbbdcbadbbbdcbaa-------ba-hv.susfbcc.......+...
(PID.TID 0000.0001) //     -3 a--a---aa---aedeegknmlgiigcdfhpokkimdkmkkkimdkmknoiedcfjvpddegghhhhgfdcbaa-n---a..............................+++yqd.++++yqd.+++zvq--dafz.lqnggw+........+b-....abcc---aaba------acdddcbcineddgdbaaaeedbbaaaeedbaa----------nysqssfcd...........
(PID.TID 0000.0001) // =======================================================
(PID.TID 0000.0001) // END OF FIELD                                          =
(PID.TID 0000.0001) // =======================================================
(PID.TID 0000.0001) 
(PID.TID 0000.0001) // =======================================================
(PID.TID 0000.0001) // Field Model Ro_surf (ini_masks_etc) at iteration          1
(PID.TID 0000.0001) // CMIN =         -7.105427357601002E-15
(PID.TID 0000.0001) // CMAX =         -7.105427357601002E-15
(PID.TID 0000.0001) // CINT =          0.000000000000000E+00
(PID.TID 0000.0001) // SYMBOLS (CMIN->CMAX): -abcdefghijklmnopqrstuvwxyz+
(PID.TID 0000.0001) //                  0.0: .
(PID.TID 0000.0001) // RANGE I (Lo:Hi:Step):(    -3:   196:     1)
(PID.TID 0000.0001) // RANGE J (Lo:Hi:Step):(    36:    -3:    -1)
(PID.TID 0000.0001) // RANGE K (Lo:Hi:Step):(   1:   1:   1)
(PID.TID 0000.0001) // =======================================================
(PID.TID 0000.0001) // =======================================================
(PID.TID 0000.0001) // END OF FIELD                                          =
(PID.TID 0000.0001) // =======================================================
(PID.TID 0000.0001) 
(PID.TID 0000.0001) // =======================================================
(PID.TID 0000.0001) // Field hFacC at iteration          1
(PID.TID 0000.0001) // CMIN =          1.000000000000000E+00
(PID.TID 0000.0001) // CMAX =          1.000000000000000E+00
(PID.TID 0000.0001) // CINT =          0.000000000000000E+00
(PID.TID 0000.0001) // SYMBOLS (CMIN->CMAX): -abcdefghijklmnopqrstuvwxyz+
(PID.TID 0000.0001) //                  0.0: .
(PID.TID 0000.0001) // RANGE I (Lo:Hi:Step):(    -3:   196:     1)
(PID.TID 0000.0001) // RANGE J (Lo:Hi:Step):(    36:    -3:    -1)
(PID.TID 0000.0001) // RANGE K (Lo:Hi:Step):(   1:   1:   1)
(PID.TID 0000.0001) // =======================================================
(PID.TID 0000.0001) // =======================================================
(PID.TID 0000.0001) // END OF FIELD                                          =
(PID.TID 0000.0001) // =======================================================
(PID.TID 0000.0001) 
(PID.TID 0000.0001) // =======================================================
(PID.TID 0000.0001) // Field hFacW at iteration          1
(PID.TID 0000.0001) // CMIN =          1.000000000000000E+00
(PID.TID 0000.0001) // CMAX =          1.000000000000000E+00
(PID.TID 0000.0001) // CINT =          0.000000000000000E+00
(PID.TID 0000.0001) // SYMBOLS (CMIN->CMAX): -abcdefghijklmnopqrstuvwxyz+
(PID.TID 0000.0001) //                  0.0: .
(PID.TID 0000.0001) // RANGE I (Lo:Hi:Step):(    -3:   196:     1)
(PID.TID 0000.0001) // RANGE J (Lo:Hi:Step):(    36:    -3:    -1)
(PID.TID 0000.0001) // RANGE K (Lo:Hi:Step):(   1:   1:   1)
(PID.TID 0000.0001) // =======================================================
(PID.TID 0000.0001) // =======================================================
(PID.TID 0000.0001) // END OF FIELD                                          =
(PID.TID 0000.0001) // =======================================================
(PID.TID 0000.0001) 
(PID.TID 0000.0001) // =======================================================
(PID.TID 0000.0001) // Field hFacS at iteration          1
(PID.TID 0000.0001) // CMIN =          1.000000000000000E+00
(PID.TID 0000.0001) // CMAX =          1.000000000000000E+00
(PID.TID 0000.0001) // CINT =          0.000000000000000E+00
(PID.TID 0000.0001) // SYMBOLS (CMIN->CMAX): -abcdefghijklmnopqrstuvwxyz+
(PID.TID 0000.0001) //                  0.0: .
(PID.TID 0000.0001) // RANGE I (Lo:Hi:Step):(    -3:   196:     1)
(PID.TID 0000.0001) // RANGE J (Lo:Hi:Step):(    36:    -3:    -1)
(PID.TID 0000.0001) // RANGE K (Lo:Hi:Step):(   1:   1:   1)
(PID.TID 0000.0001) // =======================================================
(PID.TID 0000.0001) // =======================================================
(PID.TID 0000.0001) // END OF FIELD                                          =
(PID.TID 0000.0001) // =======================================================
(PID.TID 0000.0001) 
(PID.TID 0000.0001) INI_CG2D: CG2D normalisation factor =  1.9156564154949553E-04
(PID.TID 0000.0001) INI_CG2D: cg2dTolerance = 5.809016360175293E-07 (Area=3.6388673751E+14)
(PID.TID 0000.0001) 
(PID.TID 0000.0001)  MDS_READ_META: opening file: pickup.0000072000.meta
(PID.TID 0000.0001)  nRecords = 123 ; filePrec =  64 ; fileIter =     72000
(PID.TID 0000.0001)     nDims =   2 , dims:
(PID.TID 0000.0001)    1: 192   1 192
(PID.TID 0000.0001)    2:  32   1  32
(PID.TID 0000.0001)     nFlds =  11 , nFl3D =   8 , fields:
(PID.TID 0000.0001)  >Uvel    < >GuNm1   < >Vvel    < >GvNm1   < >Theta   < >GtNm1   < >Salt    < >GsNm1   < >EtaN    < >dEtaHdt < >EtaH    <
(PID.TID 0000.0001)   nTimRec =   0 , timeList:
(PID.TID 0000.0001) READ_MFLDS_3D_RL: read field: "Uvel    ", #   1 in fldList, rec=   1
(PID.TID 0000.0001)  MDS_READ_FIELD: opening global file: pickup.0000072000
(PID.TID 0000.0001) READ_MFLDS_3D_RL: read field: "Vvel    ", #   3 in fldList, rec=   3
(PID.TID 0000.0001)  MDS_READ_FIELD: opening global file: pickup.0000072000
(PID.TID 0000.0001) READ_MFLDS_3D_RL: read field: "Theta   ", #   5 in fldList, rec=   5
(PID.TID 0000.0001)  MDS_READ_FIELD: opening global file: pickup.0000072000
(PID.TID 0000.0001) READ_MFLDS_3D_RL: read field: "Salt    ", #   7 in fldList, rec=   7
(PID.TID 0000.0001)  MDS_READ_FIELD: opening global file: pickup.0000072000
(PID.TID 0000.0001) READ_MFLDS_3D_RL: read field: "GuNm1   ", #   2 in fldList, rec=   2
(PID.TID 0000.0001)  MDS_READ_FIELD: opening global file: pickup.0000072000
(PID.TID 0000.0001) READ_MFLDS_3D_RL: field: "GuNm2   " missing in file: pickup.0000072000
(PID.TID 0000.0001) READ_MFLDS_3D_RL: read field: "GvNm1   ", #   4 in fldList, rec=   4
(PID.TID 0000.0001)  MDS_READ_FIELD: opening global file: pickup.0000072000
(PID.TID 0000.0001) READ_MFLDS_3D_RL: field: "GvNm2   " missing in file: pickup.0000072000
(PID.TID 0000.0001) READ_MFLDS_3D_RL: read field: "EtaN    ", #   9 in fldList, rec= 121
(PID.TID 0000.0001)  MDS_READ_FIELD: opening global file: pickup.0000072000
(PID.TID 0000.0001) READ_MFLDS_3D_RL: read field: "dEtaHdt ", #  10 in fldList, rec= 122
(PID.TID 0000.0001)  MDS_READ_FIELD: opening global file: pickup.0000072000
(PID.TID 0000.0001) READ_MFLDS_3D_RL: read field: "EtaH    ", #  11 in fldList, rec= 123
(PID.TID 0000.0001)  MDS_READ_FIELD: opening global file: pickup.0000072000
(PID.TID 0000.0001)  MDS_READ_FIELD: opening global file: trenberth_taux.bin
(PID.TID 0000.0001)  MDS_READ_FIELD: opening global file: trenberth_tauy.bin
(PID.TID 0000.0001)  MDS_READ_FIELD: opening global file: shiQnet_cs32.bin
(PID.TID 0000.0001)  MDS_READ_FIELD: opening global file: shiEmPR_cs32.bin
(PID.TID 0000.0001)  MDS_READ_FIELD: opening global file: lev_surfT_cs_12m.bin
(PID.TID 0000.0001)  MDS_READ_FIELD: opening global file: lev_surfS_cs_12m.bin
(PID.TID 0000.0001)  MDS_READ_FIELD: opening file: xx_theta.0000000000.001.001.data
(PID.TID 0000.0001)  MDS_READ_FIELD: opening file: xx_theta.0000000000.002.001.data
(PID.TID 0000.0001)  MDS_READ_FIELD: opening file: xx_theta.0000000000.003.001.data
(PID.TID 0000.0001)  MDS_READ_FIELD: opening file: xx_theta.0000000000.004.001.data
(PID.TID 0000.0001)  MDS_READ_FIELD: opening file: xx_theta.0000000000.005.001.data
(PID.TID 0000.0001)  MDS_READ_FIELD: opening file: xx_theta.0000000000.006.001.data
(PID.TID 0000.0001)  MDS_READ_FIELD: opening file: xx_salt.0000000000.001.001.data
(PID.TID 0000.0001)  MDS_READ_FIELD: opening file: xx_salt.0000000000.002.001.data
(PID.TID 0000.0001)  MDS_READ_FIELD: opening file: xx_salt.0000000000.003.001.data
(PID.TID 0000.0001)  MDS_READ_FIELD: opening file: xx_salt.0000000000.004.001.data
(PID.TID 0000.0001)  MDS_READ_FIELD: opening file: xx_salt.0000000000.005.001.data
(PID.TID 0000.0001)  MDS_READ_FIELD: opening file: xx_salt.0000000000.006.001.data
(PID.TID 0000.0001)  MDS_READ_FIELD: opening file: xx_diffkr.0000000000.001.001.data
(PID.TID 0000.0001)  MDS_READ_FIELD: opening file: xx_diffkr.0000000000.002.001.data
(PID.TID 0000.0001)  MDS_READ_FIELD: opening file: xx_diffkr.0000000000.003.001.data
(PID.TID 0000.0001)  MDS_READ_FIELD: opening file: xx_diffkr.0000000000.004.001.data
(PID.TID 0000.0001)  MDS_READ_FIELD: opening file: xx_diffkr.0000000000.005.001.data
(PID.TID 0000.0001)  MDS_READ_FIELD: opening file: xx_diffkr.0000000000.006.001.data
(PID.TID 0000.0001) // =======================================================
(PID.TID 0000.0001) // Model current state
(PID.TID 0000.0001) // =======================================================
(PID.TID 0000.0001) 
S/R EXTERNAL_FIELDS_LOAD: Reading new data:   12    1     72000  6.220800000000E+09
(PID.TID 0000.0001)  MDS_READ_FIELD: opening global file: trenberth_taux.bin
(PID.TID 0000.0001)  MDS_READ_FIELD: opening global file: trenberth_taux.bin
(PID.TID 0000.0001)  MDS_READ_FIELD: opening global file: trenberth_tauy.bin
(PID.TID 0000.0001)  MDS_READ_FIELD: opening global file: trenberth_tauy.bin
(PID.TID 0000.0001)  MDS_READ_FIELD: opening global file: shiQnet_cs32.bin
(PID.TID 0000.0001)  MDS_READ_FIELD: opening global file: shiQnet_cs32.bin
(PID.TID 0000.0001)  MDS_READ_FIELD: opening global file: shiEmPR_cs32.bin
(PID.TID 0000.0001)  MDS_READ_FIELD: opening global file: shiEmPR_cs32.bin
(PID.TID 0000.0001)  MDS_READ_FIELD: opening global file: lev_surfT_cs_12m.bin
(PID.TID 0000.0001)  MDS_READ_FIELD: opening global file: lev_surfT_cs_12m.bin
(PID.TID 0000.0001)  MDS_READ_FIELD: opening global file: lev_surfS_cs_12m.bin
(PID.TID 0000.0001)  MDS_READ_FIELD: opening global file: lev_surfS_cs_12m.bin
(PID.TID 0000.0001)  MDS_READ_FIELD: opening file: xx_tauu.0000000000.001.001.data
(PID.TID 0000.0001)  MDS_READ_FIELD: opening file: xx_tauu.0000000000.002.001.data
(PID.TID 0000.0001)  MDS_READ_FIELD: opening file: xx_tauu.0000000000.003.001.data
(PID.TID 0000.0001)  MDS_READ_FIELD: opening file: xx_tauu.0000000000.004.001.data
(PID.TID 0000.0001)  MDS_READ_FIELD: opening file: xx_tauu.0000000000.005.001.data
(PID.TID 0000.0001)  MDS_READ_FIELD: opening file: xx_tauu.0000000000.006.001.data
(PID.TID 0000.0001)  MDS_READ_FIELD: opening file: xx_tauv.0000000000.001.001.data
(PID.TID 0000.0001)  MDS_READ_FIELD: opening file: xx_tauv.0000000000.002.001.data
(PID.TID 0000.0001)  MDS_READ_FIELD: opening file: xx_tauv.0000000000.003.001.data
(PID.TID 0000.0001)  MDS_READ_FIELD: opening file: xx_tauv.0000000000.004.001.data
(PID.TID 0000.0001)  MDS_READ_FIELD: opening file: xx_tauv.0000000000.005.001.data
(PID.TID 0000.0001)  MDS_READ_FIELD: opening file: xx_tauv.0000000000.006.001.data
(PID.TID 0000.0001)  MDS_READ_FIELD: opening file: xx_sfl.0000000000.001.001.data
(PID.TID 0000.0001)  MDS_READ_FIELD: opening file: xx_sfl.0000000000.002.001.data
(PID.TID 0000.0001)  MDS_READ_FIELD: opening file: xx_sfl.0000000000.003.001.data
(PID.TID 0000.0001)  MDS_READ_FIELD: opening file: xx_sfl.0000000000.004.001.data
(PID.TID 0000.0001)  MDS_READ_FIELD: opening file: xx_sfl.0000000000.005.001.data
(PID.TID 0000.0001)  MDS_READ_FIELD: opening file: xx_sfl.0000000000.006.001.data
(PID.TID 0000.0001)  MDS_READ_FIELD: opening file: xx_hfl.0000000000.001.001.data
(PID.TID 0000.0001)  MDS_READ_FIELD: opening file: xx_hfl.0000000000.002.001.data
(PID.TID 0000.0001)  MDS_READ_FIELD: opening file: xx_hfl.0000000000.003.001.data
(PID.TID 0000.0001)  MDS_READ_FIELD: opening file: xx_hfl.0000000000.004.001.data
(PID.TID 0000.0001)  MDS_READ_FIELD: opening file: xx_hfl.0000000000.005.001.data
(PID.TID 0000.0001)  MDS_READ_FIELD: opening file: xx_hfl.0000000000.006.001.data
(PID.TID 0000.0001) SOLVE_FOR_PRESSURE: putPmEinXvector =    F
 cg2d: Sum(rhs),rhsMax =  -9.37916411203332E-12  4.28440421776334E+00
 cg2d: Sum(rhs),rhsMax =  -9.52127265918534E-12  4.27982545062425E+00
 cg2d: Sum(rhs),rhsMax =  -9.37916411203332E-12  4.27358143129314E+00
 cg2d: Sum(rhs),rhsMax =  -9.77706804405898E-12  4.26757584455374E+00
 cg2d: Sum(rhs),rhsMax =  -9.23705556488130E-12  4.26162662909578E+00
 cg2d: Sum(rhs),rhsMax =  -9.63495949690696E-12  4.25572413064047E+00
 cg2d: Sum(rhs),rhsMax =  -9.63495949690696E-12  4.24991959760636E+00
 cg2d: Sum(rhs),rhsMax =  -9.09494701772928E-12  4.24428632375623E+00
 cg2d: Sum(rhs),rhsMax =  -9.94759830064140E-12  4.23890091787872E+00
 cg2d: Sum(rhs),rhsMax =  -9.74864633462857E-12  4.23383241875914E+00
 cg2d: Sum(rhs),rhsMax =  -9.69180291576777E-12  4.22913460490273E+00
 cg2d: Sum(rhs),rhsMax =  -1.00328634289326E-11  4.22484531668881E+00
 cg2d: Sum(rhs),rhsMax =  -9.80548975348938E-12  4.22098692286512E+00
 cg2d: Sum(rhs),rhsMax =  -9.40758582146373E-12  4.21756851755233E+00
 cg2d: Sum(rhs),rhsMax =  -9.74864633462857E-12  4.21458764983034E+00
S/R EXTERNAL_FIELDS_LOAD: Reading new data:    1    2     72015  6.222096000000E+09
(PID.TID 0000.0001)  MDS_READ_FIELD: opening global file: trenberth_taux.bin
(PID.TID 0000.0001)  MDS_READ_FIELD: opening global file: trenberth_taux.bin
(PID.TID 0000.0001)  MDS_READ_FIELD: opening global file: trenberth_tauy.bin
(PID.TID 0000.0001)  MDS_READ_FIELD: opening global file: trenberth_tauy.bin
(PID.TID 0000.0001)  MDS_READ_FIELD: opening global file: shiQnet_cs32.bin
(PID.TID 0000.0001)  MDS_READ_FIELD: opening global file: shiQnet_cs32.bin
(PID.TID 0000.0001)  MDS_READ_FIELD: opening global file: shiEmPR_cs32.bin
(PID.TID 0000.0001)  MDS_READ_FIELD: opening global file: shiEmPR_cs32.bin
(PID.TID 0000.0001)  MDS_READ_FIELD: opening global file: lev_surfT_cs_12m.bin
(PID.TID 0000.0001)  MDS_READ_FIELD: opening global file: lev_surfT_cs_12m.bin
(PID.TID 0000.0001)  MDS_READ_FIELD: opening global file: lev_surfS_cs_12m.bin
(PID.TID 0000.0001)  MDS_READ_FIELD: opening global file: lev_surfS_cs_12m.bin
 cg2d: Sum(rhs),rhsMax =  -9.80548975348938E-12  4.21203169814395E+00
 cg2d: Sum(rhs),rhsMax =  -9.86233317235019E-12  4.20976598192211E+00
 cg2d: Sum(rhs),rhsMax =  -9.69180291576777E-12  4.20805789613228E+00
 cg2d: Sum(rhs),rhsMax =  -9.69180291576777E-12  4.20662080248171E+00
 cg2d: Sum(rhs),rhsMax =  -1.00328634289326E-11  4.20551574465445E+00
(PID.TID 0000.0001) Did not write pickup because writePickupAtEnd = FALSE
(PID.TID 0000.0001)  MDS_READ_FIELD: opening global file: lev_T_cs_15k.bin
 --> objf_test(bi,bj)   =  0.213648455692732E+05
 --> objf_tracer(bi,bj) =  0.000000000000000E+00
 --> objf_atl(bi,bj)    =  0.000000000000000E+00
 --> objf_test(bi,bj)   =  0.114793796456877E+05
 --> objf_tracer(bi,bj) =  0.000000000000000E+00
 --> objf_atl(bi,bj)    =  0.000000000000000E+00
 --> objf_test(bi,bj)   =  0.181911445070604E+05
 --> objf_tracer(bi,bj) =  0.000000000000000E+00
 --> objf_atl(bi,bj)    =  0.000000000000000E+00
 --> objf_test(bi,bj)   =  0.231468902327309E+05
 --> objf_tracer(bi,bj) =  0.000000000000000E+00
 --> objf_atl(bi,bj)    =  0.000000000000000E+00
 --> objf_test(bi,bj)   =  0.145252599416722E+05
 --> objf_tracer(bi,bj) =  0.000000000000000E+00
 --> objf_atl(bi,bj)    =  0.000000000000000E+00
 --> objf_test(bi,bj)   =  0.125100719106558E+05
 --> objf_tracer(bi,bj) =  0.000000000000000E+00
 --> objf_atl(bi,bj)    =  0.000000000000000E+00
  local fc =  0.101217591807080E+06
 global fc =  0.101217591807080E+06
(PID.TID 0000.0001)  MDS_READ_FIELD: opening file: xx_theta.0000000000.001.001.data
(PID.TID 0000.0001)  MDS_READ_FIELD: opening file: xx_theta.0000000000.002.001.data
(PID.TID 0000.0001)  MDS_READ_FIELD: opening file: xx_theta.0000000000.003.001.data
(PID.TID 0000.0001)  MDS_READ_FIELD: opening file: xx_theta.0000000000.004.001.data
(PID.TID 0000.0001)  MDS_READ_FIELD: opening file: xx_theta.0000000000.005.001.data
(PID.TID 0000.0001)  MDS_READ_FIELD: opening file: xx_theta.0000000000.006.001.data
grad-res -------------------------------
 grad-res     0    3    3    1    1    1    1    1   0.101217625557E+06 0.101217659343E+06 0.101217591807E+06
 grad-res     0    3    3    3  639    1    1    1   0.337678687225E+01 0.337678193973E+01 0.146071321994E-05
(PID.TID 0000.0001)   ADM  precision_derivative_cost =    1.01217625556549E+05
(PID.TID 0000.0001)   ADM  precision_derivative_grad =    3.37678687224983E+00
 ph-grd  ierr ---------------------------
 ph-grd  ierr =  0, icomp =  3, ichknum =  3
 ph-grd -->hit<--  4 1 1 1
(PID.TID 0000.0001)  MDS_READ_FIELD: opening file: adxx_theta.0000000000.001.001.data
(PID.TID 0000.0001)  MDS_READ_FIELD: opening file: adxx_theta.0000000000.002.001.data
(PID.TID 0000.0001)  MDS_READ_FIELD: opening file: adxx_theta.0000000000.003.001.data
(PID.TID 0000.0001)  MDS_READ_FIELD: opening file: adxx_theta.0000000000.004.001.data
(PID.TID 0000.0001)  MDS_READ_FIELD: opening file: adxx_theta.0000000000.005.001.data
(PID.TID 0000.0001)  MDS_READ_FIELD: opening file: adxx_theta.0000000000.006.001.data
(PID.TID 0000.0001)  MDS_READ_FIELD: opening file: xx_theta.0000000000.001.001.data
(PID.TID 0000.0001)  MDS_READ_FIELD: opening file: xx_theta.0000000000.002.001.data
(PID.TID 0000.0001)  MDS_READ_FIELD: opening file: xx_theta.0000000000.003.001.data
(PID.TID 0000.0001)  MDS_READ_FIELD: opening file: xx_theta.0000000000.004.001.data
(PID.TID 0000.0001)  MDS_READ_FIELD: opening file: xx_theta.0000000000.005.001.data
(PID.TID 0000.0001)  MDS_READ_FIELD: opening file: xx_theta.0000000000.006.001.data
(PID.TID 0000.0001)  MDS_READ_FIELD: opening global file: bathy_Hmin50.bin
(PID.TID 0000.0001) // =======================================================
(PID.TID 0000.0001) // Field Model R_low (ini_masks_etc) at iteration          1
(PID.TID 0000.0001) // CMIN =         -5.200000000000000E+03
(PID.TID 0000.0001) // CMAX =         -5.000000000000000E+01
(PID.TID 0000.0001) // CINT =          1.907407407407407E+02
(PID.TID 0000.0001) // SYMBOLS (CMIN->CMAX): -abcdefghijklmnopqrstuvwxyz+
(PID.TID 0000.0001) //                  0.0: .
(PID.TID 0000.0001) // RANGE I (Lo:Hi:Step):(    -3:   196:     1)
(PID.TID 0000.0001) // RANGE J (Lo:Hi:Step):(    36:    -3:    -1)
(PID.TID 0000.0001) // RANGE K (Lo:Hi:Step):(   1:   1:   1)
(PID.TID 0000.0001) // =======================================================
(PID.TID 0000.0001) K =   1
(PID.TID 0000.0001) //                I=6       I=16      I=26      I=36      I=38      I=48      I=58      I=68      I=70      I=80      I=90      I=100     I=102     I=112     I=122     I=132     I=134     I=144     I=154     I=164     I=166     I=176     I=186     I=196
(PID.TID 0000.0001) // |--J--|321012345|789012345|789012345|789012345|901234567|901234567|901234567|901234567|123456789|123456789|123456789|123456789|345678901|345678901|345678901|345678901|567890123|567890123|567890123|567890123|789012345|789012345|789012345|789012345|
(PID.TID 0000.0001) //     36 cbbc-ddcbcdehkhhmn..++..................................................okn.skko--a-fc----bba-cp.............tfeecccbbdeecccbbdeddedcdcccdddcddffggghiggfffdeeffijlihjlica---a--cgffel.+edfgeedflcbahgfllcbahgfllfhdffhkfffca-aady...llnabdoa--a
(PID.TID 0000.0001) //     35 dcac--cbbeefjkfefw+..........zpu........................................kqnzrqqk--b-da----bbbbfu..............fdddccaadcddccaadcdddcbbbbcdddcccdffffghgffffddefflligfiljfba---aafddehy...pwvlhfffcbagfccfcbagfcceeffffjlkjgaa---bfvheeln-aesaaab
(PID.TID 0000.0001) //     34 d--ba-abcehjnldcclz+........spps.......................................vkqn+xnnncabbcbba--aabfu+..............hcbaaaaaccbaaaaaccdccbaaabbddddccdffffghfeeeeedeffjiffefilhfcaaaacgceei.......zomggfcaecbbgfcaecbbccddefilihecbaacbaajfega-aesfeed
(PID.TID 0000.0001) //     33 --abbbccceiomkfdbbc+.......+s..........................................xsrxzz+z.fdcddb-----adu+...............hcbaa--accbaa--accddba--bbbddddccdfffhhgfeeddcceddhfeddfgikhfffdfgccffw........zohhgebbaaahgebbaaaaaccdfhlhfefdcccaabjefbaaafoosso
(PID.TID 0000.0001) //     32 --bddefhhkqqlgfaakqz..v.+..+.........................................++..u+....zigfdba----adu+................kdcaaa-acccaaa-accdcb---bbbcdddddefffggfeeedcccccbccbbdcdfgghhiihcbeiw.........+ynjgebaaaajgebaaaa-aacccfikkhecccbbbaaabaadfklnqpp
(PID.TID 0000.0001) //     31 abbcffijnpnqneaaat..umrr+s.z.........................................+++++.ztsvdlifeb--dfdfu+................+lkdca--abcdca--abcccb---bbbbddddeffflhfeeeecbbbbaaba-abbacbcdceffbbfw+..........++ujfbaaa-ujfbaaa----aacffiljgfffcca--adfikkiihhhf
(PID.TID 0000.0001) //     30 --adgillkkkifcadcx.ymmqzqikvnnps.....................................+++++wmegt-jlifcacdlqx+++...............mligea---abgea---abbbb---abaaddddeedkmeddefdbbbaaaabc---b--aaaaabaabm..............+viba---+viba-------acdefinmlgiieb-chnnnmlmlgffc
(PID.TID 0000.0001) //     29 --cfiljigfjd--efdozy...+ximpnnuz......................................+++yqddhp-iljhcbbchz+......++.........+mmhffc----affc----aaba------acdddcbcineddgdbaaa----cdd--a------aa-bfz...............+qe---a.+qe---aa---aedeegknmlgiigcdfhpokkimlfdb
(PID.TID 0000.0001) //     28 -abgkhfcccea-bdei........t............................................++zwgfcfk-gknhccbbhwwy.....+++........+njfeed-----eed-----aa-------abddcabcnfddegcaaa-----hlf------------dk+................+ja---..+ja------bffdddehfd--bedaacfhpnligiihd
(PID.TID 0000.0001) //     27 -acghfbaaaa-achmy......................+.......+++....................++vnbbbclefkpkeeecflmqxy....++........+lhfeecc----eecc------------aaadcbabcfhddccba-------zqd-----------irw.................++e---..++e-----mhmijddda--------ahhfiokhedegg
(PID.TID 0000.0001) //     26 -adhfca-----bfiv.......................+.......++sy...................+tq-fdbblcjknqiheddefhiksz++++........zkhfdccb----dccb------------aabdcaaaacfddbca-------a+xfa-abb-----vvv...................+wa--...+wa---mlmkijhc----------cjjffiheb-aad
(PID.TID 0000.0001) //     25 -achfa------ch+..................w.......w.......njo+................+x-----bcgidiqqojfefiiiijmy.++.........zkhfdbaa----dbaa-------daa---acccaaaacccca--------ac.+udaabbb----tei...................++qde...++qdeqnghiljcaaaaidaa----beedeeca--bb
(PID.TID 0000.0001) //     24 aaeifa--acbcei...................w.......w.......likn+.....++.....++znpa----bbdi-fnlmnjhinlksssw............qhfeca------ca--------addc--aeffaaaaaaccb-a----a--bd.++udbbaba---ven....................++xy....++xywnfgllcbbabegkecba----ddddcaacdc
(PID.TID 0000.0001) //     23 abfida-aabchjk...................zz......zz.....nhhijz....tqq.....+ujgzgd---abci-cegklkkknols..xuu..........zgfdba------ba--------bcd---affaaadffabbb-----aa-bcc.+.+ufb-----l.gx...........s.........++z.....++zzkfilfccccoz..ulkcd---bccnfddddd
(PID.TID 0000.0001) //     22 -afhfaa---bfgi....................zz..rn..zz..rnjffggm...nlmn+....+sffzya--aabcieaaffdfhimrmp...yuu.++.......zudba------ba--------adc---dda-adffe-aa--------aaac....+ufc-baaqvhh..........dcfeeh......++......++zggqvifefhz......zobbaccfwuffeee
(PID.TID 0000.0001) //     21 babcgca----abe.....................ysstl...ysstlgeeeeoz..ijklt+....lfjzzf---adfcfdaadcehllotq....yy+++zzs.....+zcba-----cba-------cdd--aaa----df------------aaac.....+upjdcy.vohq.......+idcdfeeefwz....efwz....+hhn.vklox.........gdccfjwrigffh
(PID.TID 0000.0001) //     20 fbbbcgfcaa-aae+.......................lc......lcgfdddhq.+hiilnz++.+oquxyz--adgkfdcaabcfmtooyxz......+yuiiy....++gb------gb--------ddcca-a-----acbaa------bbaaaab........ywxy.lulo.lv...kcdgddffefffilyx+fffilyx+fffk.+xyyy.........mgeimvskjklll
(PID.TID 0000.0001) //     19 zmfeccdghfeegcbt......................aa......aafifccgnrzgghjry.+++sr+lq.--edfkkoxtkblwnnsp.vv......skhggt...+++t-------t---------bdaf---------edd-------adlaaaa+..........vnhzy.tllqiedccdhggfggffiiggfgffiiggfcbdgy..yz..........xigqophijkkii
(PID.TID 0000.0001) //     18 ..wifedfkhfegbbcivlqfoz..............jaa.....jaacfihggokeeffgt..++++..hhlfdeddkez..qcz+.zwxtsttz..ysrkhot++++++zig------ig--------b--f---------egqqqaa----frb---+........+kkrhw.vqmlnieddcdehgggffgigedbffgigedbaaceiy.............zilrddefikkhh
(PID.TID 0000.0001) //     17 ..+wfeefikhgcbbccaaacgn.............icaa....icaaccfihfoedddeedy..++...nnqwgfeekeyy.z++..+zsjjllllljllpjos+++.+zhhi-----ehi-----e-----ea--------foqqoqqo--hlwgea-.........+nk+..xiioonhfefddegihhghigfdbaghigfdbaaabdgx..............nheddefiklhg
(PID.TID 0000.0001) //     16 ....wiheddeccdfhfbabdfl............jdbad...jdbaddddgifkccccdccd+.++..++ynvz.tkkq.mu....++zyslllllkhggkmpy++...ihhi-----ehi-----ea---feb-----a-acnoohfghknvmwnuca..........qhu..hhhkojgffgeefghihhiieedbahiieedbaaabcdy..............ygddeghiljgf
(PID.TID 0000.0001) //     15 ......ylea--acfihebcbbes..........sfcbbn..sfcbbngfffigcaaabdbcac+.+++++zgmpx...y.mm....++..zslwz.yhhhhnz+++...rhgc----abgc----ab----ige----acaaalllkddfiy..yswxb..........thk.xgghiligfghfefhhhhiiheedcdiiheedcdbbabdmz.............zfdeghikkifd
(PID.TID 0000.0001) //     14 ........c---acgkhdcc--di..........ofddch..ofddchohffikaaaaabaaa-aw+.+ysnggox++...qrv..........yzzzzrjil+++....qhgd-----agd-----a-----i---cccdeabkklldinqssy..xxv...........+y.uhghikihgfghefgihhhgeeeeedhgeeeeeddbaadhw.............nedeghjjhfed
(PID.TID 0000.0001) //     13 .......+b----cfkhec---afz.........nhfdff..nhfdffholghkaaaaaba-a---flkkuswyy++++y+zr...........zzzzz++ry++......yd-------d--------------aeecdeidfkkqnqlmqquukqqmf..............iihiijjhfefgefhjihiffgggffiffgggffecaabelx...........zjecehijhfecc
(PID.TID 0000.0001) //     12 .......ec----chjhec---ag..........skiqdd..skiqddeiiiifaaabae--a---dd--iu+++.+++sxq++..........+z+++++.+++....++.s-------s------------a-ceccdejhlllkqlkklssiccdee.............wjkkkjjjigeefffgjiiighiiihhighiiihhhdaabdffghtxx......mfccehjiffdb-
(PID.TID 0000.0001) //     11 ......pdca--achlheba--ai..........nkn.fd..nkn.fdemijidaaaabi-------a--q+....++.ziis...........+++++..........+yyza----b-za----b-----a--ccccddkhieekkossssfbbbbcd............njjijhhihijhgggggjjjjijkkkkjjijkkkkjjhcaacddeegpy.....xfdccdhjgfdda-
(PID.TID 0000.0001) //     10 ......wfdb--achlhea---an.........uos..dc.uos..dcemikkfdcaabi-------equ+.........mk...........................zyvuq----ccuq----cc----a---dcfhkopqjeissrnpfbbcccde..........zslihhigghgijjihhhhkllkkkkkkjkkkkkkkjkkkedccdeeeeipz..zwhccbcdhgfddcam
(PID.TID 0000.0001) //      9 ......vgec---bfikca--cjl+.......+nnv.+cc+nnv.+ccffhkkiddaadha-----as++..........pvz++........................zxuuk------uk------a---a----djmqrrnlllsoiddcccccdjf.........+zjijhfgfggffhjkkkiillljihhghgijihhghgihighdeeffgghimnnjgecbbcdgfeccbas
(PID.TID 0000.0001) //      8 .....zleca---afjfca--hdfz.......vkky.jcevkky.jceddefijffdddhb--a-afv............nn..ss.........................+yku-----yku--------------ejnpqqnninnritqdccchkmf+.......wihgghgeffffeefhijkjkljiigeeffefigeeffefffhjhhikkklljklmhffeeeggfdcbaay.
(PID.TID 0000.0001) //      7 ...+zohec--abcfkhecbchbdx.......qiht.faaqiht.faaaabdgijgfededcdcb-f+............nn...pz.........................+zu-----+zu--------------edefqgqddsz+......+yuddmm+....tiggfggfeeeefeeefiiiijkiihhedddddhheddddddddjjllliijhfkmmkkjjhijgdcba--q.
(PID.TID 0000.0001) //      6 ..+yomfddcaabefkifdchaadt......uqdeisc--qdeisc----dfefgifffkklldc--v............up...pp.........................v.x-----v.x---------a----fbbpqgzenx+........zdbcmllkhhfffffffgfeeeeeeeefhhhhijihhffddcbbhffddcbbbbdhhiihedddb-cfhhhjjjieca----+.
(PID.TID 0000.0001) //      5 ..+nhgffkghccfhkhffgdaackz....uoibcimlaaibcimlaaacfbddfjjhijeehf-a-c............zs...su.........................qk.yi---qk.yi-------gha-fjddqs+xkrz.........q-bchikdccdeeeeeeedddedddddgghhhhjhhgffcbbaagffcbbaaaaddfegecca----dfeefhfgdb-----+.
(PID.TID 0000.0001) //      4 .+ujhgfllfhdffhkfffca-aady...llnabdopfcbabdopfcbdgdbcdehlihgfddc--ms............................................okn.zd--okn.zd---eciiiicfkeeqy.ysz..........n-aafgdcbbdeddedcdcccdddcddffggghiggfffdbaa-fffdbaa---acdcccba--abvfedeffdcca----b+.
(PID.TID 0000.0001) //      3 +vjggfcceeffffjlkjgaa---bfvheeln-aesphfd-aesphfdhgabddeflihhgfecbaaayq+++++.....................................kqnz.vtpkqnz.vtpkllgdccfkkkkk..++..........+g---fecaaadcdddcbbbbcdddcccdffffghgffffdcaa-fffdcaa----abcaaaa-acxxmecdjmdbba----r+.
(PID.TID 0000.0001) //      2 qifeecbbccddefilihecbaacbaajfega-aesqhff-aesqhffiea-cdeflkkljifeddcba---bry+...................................vkqn+.sghkqn+.sghfcbcbbbdgfdek.++++.........+l---caaaaaccdccbaaabbddddccdffffghfeeeeecba-eeeecba------baaaa-euwxqdbcdkud-----sy+.
(PID.TID 0000.0001) //      1 ebbbbaaaaaccdfhlhfefdcccaabjefbaaafonhglaafonhglid--adfgkkkklkhffddca-----s++++................................xsrxz.tedsrxz.tedcbbbbaaadddet.++++.........+l------a-accddba--bbbddddccdfffhhgfeeddccba-eddccba-------aaaabgns.qcbcchyzqngll++..
(PID.TID 0000.0001) //      0 -aaaaaaa-aacccfikkhecccbbbaaabaadfkllilmdfkllilmgebaadfijjiiikjhffdcba-----lllgn.............................++..u+..zmd.u+..zmdfbd---a-aeef.xx+..........+++s-------accdcb---bbbcdddddefffggfeeedcccbbaedcccbba----aa--alrwwy.kcbccc+...++++...
(PID.TID 0000.0001) //     -1 --aaaaa----aacffiljgfffcca--adfikkiikimikkiikimiiheccfurkiffhijjigfecb-----l----.............................+++++.z+.wq++.z+.wqgbf-------dgzpoy+........+ys+yrb--aa-abcccb---bbbbddddeffflhfeeeecbbcbbaecbbcbbaa----a--bdflm.yuibbcc.......+...
(PID.TID 0000.0001) //     -2 --aaa-------acdefinmlgiieb-chnnnmlmlfklkmlmlfklklkhednwwsheeghhijjgfdca----g---a.............................+++++wmu++y++wmu++ywn--------fwvmgy+........+r-.+++-abc--abbbb---abaaddddeedkmeddefdbbbdcbadbbbdcbaa-------ba-hv.susfbcc.......+...
(PID.TID 0000.0001) //     -3 a--a---aa---aedeegknmlgiigcdfhpokkimdkmkkkimdkmknoiedcfjvpddegghhhhgfdcbaa-n---a..............................+++yqd.++++yqd.+++zvq--dafz.lqnggw+........+b-....abcc---aaba------acdddcbcineddgdbaaaeedbbaaaeedbaa----------nysqssfcd...........
(PID.TID 0000.0001) // =======================================================
(PID.TID 0000.0001) // END OF FIELD                                          =
(PID.TID 0000.0001) // =======================================================
(PID.TID 0000.0001) 
(PID.TID 0000.0001) // =======================================================
(PID.TID 0000.0001) // Field Model Ro_surf (ini_masks_etc) at iteration          1
(PID.TID 0000.0001) // CMIN =         -7.105427357601002E-15
(PID.TID 0000.0001) // CMAX =         -7.105427357601002E-15
(PID.TID 0000.0001) // CINT =          0.000000000000000E+00
(PID.TID 0000.0001) // SYMBOLS (CMIN->CMAX): -abcdefghijklmnopqrstuvwxyz+
(PID.TID 0000.0001) //                  0.0: .
(PID.TID 0000.0001) // RANGE I (Lo:Hi:Step):(    -3:   196:     1)
(PID.TID 0000.0001) // RANGE J (Lo:Hi:Step):(    36:    -3:    -1)
(PID.TID 0000.0001) // RANGE K (Lo:Hi:Step):(   1:   1:   1)
(PID.TID 0000.0001) // =======================================================
(PID.TID 0000.0001) // =======================================================
(PID.TID 0000.0001) // END OF FIELD                                          =
(PID.TID 0000.0001) // =======================================================
(PID.TID 0000.0001) 
(PID.TID 0000.0001) // =======================================================
(PID.TID 0000.0001) // Field hFacC at iteration          1
(PID.TID 0000.0001) // CMIN =          1.000000000000000E+00
(PID.TID 0000.0001) // CMAX =          1.000000000000000E+00
(PID.TID 0000.0001) // CINT =          0.000000000000000E+00
(PID.TID 0000.0001) // SYMBOLS (CMIN->CMAX): -abcdefghijklmnopqrstuvwxyz+
(PID.TID 0000.0001) //                  0.0: .
(PID.TID 0000.0001) // RANGE I (Lo:Hi:Step):(    -3:   196:     1)
(PID.TID 0000.0001) // RANGE J (Lo:Hi:Step):(    36:    -3:    -1)
(PID.TID 0000.0001) // RANGE K (Lo:Hi:Step):(   1:   1:   1)
(PID.TID 0000.0001) // =======================================================
(PID.TID 0000.0001) // =======================================================
(PID.TID 0000.0001) // END OF FIELD                                          =
(PID.TID 0000.0001) // =======================================================
(PID.TID 0000.0001) 
(PID.TID 0000.0001) // =======================================================
(PID.TID 0000.0001) // Field hFacW at iteration          1
(PID.TID 0000.0001) // CMIN =          1.000000000000000E+00
(PID.TID 0000.0001) // CMAX =          1.000000000000000E+00
(PID.TID 0000.0001) // CINT =          0.000000000000000E+00
(PID.TID 0000.0001) // SYMBOLS (CMIN->CMAX): -abcdefghijklmnopqrstuvwxyz+
(PID.TID 0000.0001) //                  0.0: .
(PID.TID 0000.0001) // RANGE I (Lo:Hi:Step):(    -3:   196:     1)
(PID.TID 0000.0001) // RANGE J (Lo:Hi:Step):(    36:    -3:    -1)
(PID.TID 0000.0001) // RANGE K (Lo:Hi:Step):(   1:   1:   1)
(PID.TID 0000.0001) // =======================================================
(PID.TID 0000.0001) // =======================================================
(PID.TID 0000.0001) // END OF FIELD                                          =
(PID.TID 0000.0001) // =======================================================
(PID.TID 0000.0001) 
(PID.TID 0000.0001) // =======================================================
(PID.TID 0000.0001) // Field hFacS at iteration          1
(PID.TID 0000.0001) // CMIN =          1.000000000000000E+00
(PID.TID 0000.0001) // CMAX =          1.000000000000000E+00
(PID.TID 0000.0001) // CINT =          0.000000000000000E+00
(PID.TID 0000.0001) // SYMBOLS (CMIN->CMAX): -abcdefghijklmnopqrstuvwxyz+
(PID.TID 0000.0001) //                  0.0: .
(PID.TID 0000.0001) // RANGE I (Lo:Hi:Step):(    -3:   196:     1)
(PID.TID 0000.0001) // RANGE J (Lo:Hi:Step):(    36:    -3:    -1)
(PID.TID 0000.0001) // RANGE K (Lo:Hi:Step):(   1:   1:   1)
(PID.TID 0000.0001) // =======================================================
(PID.TID 0000.0001) // =======================================================
(PID.TID 0000.0001) // END OF FIELD                                          =
(PID.TID 0000.0001) // =======================================================
(PID.TID 0000.0001) 
(PID.TID 0000.0001) INI_CG2D: CG2D normalisation factor =  1.9156564154949553E-04
(PID.TID 0000.0001) INI_CG2D: cg2dTolerance = 5.809016360175293E-07 (Area=3.6388673751E+14)
(PID.TID 0000.0001) 
(PID.TID 0000.0001)  MDS_READ_META: opening file: pickup.0000072000.meta
(PID.TID 0000.0001)  nRecords = 123 ; filePrec =  64 ; fileIter =     72000
(PID.TID 0000.0001)     nDims =   2 , dims:
(PID.TID 0000.0001)    1: 192   1 192
(PID.TID 0000.0001)    2:  32   1  32
(PID.TID 0000.0001)     nFlds =  11 , nFl3D =   8 , fields:
(PID.TID 0000.0001)  >Uvel    < >GuNm1   < >Vvel    < >GvNm1   < >Theta   < >GtNm1   < >Salt    < >GsNm1   < >EtaN    < >dEtaHdt < >EtaH    <
(PID.TID 0000.0001)   nTimRec =   0 , timeList:
(PID.TID 0000.0001) READ_MFLDS_3D_RL: read field: "Uvel    ", #   1 in fldList, rec=   1
(PID.TID 0000.0001)  MDS_READ_FIELD: opening global file: pickup.0000072000
(PID.TID 0000.0001) READ_MFLDS_3D_RL: read field: "Vvel    ", #   3 in fldList, rec=   3
(PID.TID 0000.0001)  MDS_READ_FIELD: opening global file: pickup.0000072000
(PID.TID 0000.0001) READ_MFLDS_3D_RL: read field: "Theta   ", #   5 in fldList, rec=   5
(PID.TID 0000.0001)  MDS_READ_FIELD: opening global file: pickup.0000072000
(PID.TID 0000.0001) READ_MFLDS_3D_RL: read field: "Salt    ", #   7 in fldList, rec=   7
(PID.TID 0000.0001)  MDS_READ_FIELD: opening global file: pickup.0000072000
(PID.TID 0000.0001) READ_MFLDS_3D_RL: read field: "GuNm1   ", #   2 in fldList, rec=   2
(PID.TID 0000.0001)  MDS_READ_FIELD: opening global file: pickup.0000072000
(PID.TID 0000.0001) READ_MFLDS_3D_RL: field: "GuNm2   " missing in file: pickup.0000072000
(PID.TID 0000.0001) READ_MFLDS_3D_RL: read field: "GvNm1   ", #   4 in fldList, rec=   4
(PID.TID 0000.0001)  MDS_READ_FIELD: opening global file: pickup.0000072000
(PID.TID 0000.0001) READ_MFLDS_3D_RL: field: "GvNm2   " missing in file: pickup.0000072000
(PID.TID 0000.0001) READ_MFLDS_3D_RL: read field: "EtaN    ", #   9 in fldList, rec= 121
(PID.TID 0000.0001)  MDS_READ_FIELD: opening global file: pickup.0000072000
(PID.TID 0000.0001) READ_MFLDS_3D_RL: read field: "dEtaHdt ", #  10 in fldList, rec= 122
(PID.TID 0000.0001)  MDS_READ_FIELD: opening global file: pickup.0000072000
(PID.TID 0000.0001) READ_MFLDS_3D_RL: read field: "EtaH    ", #  11 in fldList, rec= 123
(PID.TID 0000.0001)  MDS_READ_FIELD: opening global file: pickup.0000072000
(PID.TID 0000.0001)  MDS_READ_FIELD: opening global file: trenberth_taux.bin
(PID.TID 0000.0001)  MDS_READ_FIELD: opening global file: trenberth_tauy.bin
(PID.TID 0000.0001)  MDS_READ_FIELD: opening global file: shiQnet_cs32.bin
(PID.TID 0000.0001)  MDS_READ_FIELD: opening global file: shiEmPR_cs32.bin
(PID.TID 0000.0001)  MDS_READ_FIELD: opening global file: lev_surfT_cs_12m.bin
(PID.TID 0000.0001)  MDS_READ_FIELD: opening global file: lev_surfS_cs_12m.bin
(PID.TID 0000.0001)  MDS_READ_FIELD: opening file: xx_theta.0000000000.001.001.data
(PID.TID 0000.0001)  MDS_READ_FIELD: opening file: xx_theta.0000000000.002.001.data
(PID.TID 0000.0001)  MDS_READ_FIELD: opening file: xx_theta.0000000000.003.001.data
(PID.TID 0000.0001)  MDS_READ_FIELD: opening file: xx_theta.0000000000.004.001.data
(PID.TID 0000.0001)  MDS_READ_FIELD: opening file: xx_theta.0000000000.005.001.data
(PID.TID 0000.0001)  MDS_READ_FIELD: opening file: xx_theta.0000000000.006.001.data
(PID.TID 0000.0001)  MDS_READ_FIELD: opening file: xx_salt.0000000000.001.001.data
(PID.TID 0000.0001)  MDS_READ_FIELD: opening file: xx_salt.0000000000.002.001.data
(PID.TID 0000.0001)  MDS_READ_FIELD: opening file: xx_salt.0000000000.003.001.data
(PID.TID 0000.0001)  MDS_READ_FIELD: opening file: xx_salt.0000000000.004.001.data
(PID.TID 0000.0001)  MDS_READ_FIELD: opening file: xx_salt.0000000000.005.001.data
(PID.TID 0000.0001)  MDS_READ_FIELD: opening file: xx_salt.0000000000.006.001.data
(PID.TID 0000.0001)  MDS_READ_FIELD: opening file: xx_diffkr.0000000000.001.001.data
(PID.TID 0000.0001)  MDS_READ_FIELD: opening file: xx_diffkr.0000000000.002.001.data
(PID.TID 0000.0001)  MDS_READ_FIELD: opening file: xx_diffkr.0000000000.003.001.data
(PID.TID 0000.0001)  MDS_READ_FIELD: opening file: xx_diffkr.0000000000.004.001.data
(PID.TID 0000.0001)  MDS_READ_FIELD: opening file: xx_diffkr.0000000000.005.001.data
(PID.TID 0000.0001)  MDS_READ_FIELD: opening file: xx_diffkr.0000000000.006.001.data
(PID.TID 0000.0001) // =======================================================
(PID.TID 0000.0001) // Model current state
(PID.TID 0000.0001) // =======================================================
(PID.TID 0000.0001) 
S/R EXTERNAL_FIELDS_LOAD: Reading new data:   12    1     72000  6.220800000000E+09
(PID.TID 0000.0001)  MDS_READ_FIELD: opening global file: trenberth_taux.bin
(PID.TID 0000.0001)  MDS_READ_FIELD: opening global file: trenberth_taux.bin
(PID.TID 0000.0001)  MDS_READ_FIELD: opening global file: trenberth_tauy.bin
(PID.TID 0000.0001)  MDS_READ_FIELD: opening global file: trenberth_tauy.bin
(PID.TID 0000.0001)  MDS_READ_FIELD: opening global file: shiQnet_cs32.bin
(PID.TID 0000.0001)  MDS_READ_FIELD: opening global file: shiQnet_cs32.bin
(PID.TID 0000.0001)  MDS_READ_FIELD: opening global file: shiEmPR_cs32.bin
(PID.TID 0000.0001)  MDS_READ_FIELD: opening global file: shiEmPR_cs32.bin
(PID.TID 0000.0001)  MDS_READ_FIELD: opening global file: lev_surfT_cs_12m.bin
(PID.TID 0000.0001)  MDS_READ_FIELD: opening global file: lev_surfT_cs_12m.bin
(PID.TID 0000.0001)  MDS_READ_FIELD: opening global file: lev_surfS_cs_12m.bin
(PID.TID 0000.0001)  MDS_READ_FIELD: opening global file: lev_surfS_cs_12m.bin
(PID.TID 0000.0001)  MDS_READ_FIELD: opening file: xx_tauu.0000000000.001.001.data
(PID.TID 0000.0001)  MDS_READ_FIELD: opening file: xx_tauu.0000000000.002.001.data
(PID.TID 0000.0001)  MDS_READ_FIELD: opening file: xx_tauu.0000000000.003.001.data
(PID.TID 0000.0001)  MDS_READ_FIELD: opening file: xx_tauu.0000000000.004.001.data
(PID.TID 0000.0001)  MDS_READ_FIELD: opening file: xx_tauu.0000000000.005.001.data
(PID.TID 0000.0001)  MDS_READ_FIELD: opening file: xx_tauu.0000000000.006.001.data
(PID.TID 0000.0001)  MDS_READ_FIELD: opening file: xx_tauv.0000000000.001.001.data
(PID.TID 0000.0001)  MDS_READ_FIELD: opening file: xx_tauv.0000000000.002.001.data
(PID.TID 0000.0001)  MDS_READ_FIELD: opening file: xx_tauv.0000000000.003.001.data
(PID.TID 0000.0001)  MDS_READ_FIELD: opening file: xx_tauv.0000000000.004.001.data
(PID.TID 0000.0001)  MDS_READ_FIELD: opening file: xx_tauv.0000000000.005.001.data
(PID.TID 0000.0001)  MDS_READ_FIELD: opening file: xx_tauv.0000000000.006.001.data
(PID.TID 0000.0001)  MDS_READ_FIELD: opening file: xx_sfl.0000000000.001.001.data
(PID.TID 0000.0001)  MDS_READ_FIELD: opening file: xx_sfl.0000000000.002.001.data
(PID.TID 0000.0001)  MDS_READ_FIELD: opening file: xx_sfl.0000000000.003.001.data
(PID.TID 0000.0001)  MDS_READ_FIELD: opening file: xx_sfl.0000000000.004.001.data
(PID.TID 0000.0001)  MDS_READ_FIELD: opening file: xx_sfl.0000000000.005.001.data
(PID.TID 0000.0001)  MDS_READ_FIELD: opening file: xx_sfl.0000000000.006.001.data
(PID.TID 0000.0001)  MDS_READ_FIELD: opening file: xx_hfl.0000000000.001.001.data
(PID.TID 0000.0001)  MDS_READ_FIELD: opening file: xx_hfl.0000000000.002.001.data
(PID.TID 0000.0001)  MDS_READ_FIELD: opening file: xx_hfl.0000000000.003.001.data
(PID.TID 0000.0001)  MDS_READ_FIELD: opening file: xx_hfl.0000000000.004.001.data
(PID.TID 0000.0001)  MDS_READ_FIELD: opening file: xx_hfl.0000000000.005.001.data
(PID.TID 0000.0001)  MDS_READ_FIELD: opening file: xx_hfl.0000000000.006.001.data
(PID.TID 0000.0001) SOLVE_FOR_PRESSURE: putPmEinXvector =    F
 cg2d: Sum(rhs),rhsMax =  -9.37916411203332E-12  4.28440421776334E+00
 cg2d: Sum(rhs),rhsMax =  -9.80548975348938E-12  4.27982545036447E+00
 cg2d: Sum(rhs),rhsMax =  -1.01181285572238E-11  4.27358143035771E+00
 cg2d: Sum(rhs),rhsMax =  -9.54969436861575E-12  4.26757584216708E+00
 cg2d: Sum(rhs),rhsMax =  -9.83391146291979E-12  4.26162662483336E+00
 cg2d: Sum(rhs),rhsMax =  -9.52127265918534E-12  4.25572412434963E+00
 cg2d: Sum(rhs),rhsMax =  -9.15179043659009E-12  4.24991958935081E+00
 cg2d: Sum(rhs),rhsMax =  -9.72022462519817E-12  4.24428631379714E+00
 cg2d: Sum(rhs),rhsMax =  -9.63495949690696E-12  4.23890090661071E+00
 cg2d: Sum(rhs),rhsMax =  -9.54969436861575E-12  4.23383240661510E+00
 cg2d: Sum(rhs),rhsMax =  -9.77706804405898E-12  4.22913459220854E+00
 cg2d: Sum(rhs),rhsMax =  -9.52127265918534E-12  4.22484530367126E+00
 cg2d: Sum(rhs),rhsMax =  -9.49285094975494E-12  4.22098690966523E+00
 cg2d: Sum(rhs),rhsMax =  -9.80548975348938E-12  4.21756850441255E+00
 cg2d: Sum(rhs),rhsMax =  -9.63495949690696E-12  4.21458763710298E+00
S/R EXTERNAL_FIELDS_LOAD: Reading new data:    1    2     72015  6.222096000000E+09
(PID.TID 0000.0001)  MDS_READ_FIELD: opening global file: trenberth_taux.bin
(PID.TID 0000.0001)  MDS_READ_FIELD: opening global file: trenberth_taux.bin
(PID.TID 0000.0001)  MDS_READ_FIELD: opening global file: trenberth_tauy.bin
(PID.TID 0000.0001)  MDS_READ_FIELD: opening global file: trenberth_tauy.bin
(PID.TID 0000.0001)  MDS_READ_FIELD: opening global file: shiQnet_cs32.bin
(PID.TID 0000.0001)  MDS_READ_FIELD: opening global file: shiQnet_cs32.bin
(PID.TID 0000.0001)  MDS_READ_FIELD: opening global file: shiEmPR_cs32.bin
(PID.TID 0000.0001)  MDS_READ_FIELD: opening global file: shiEmPR_cs32.bin
(PID.TID 0000.0001)  MDS_READ_FIELD: opening global file: lev_surfT_cs_12m.bin
(PID.TID 0000.0001)  MDS_READ_FIELD: opening global file: lev_surfT_cs_12m.bin
(PID.TID 0000.0001)  MDS_READ_FIELD: opening global file: lev_surfS_cs_12m.bin
(PID.TID 0000.0001)  MDS_READ_FIELD: opening global file: lev_surfS_cs_12m.bin
 cg2d: Sum(rhs),rhsMax =  -9.66338120633736E-12  4.21203168628930E+00
 cg2d: Sum(rhs),rhsMax =  -9.57811607804615E-12  4.20976597143064E+00
 cg2d: Sum(rhs),rhsMax =  -9.32232069317251E-12  4.20805788740407E+00
 cg2d: Sum(rhs),rhsMax =  -9.52127265918534E-12  4.20662079578128E+00
 cg2d: Sum(rhs),rhsMax =  -1.00612851383630E-11  4.20551574008143E+00
(PID.TID 0000.0001) Did not write pickup because writePickupAtEnd = FALSE
(PID.TID 0000.0001)  MDS_READ_FIELD: opening global file: lev_T_cs_15k.bin
 --> objf_test(bi,bj)   =  0.213649041136767E+05
 --> objf_tracer(bi,bj) =  0.000000000000000E+00
 --> objf_atl(bi,bj)    =  0.000000000000000E+00
 --> objf_test(bi,bj)   =  0.114793796474759E+05
 --> objf_tracer(bi,bj) =  0.000000000000000E+00
 --> objf_atl(bi,bj)    =  0.000000000000000E+00
 --> objf_test(bi,bj)   =  0.181911445091319E+05
 --> objf_tracer(bi,bj) =  0.000000000000000E+00
 --> objf_atl(bi,bj)    =  0.000000000000000E+00
 --> objf_test(bi,bj)   =  0.231468902266236E+05
 --> objf_tracer(bi,bj) =  0.000000000000000E+00
 --> objf_atl(bi,bj)    =  0.000000000000000E+00
 --> objf_test(bi,bj)   =  0.145252601209895E+05
 --> objf_tracer(bi,bj) =  0.000000000000000E+00
 --> objf_atl(bi,bj)    =  0.000000000000000E+00
 --> objf_test(bi,bj)   =  0.125100765450569E+05
 --> objf_tracer(bi,bj) =  0.000000000000000E+00
 --> objf_atl(bi,bj)    =  0.000000000000000E+00
  local fc =  0.101217655162954E+06
 global fc =  0.101217655162954E+06
 ph-check fcpertplus =   101217.655
(PID.TID 0000.0001)  MDS_READ_FIELD: opening file: xx_theta.0000000000.001.001.data
(PID.TID 0000.0001)  MDS_READ_FIELD: opening file: xx_theta.0000000000.002.001.data
(PID.TID 0000.0001)  MDS_READ_FIELD: opening file: xx_theta.0000000000.003.001.data
(PID.TID 0000.0001)  MDS_READ_FIELD: opening file: xx_theta.0000000000.004.001.data
(PID.TID 0000.0001)  MDS_READ_FIELD: opening file: xx_theta.0000000000.005.001.data
(PID.TID 0000.0001)  MDS_READ_FIELD: opening file: xx_theta.0000000000.006.001.data
 ph-check fcpertminus =   101217.626
(PID.TID 0000.0001)  MDS_READ_FIELD: opening file: xx_theta.0000000000.001.001.data
(PID.TID 0000.0001)  MDS_READ_FIELD: opening file: xx_theta.0000000000.002.001.data
(PID.TID 0000.0001)  MDS_READ_FIELD: opening file: xx_theta.0000000000.003.001.data
(PID.TID 0000.0001)  MDS_READ_FIELD: opening file: xx_theta.0000000000.004.001.data
(PID.TID 0000.0001)  MDS_READ_FIELD: opening file: xx_theta.0000000000.005.001.data
(PID.TID 0000.0001)  MDS_READ_FIELD: opening file: xx_theta.0000000000.006.001.data
(PID.TID 0000.0001)  MDS_READ_FIELD: opening global file: bathy_Hmin50.bin
(PID.TID 0000.0001) // =======================================================
(PID.TID 0000.0001) // Field Model R_low (ini_masks_etc) at iteration          1
(PID.TID 0000.0001) // CMIN =         -5.200000000000000E+03
(PID.TID 0000.0001) // CMAX =         -5.000000000000000E+01
(PID.TID 0000.0001) // CINT =          1.907407407407407E+02
(PID.TID 0000.0001) // SYMBOLS (CMIN->CMAX): -abcdefghijklmnopqrstuvwxyz+
(PID.TID 0000.0001) //                  0.0: .
(PID.TID 0000.0001) // RANGE I (Lo:Hi:Step):(    -3:   196:     1)
(PID.TID 0000.0001) // RANGE J (Lo:Hi:Step):(    36:    -3:    -1)
(PID.TID 0000.0001) // RANGE K (Lo:Hi:Step):(   1:   1:   1)
(PID.TID 0000.0001) // =======================================================
(PID.TID 0000.0001) K =   1
(PID.TID 0000.0001) //                I=6       I=16      I=26      I=36      I=38      I=48      I=58      I=68      I=70      I=80      I=90      I=100     I=102     I=112     I=122     I=132     I=134     I=144     I=154     I=164     I=166     I=176     I=186     I=196
(PID.TID 0000.0001) // |--J--|321012345|789012345|789012345|789012345|901234567|901234567|901234567|901234567|123456789|123456789|123456789|123456789|345678901|345678901|345678901|345678901|567890123|567890123|567890123|567890123|789012345|789012345|789012345|789012345|
(PID.TID 0000.0001) //     36 cbbc-ddcbcdehkhhmn..++..................................................okn.skko--a-fc----bba-cp.............tfeecccbbdeecccbbdeddedcdcccdddcddffggghiggfffdeeffijlihjlica---a--cgffel.+edfgeedflcbahgfllcbahgfllfhdffhkfffca-aady...llnabdoa--a
(PID.TID 0000.0001) //     35 dcac--cbbeefjkfefw+..........zpu........................................kqnzrqqk--b-da----bbbbfu..............fdddccaadcddccaadcdddcbbbbcdddcccdffffghgffffddefflligfiljfba---aafddehy...pwvlhfffcbagfccfcbagfcceeffffjlkjgaa---bfvheeln-aesaaab
(PID.TID 0000.0001) //     34 d--ba-abcehjnldcclz+........spps.......................................vkqn+xnnncabbcbba--aabfu+..............hcbaaaaaccbaaaaaccdccbaaabbddddccdffffghfeeeeedeffjiffefilhfcaaaacgceei.......zomggfcaecbbgfcaecbbccddefilihecbaacbaajfega-aesfeed
(PID.TID 0000.0001) //     33 --abbbccceiomkfdbbc+.......+s..........................................xsrxzz+z.fdcddb-----adu+...............hcbaa--accbaa--accddba--bbbddddccdfffhhgfeeddcceddhfeddfgikhfffdfgccffw........zohhgebbaaahgebbaaaaaccdfhlhfefdcccaabjefbaaafoosso
(PID.TID 0000.0001) //     32 --bddefhhkqqlgfaakqz..v.+..+.........................................++..u+....zigfdba----adu+................kdcaaa-acccaaa-accdcb---bbbcdddddefffggfeeedcccccbccbbdcdfgghhiihcbeiw.........+ynjgebaaaajgebaaaa-aacccfikkhecccbbbaaabaadfklnqpp
(PID.TID 0000.0001) //     31 abbcffijnpnqneaaat..umrr+s.z.........................................+++++.ztsvdlifeb--dfdfu+................+lkdca--abcdca--abcccb---bbbbddddeffflhfeeeecbbbbaaba-abbacbcdceffbbfw+..........++ujfbaaa-ujfbaaa----aacffiljgfffcca--adfikkiihhhf
(PID.TID 0000.0001) //     30 --adgillkkkifcadcx.ymmqzqikvnnps.....................................+++++wmegt-jlifcacdlqx+++...............mligea---abgea---abbbb---abaaddddeedkmeddefdbbbaaaabc---b--aaaaabaabm..............+viba---+viba-------acdefinmlgiieb-chnnnmlmlgffc
(PID.TID 0000.0001) //     29 --cfiljigfjd--efdozy...+ximpnnuz......................................+++yqddhp-iljhcbbchz+......++.........+mmhffc----affc----aaba------acdddcbcineddgdbaaa----cdd--a------aa-bfz...............+qe---a.+qe---aa---aedeegknmlgiigcdfhpokkimlfdb
(PID.TID 0000.0001) //     28 -abgkhfcccea-bdei........t............................................++zwgfcfk-gknhccbbhwwy.....+++........+njfeed-----eed-----aa-------abddcabcnfddegcaaa-----hlf------------dk+................+ja---..+ja------bffdddehfd--bedaacfhpnligiihd
(PID.TID 0000.0001) //     27 -acghfbaaaa-achmy......................+.......+++....................++vnbbbclefkpkeeecflmqxy....++........+lhfeecc----eecc------------aaadcbabcfhddccba-------zqd-----------irw.................++e---..++e-----mhmijddda--------ahhfiokhedegg
(PID.TID 0000.0001) //     26 -adhfca-----bfiv.......................+.......++sy...................+tq-fdbblcjknqiheddefhiksz++++........zkhfdccb----dccb------------aabdcaaaacfddbca-------a+xfa-abb-----vvv...................+wa--...+wa---mlmkijhc----------cjjffiheb-aad
(PID.TID 0000.0001) //     25 -achfa------ch+..................w.......w.......njo+................+x-----bcgidiqqojfefiiiijmy.++.........zkhfdbaa----dbaa-------daa---acccaaaacccca--------ac.+udaabbb----tei...................++qde...++qdeqnghiljcaaaaidaa----beedeeca--bb
(PID.TID 0000.0001) //     24 aaeifa--acbcei...................w.......w.......likn+.....++.....++znpa----bbdi-fnlmnjhinlksssw............qhfeca------ca--------addc--aeffaaaaaaccb-a----a--bd.++udbbaba---ven....................++xy....++xywnfgllcbbabegkecba----ddddcaacdc
(PID.TID 0000.0001) //     23 abfida-aabchjk...................zz......zz.....nhhijz....tqq.....+ujgzgd---abci-cegklkkknols..xuu..........zgfdba------ba--------bcd---affaaadffabbb-----aa-bcc.+.+ufb-----l.gx...........s.........++z.....++zzkfilfccccoz..ulkcd---bccnfddddd
(PID.TID 0000.0001) //     22 -afhfaa---bfgi....................zz..rn..zz..rnjffggm...nlmn+....+sffzya--aabcieaaffdfhimrmp...yuu.++.......zudba------ba--------adc---dda-adffe-aa--------aaac....+ufc-baaqvhh..........dcfeeh......++......++zggqvifefhz......zobbaccfwuffeee
(PID.TID 0000.0001) //     21 babcgca----abe.....................ysstl...ysstlgeeeeoz..ijklt+....lfjzzf---adfcfdaadcehllotq....yy+++zzs.....+zcba-----cba-------cdd--aaa----df------------aaac.....+upjdcy.vohq.......+idcdfeeefwz....efwz....+hhn.vklox.........gdccfjwrigffh
(PID.TID 0000.0001) //     20 fbbbcgfcaa-aae+.......................lc......lcgfdddhq.+hiilnz++.+oquxyz--adgkfdcaabcfmtooyxz......+yuiiy....++gb------gb--------ddcca-a-----acbaa------bbaaaab........ywxy.lulo.lv...kcdgddffefffilyx+fffilyx+fffk.+xyyy.........mgeimvskjklll
(PID.TID 0000.0001) //     19 zmfeccdghfeegcbt......................aa......aafifccgnrzgghjry.+++sr+lq.--edfkkoxtkblwnnsp.vv......skhggt...+++t-------t---------bdaf---------edd-------adlaaaa+..........vnhzy.tllqiedccdhggfggffiiggfgffiiggfcbdgy..yz..........xigqophijkkii
(PID.TID 0000.0001) //     18 ..wifedfkhfegbbcivlqfoz..............jaa.....jaacfihggokeeffgt..++++..hhlfdeddkez..qcz+.zwxtsttz..ysrkhot++++++zig------ig--------b--f---------egqqqaa----frb---+........+kkrhw.vqmlnieddcdehgggffgigedbffgigedbaaceiy.............zilrddefikkhh
(PID.TID 0000.0001) //     17 ..+wfeefikhgcbbccaaacgn.............icaa....icaaccfihfoedddeedy..++...nnqwgfeekeyy.z++..+zsjjllllljllpjos+++.+zhhi-----ehi-----e-----ea--------foqqoqqo--hlwgea-.........+nk+..xiioonhfefddegihhghigfdbaghigfdbaaabdgx..............nheddefiklhg
(PID.TID 0000.0001) //     16 ....wiheddeccdfhfbabdfl............jdbad...jdbaddddgifkccccdccd+.++..++ynvz.tkkq.mu....++zyslllllkhggkmpy++...ihhi-----ehi-----ea---feb-----a-acnoohfghknvmwnuca..........qhu..hhhkojgffgeefghihhiieedbahiieedbaaabcdy..............ygddeghiljgf
(PID.TID 0000.0001) //     15 ......ylea--acfihebcbbes..........sfcbbn..sfcbbngfffigcaaabdbcac+.+++++zgmpx...y.mm....++..zslwz.yhhhhnz+++...rhgc----abgc----ab----ige----acaaalllkddfiy..yswxb..........thk.xgghiligfghfefhhhhiiheedcdiiheedcdbbabdmz.............zfdeghikkifd
(PID.TID 0000.0001) //     14 ........c---acgkhdcc--di..........ofddch..ofddchohffikaaaaabaaa-aw+.+ysnggox++...qrv..........yzzzzrjil+++....qhgd-----agd-----a-----i---cccdeabkklldinqssy..xxv...........+y.uhghikihgfghefgihhhgeeeeedhgeeeeeddbaadhw.............nedeghjjhfed
(PID.TID 0000.0001) //     13 .......+b----cfkhec---afz.........nhfdff..nhfdffholghkaaaaaba-a---flkkuswyy++++y+zr...........zzzzz++ry++......yd-------d--------------aeecdeidfkkqnqlmqquukqqmf..............iihiijjhfefgefhjihiffgggffiffgggffecaabelx...........zjecehijhfecc
(PID.TID 0000.0001) //     12 .......ec----chjhec---ag..........skiqdd..skiqddeiiiifaaabae--a---dd--iu+++.+++sxq++..........+z+++++.+++....++.s-------s------------a-ceccdejhlllkqlkklssiccdee.............wjkkkjjjigeefffgjiiighiiihhighiiihhhdaabdffghtxx......mfccehjiffdb-
(PID.TID 0000.0001) //     11 ......pdca--achlheba--ai..........nkn.fd..nkn.fdemijidaaaabi-------a--q+....++.ziis...........+++++..........+yyza----b-za----b-----a--ccccddkhieekkossssfbbbbcd............njjijhhihijhgggggjjjjijkkkkjjijkkkkjjhcaacddeegpy.....xfdccdhjgfdda-
(PID.TID 0000.0001) //     10 ......wfdb--achlhea---an.........uos..dc.uos..dcemikkfdcaabi-------equ+.........mk...........................zyvuq----ccuq----cc----a---dcfhkopqjeissrnpfbbcccde..........zslihhigghgijjihhhhkllkkkkkkjkkkkkkkjkkkedccdeeeeipz..zwhccbcdhgfddcam
(PID.TID 0000.0001) //      9 ......vgec---bfikca--cjl+.......+nnv.+cc+nnv.+ccffhkkiddaadha-----as++..........pvz++........................zxuuk------uk------a---a----djmqrrnlllsoiddcccccdjf.........+zjijhfgfggffhjkkkiillljihhghgijihhghgihighdeeffgghimnnjgecbbcdgfeccbas
(PID.TID 0000.0001) //      8 .....zleca---afjfca--hdfz.......vkky.jcevkky.jceddefijffdddhb--a-afv............nn..ss.........................+yku-----yku--------------ejnpqqnninnritqdccchkmf+.......wihgghgeffffeefhijkjkljiigeeffefigeeffefffhjhhikkklljklmhffeeeggfdcbaay.
(PID.TID 0000.0001) //      7 ...+zohec--abcfkhecbchbdx.......qiht.faaqiht.faaaabdgijgfededcdcb-f+............nn...pz.........................+zu-----+zu--------------edefqgqddsz+......+yuddmm+....tiggfggfeeeefeeefiiiijkiihhedddddhheddddddddjjllliijhfkmmkkjjhijgdcba--q.
(PID.TID 0000.0001) //      6 ..+yomfddcaabefkifdchaadt......uqdeisc--qdeisc----dfefgifffkklldc--v............up...pp.........................v.x-----v.x---------a----fbbpqgzenx+........zdbcmllkhhfffffffgfeeeeeeeefhhhhijihhffddcbbhffddcbbbbdhhiihedddb-cfhhhjjjieca----+.
(PID.TID 0000.0001) //      5 ..+nhgffkghccfhkhffgdaackz....uoibcimlaaibcimlaaacfbddfjjhijeehf-a-c............zs...su.........................qk.yi---qk.yi-------gha-fjddqs+xkrz.........q-bchikdccdeeeeeeedddedddddgghhhhjhhgffcbbaagffcbbaaaaddfegecca----dfeefhfgdb-----+.
(PID.TID 0000.0001) //      4 .+ujhgfllfhdffhkfffca-aady...llnabdopfcbabdopfcbdgdbcdehlihgfddc--ms............................................okn.zd--okn.zd---eciiiicfkeeqy.ysz..........n-aafgdcbbdeddedcdcccdddcddffggghiggfffdbaa-fffdbaa---acdcccba--abvfedeffdcca----b+.
(PID.TID 0000.0001) //      3 +vjggfcceeffffjlkjgaa---bfvheeln-aesphfd-aesphfdhgabddeflihhgfecbaaayq+++++.....................................kqnz.vtpkqnz.vtpkllgdccfkkkkk..++..........+g---fecaaadcdddcbbbbcdddcccdffffghgffffdcaa-fffdcaa----abcaaaa-acxxmecdjmdbba----r+.
(PID.TID 0000.0001) //      2 qifeecbbccddefilihecbaacbaajfega-aesqhff-aesqhffiea-cdeflkkljifeddcba---bry+...................................vkqn+.sghkqn+.sghfcbcbbbdgfdek.++++.........+l---caaaaaccdccbaaabbddddccdffffghfeeeeecba-eeeecba------baaaa-euwxqdbcdkud-----sy+.
(PID.TID 0000.0001) //      1 ebbbbaaaaaccdfhlhfefdcccaabjefbaaafonhglaafonhglid--adfgkkkklkhffddca-----s++++................................xsrxz.tedsrxz.tedcbbbbaaadddet.++++.........+l------a-accddba--bbbddddccdfffhhgfeeddccba-eddccba-------aaaabgns.qcbcchyzqngll++..
(PID.TID 0000.0001) //      0 -aaaaaaa-aacccfikkhecccbbbaaabaadfkllilmdfkllilmgebaadfijjiiikjhffdcba-----lllgn.............................++..u+..zmd.u+..zmdfbd---a-aeef.xx+..........+++s-------accdcb---bbbcdddddefffggfeeedcccbbaedcccbba----aa--alrwwy.kcbccc+...++++...
(PID.TID 0000.0001) //     -1 --aaaaa----aacffiljgfffcca--adfikkiikimikkiikimiiheccfurkiffhijjigfecb-----l----.............................+++++.z+.wq++.z+.wqgbf-------dgzpoy+........+ys+yrb--aa-abcccb---bbbbddddeffflhfeeeecbbcbbaecbbcbbaa----a--bdflm.yuibbcc.......+...
(PID.TID 0000.0001) //     -2 --aaa-------acdefinmlgiieb-chnnnmlmlfklkmlmlfklklkhednwwsheeghhijjgfdca----g---a.............................+++++wmu++y++wmu++ywn--------fwvmgy+........+r-.+++-abc--abbbb---abaaddddeedkmeddefdbbbdcbadbbbdcbaa-------ba-hv.susfbcc.......+...
(PID.TID 0000.0001) //     -3 a--a---aa---aedeegknmlgiigcdfhpokkimdkmkkkimdkmknoiedcfjvpddegghhhhgfdcbaa-n---a..............................+++yqd.++++yqd.+++zvq--dafz.lqnggw+........+b-....abcc---aaba------acdddcbcineddgdbaaaeedbbaaaeedbaa----------nysqssfcd...........
(PID.TID 0000.0001) // =======================================================
(PID.TID 0000.0001) // END OF FIELD                                          =
(PID.TID 0000.0001) // =======================================================
(PID.TID 0000.0001) 
(PID.TID 0000.0001) // =======================================================
(PID.TID 0000.0001) // Field Model Ro_surf (ini_masks_etc) at iteration          1
(PID.TID 0000.0001) // CMIN =         -7.105427357601002E-15
(PID.TID 0000.0001) // CMAX =         -7.105427357601002E-15
(PID.TID 0000.0001) // CINT =          0.000000000000000E+00
(PID.TID 0000.0001) // SYMBOLS (CMIN->CMAX): -abcdefghijklmnopqrstuvwxyz+
(PID.TID 0000.0001) //                  0.0: .
(PID.TID 0000.0001) // RANGE I (Lo:Hi:Step):(    -3:   196:     1)
(PID.TID 0000.0001) // RANGE J (Lo:Hi:Step):(    36:    -3:    -1)
(PID.TID 0000.0001) // RANGE K (Lo:Hi:Step):(   1:   1:   1)
(PID.TID 0000.0001) // =======================================================
(PID.TID 0000.0001) // =======================================================
(PID.TID 0000.0001) // END OF FIELD                                          =
(PID.TID 0000.0001) // =======================================================
(PID.TID 0000.0001) 
(PID.TID 0000.0001) // =======================================================
(PID.TID 0000.0001) // Field hFacC at iteration          1
(PID.TID 0000.0001) // CMIN =          1.000000000000000E+00
(PID.TID 0000.0001) // CMAX =          1.000000000000000E+00
(PID.TID 0000.0001) // CINT =          0.000000000000000E+00
(PID.TID 0000.0001) // SYMBOLS (CMIN->CMAX): -abcdefghijklmnopqrstuvwxyz+
(PID.TID 0000.0001) //                  0.0: .
(PID.TID 0000.0001) // RANGE I (Lo:Hi:Step):(    -3:   196:     1)
(PID.TID 0000.0001) // RANGE J (Lo:Hi:Step):(    36:    -3:    -1)
(PID.TID 0000.0001) // RANGE K (Lo:Hi:Step):(   1:   1:   1)
(PID.TID 0000.0001) // =======================================================
(PID.TID 0000.0001) // =======================================================
(PID.TID 0000.0001) // END OF FIELD                                          =
(PID.TID 0000.0001) // =======================================================
(PID.TID 0000.0001) 
(PID.TID 0000.0001) // =======================================================
(PID.TID 0000.0001) // Field hFacW at iteration          1
(PID.TID 0000.0001) // CMIN =          1.000000000000000E+00
(PID.TID 0000.0001) // CMAX =          1.000000000000000E+00
(PID.TID 0000.0001) // CINT =          0.000000000000000E+00
(PID.TID 0000.0001) // SYMBOLS (CMIN->CMAX): -abcdefghijklmnopqrstuvwxyz+
(PID.TID 0000.0001) //                  0.0: .
(PID.TID 0000.0001) // RANGE I (Lo:Hi:Step):(    -3:   196:     1)
(PID.TID 0000.0001) // RANGE J (Lo:Hi:Step):(    36:    -3:    -1)
(PID.TID 0000.0001) // RANGE K (Lo:Hi:Step):(   1:   1:   1)
(PID.TID 0000.0001) // =======================================================
(PID.TID 0000.0001) // =======================================================
(PID.TID 0000.0001) // END OF FIELD                                          =
(PID.TID 0000.0001) // =======================================================
(PID.TID 0000.0001) 
(PID.TID 0000.0001) // =======================================================
(PID.TID 0000.0001) // Field hFacS at iteration          1
(PID.TID 0000.0001) // CMIN =          1.000000000000000E+00
(PID.TID 0000.0001) // CMAX =          1.000000000000000E+00
(PID.TID 0000.0001) // CINT =          0.000000000000000E+00
(PID.TID 0000.0001) // SYMBOLS (CMIN->CMAX): -abcdefghijklmnopqrstuvwxyz+
(PID.TID 0000.0001) //                  0.0: .
(PID.TID 0000.0001) // RANGE I (Lo:Hi:Step):(    -3:   196:     1)
(PID.TID 0000.0001) // RANGE J (Lo:Hi:Step):(    36:    -3:    -1)
(PID.TID 0000.0001) // RANGE K (Lo:Hi:Step):(   1:   1:   1)
(PID.TID 0000.0001) // =======================================================
(PID.TID 0000.0001) // =======================================================
(PID.TID 0000.0001) // END OF FIELD                                          =
(PID.TID 0000.0001) // =======================================================
(PID.TID 0000.0001) 
(PID.TID 0000.0001) INI_CG2D: CG2D normalisation factor =  1.9156564154949553E-04
(PID.TID 0000.0001) INI_CG2D: cg2dTolerance = 5.809016360175293E-07 (Area=3.6388673751E+14)
(PID.TID 0000.0001) 
(PID.TID 0000.0001)  MDS_READ_META: opening file: pickup.0000072000.meta
(PID.TID 0000.0001)  nRecords = 123 ; filePrec =  64 ; fileIter =     72000
(PID.TID 0000.0001)     nDims =   2 , dims:
(PID.TID 0000.0001)    1: 192   1 192
(PID.TID 0000.0001)    2:  32   1  32
(PID.TID 0000.0001)     nFlds =  11 , nFl3D =   8 , fields:
(PID.TID 0000.0001)  >Uvel    < >GuNm1   < >Vvel    < >GvNm1   < >Theta   < >GtNm1   < >Salt    < >GsNm1   < >EtaN    < >dEtaHdt < >EtaH    <
(PID.TID 0000.0001)   nTimRec =   0 , timeList:
(PID.TID 0000.0001) READ_MFLDS_3D_RL: read field: "Uvel    ", #   1 in fldList, rec=   1
(PID.TID 0000.0001)  MDS_READ_FIELD: opening global file: pickup.0000072000
(PID.TID 0000.0001) READ_MFLDS_3D_RL: read field: "Vvel    ", #   3 in fldList, rec=   3
(PID.TID 0000.0001)  MDS_READ_FIELD: opening global file: pickup.0000072000
(PID.TID 0000.0001) READ_MFLDS_3D_RL: read field: "Theta   ", #   5 in fldList, rec=   5
(PID.TID 0000.0001)  MDS_READ_FIELD: opening global file: pickup.0000072000
(PID.TID 0000.0001) READ_MFLDS_3D_RL: read field: "Salt    ", #   7 in fldList, rec=   7
(PID.TID 0000.0001)  MDS_READ_FIELD: opening global file: pickup.0000072000
(PID.TID 0000.0001) READ_MFLDS_3D_RL: read field: "GuNm1   ", #   2 in fldList, rec=   2
(PID.TID 0000.0001)  MDS_READ_FIELD: opening global file: pickup.0000072000
(PID.TID 0000.0001) READ_MFLDS_3D_RL: field: "GuNm2   " missing in file: pickup.0000072000
(PID.TID 0000.0001) READ_MFLDS_3D_RL: read field: "GvNm1   ", #   4 in fldList, rec=   4
(PID.TID 0000.0001)  MDS_READ_FIELD: opening global file: pickup.0000072000
(PID.TID 0000.0001) READ_MFLDS_3D_RL: field: "GvNm2   " missing in file: pickup.0000072000
(PID.TID 0000.0001) READ_MFLDS_3D_RL: read field: "EtaN    ", #   9 in fldList, rec= 121
(PID.TID 0000.0001)  MDS_READ_FIELD: opening global file: pickup.0000072000
(PID.TID 0000.0001) READ_MFLDS_3D_RL: read field: "dEtaHdt ", #  10 in fldList, rec= 122
(PID.TID 0000.0001)  MDS_READ_FIELD: opening global file: pickup.0000072000
(PID.TID 0000.0001) READ_MFLDS_3D_RL: read field: "EtaH    ", #  11 in fldList, rec= 123
(PID.TID 0000.0001)  MDS_READ_FIELD: opening global file: pickup.0000072000
(PID.TID 0000.0001)  MDS_READ_FIELD: opening global file: trenberth_taux.bin
(PID.TID 0000.0001)  MDS_READ_FIELD: opening global file: trenberth_tauy.bin
(PID.TID 0000.0001)  MDS_READ_FIELD: opening global file: shiQnet_cs32.bin
(PID.TID 0000.0001)  MDS_READ_FIELD: opening global file: shiEmPR_cs32.bin
(PID.TID 0000.0001)  MDS_READ_FIELD: opening global file: lev_surfT_cs_12m.bin
(PID.TID 0000.0001)  MDS_READ_FIELD: opening global file: lev_surfS_cs_12m.bin
(PID.TID 0000.0001)  MDS_READ_FIELD: opening file: xx_theta.0000000000.001.001.data
(PID.TID 0000.0001)  MDS_READ_FIELD: opening file: xx_theta.0000000000.002.001.data
(PID.TID 0000.0001)  MDS_READ_FIELD: opening file: xx_theta.0000000000.003.001.data
(PID.TID 0000.0001)  MDS_READ_FIELD: opening file: xx_theta.0000000000.004.001.data
(PID.TID 0000.0001)  MDS_READ_FIELD: opening file: xx_theta.0000000000.005.001.data
(PID.TID 0000.0001)  MDS_READ_FIELD: opening file: xx_theta.0000000000.006.001.data
(PID.TID 0000.0001)  MDS_READ_FIELD: opening file: xx_salt.0000000000.001.001.data
(PID.TID 0000.0001)  MDS_READ_FIELD: opening file: xx_salt.0000000000.002.001.data
(PID.TID 0000.0001)  MDS_READ_FIELD: opening file: xx_salt.0000000000.003.001.data
(PID.TID 0000.0001)  MDS_READ_FIELD: opening file: xx_salt.0000000000.004.001.data
(PID.TID 0000.0001)  MDS_READ_FIELD: opening file: xx_salt.0000000000.005.001.data
(PID.TID 0000.0001)  MDS_READ_FIELD: opening file: xx_salt.0000000000.006.001.data
(PID.TID 0000.0001)  MDS_READ_FIELD: opening file: xx_diffkr.0000000000.001.001.data
(PID.TID 0000.0001)  MDS_READ_FIELD: opening file: xx_diffkr.0000000000.002.001.data
(PID.TID 0000.0001)  MDS_READ_FIELD: opening file: xx_diffkr.0000000000.003.001.data
(PID.TID 0000.0001)  MDS_READ_FIELD: opening file: xx_diffkr.0000000000.004.001.data
(PID.TID 0000.0001)  MDS_READ_FIELD: opening file: xx_diffkr.0000000000.005.001.data
(PID.TID 0000.0001)  MDS_READ_FIELD: opening file: xx_diffkr.0000000000.006.001.data
(PID.TID 0000.0001) // =======================================================
(PID.TID 0000.0001) // Model current state
(PID.TID 0000.0001) // =======================================================
(PID.TID 0000.0001) 
S/R EXTERNAL_FIELDS_LOAD: Reading new data:   12    1     72000  6.220800000000E+09
(PID.TID 0000.0001)  MDS_READ_FIELD: opening global file: trenberth_taux.bin
(PID.TID 0000.0001)  MDS_READ_FIELD: opening global file: trenberth_taux.bin
(PID.TID 0000.0001)  MDS_READ_FIELD: opening global file: trenberth_tauy.bin
(PID.TID 0000.0001)  MDS_READ_FIELD: opening global file: trenberth_tauy.bin
(PID.TID 0000.0001)  MDS_READ_FIELD: opening global file: shiQnet_cs32.bin
(PID.TID 0000.0001)  MDS_READ_FIELD: opening global file: shiQnet_cs32.bin
(PID.TID 0000.0001)  MDS_READ_FIELD: opening global file: shiEmPR_cs32.bin
(PID.TID 0000.0001)  MDS_READ_FIELD: opening global file: shiEmPR_cs32.bin
(PID.TID 0000.0001)  MDS_READ_FIELD: opening global file: lev_surfT_cs_12m.bin
(PID.TID 0000.0001)  MDS_READ_FIELD: opening global file: lev_surfT_cs_12m.bin
(PID.TID 0000.0001)  MDS_READ_FIELD: opening global file: lev_surfS_cs_12m.bin
(PID.TID 0000.0001)  MDS_READ_FIELD: opening global file: lev_surfS_cs_12m.bin
(PID.TID 0000.0001)  MDS_READ_FIELD: opening file: xx_tauu.0000000000.001.001.data
(PID.TID 0000.0001)  MDS_READ_FIELD: opening file: xx_tauu.0000000000.002.001.data
(PID.TID 0000.0001)  MDS_READ_FIELD: opening file: xx_tauu.0000000000.003.001.data
(PID.TID 0000.0001)  MDS_READ_FIELD: opening file: xx_tauu.0000000000.004.001.data
(PID.TID 0000.0001)  MDS_READ_FIELD: opening file: xx_tauu.0000000000.005.001.data
(PID.TID 0000.0001)  MDS_READ_FIELD: opening file: xx_tauu.0000000000.006.001.data
(PID.TID 0000.0001)  MDS_READ_FIELD: opening file: xx_tauv.0000000000.001.001.data
(PID.TID 0000.0001)  MDS_READ_FIELD: opening file: xx_tauv.0000000000.002.001.data
(PID.TID 0000.0001)  MDS_READ_FIELD: opening file: xx_tauv.0000000000.003.001.data
(PID.TID 0000.0001)  MDS_READ_FIELD: opening file: xx_tauv.0000000000.004.001.data
(PID.TID 0000.0001)  MDS_READ_FIELD: opening file: xx_tauv.0000000000.005.001.data
(PID.TID 0000.0001)  MDS_READ_FIELD: opening file: xx_tauv.0000000000.006.001.data
(PID.TID 0000.0001)  MDS_READ_FIELD: opening file: xx_sfl.0000000000.001.001.data
(PID.TID 0000.0001)  MDS_READ_FIELD: opening file: xx_sfl.0000000000.002.001.data
(PID.TID 0000.0001)  MDS_READ_FIELD: opening file: xx_sfl.0000000000.003.001.data
(PID.TID 0000.0001)  MDS_READ_FIELD: opening file: xx_sfl.0000000000.004.001.data
(PID.TID 0000.0001)  MDS_READ_FIELD: opening file: xx_sfl.0000000000.005.001.data
(PID.TID 0000.0001)  MDS_READ_FIELD: opening file: xx_sfl.0000000000.006.001.data
(PID.TID 0000.0001)  MDS_READ_FIELD: opening file: xx_hfl.0000000000.001.001.data
(PID.TID 0000.0001)  MDS_READ_FIELD: opening file: xx_hfl.0000000000.002.001.data
(PID.TID 0000.0001)  MDS_READ_FIELD: opening file: xx_hfl.0000000000.003.001.data
(PID.TID 0000.0001)  MDS_READ_FIELD: opening file: xx_hfl.0000000000.004.001.data
(PID.TID 0000.0001)  MDS_READ_FIELD: opening file: xx_hfl.0000000000.005.001.data
(PID.TID 0000.0001)  MDS_READ_FIELD: opening file: xx_hfl.0000000000.006.001.data
(PID.TID 0000.0001) SOLVE_FOR_PRESSURE: putPmEinXvector =    F
 cg2d: Sum(rhs),rhsMax =  -9.37916411203332E-12  4.28440421776334E+00
 cg2d: Sum(rhs),rhsMax =  -9.77706804405898E-12  4.27982545067891E+00
 cg2d: Sum(rhs),rhsMax =  -9.66338120633736E-12  4.27358143137583E+00
 cg2d: Sum(rhs),rhsMax =  -9.63495949690696E-12  4.26757584480103E+00
 cg2d: Sum(rhs),rhsMax =  -1.01749719760846E-11  4.26162662952737E+00
 cg2d: Sum(rhs),rhsMax =  -9.57811607804615E-12  4.25572413126262E+00
 cg2d: Sum(rhs),rhsMax =  -9.46442924032453E-12  4.24991959839472E+00
 cg2d: Sum(rhs),rhsMax =  -9.69180291576777E-12  4.24428632467157E+00
 cg2d: Sum(rhs),rhsMax =  -9.37916411203332E-12  4.23890091888641E+00
 cg2d: Sum(rhs),rhsMax =  -9.77706804405898E-12  4.23383241982902E+00
 cg2d: Sum(rhs),rhsMax =  -9.49285094975494E-12  4.22913460600939E+00
 cg2d: Sum(rhs),rhsMax =  -9.46442924032453E-12  4.22484531782555E+00
 cg2d: Sum(rhs),rhsMax =  -9.72022462519817E-12  4.22098692400907E+00
 cg2d: Sum(rhs),rhsMax =  -8.95283847057726E-12  4.21756851868445E+00
 cg2d: Sum(rhs),rhsMax =  -1.00612851383630E-11  4.21458765091555E+00
S/R EXTERNAL_FIELDS_LOAD: Reading new data:    1    2     72015  6.222096000000E+09
(PID.TID 0000.0001)  MDS_READ_FIELD: opening global file: trenberth_taux.bin
(PID.TID 0000.0001)  MDS_READ_FIELD: opening global file: trenberth_taux.bin
(PID.TID 0000.0001)  MDS_READ_FIELD: opening global file: trenberth_tauy.bin
(PID.TID 0000.0001)  MDS_READ_FIELD: opening global file: trenberth_tauy.bin
(PID.TID 0000.0001)  MDS_READ_FIELD: opening global file: shiQnet_cs32.bin
(PID.TID 0000.0001)  MDS_READ_FIELD: opening global file: shiQnet_cs32.bin
(PID.TID 0000.0001)  MDS_READ_FIELD: opening global file: shiEmPR_cs32.bin
(PID.TID 0000.0001)  MDS_READ_FIELD: opening global file: shiEmPR_cs32.bin
(PID.TID 0000.0001)  MDS_READ_FIELD: opening global file: lev_surfT_cs_12m.bin
(PID.TID 0000.0001)  MDS_READ_FIELD: opening global file: lev_surfT_cs_12m.bin
(PID.TID 0000.0001)  MDS_READ_FIELD: opening global file: lev_surfS_cs_12m.bin
(PID.TID 0000.0001)  MDS_READ_FIELD: opening global file: lev_surfS_cs_12m.bin
 cg2d: Sum(rhs),rhsMax =  -9.46442924032453E-12  4.21203169914046E+00
 cg2d: Sum(rhs),rhsMax =  -9.49285094975494E-12  4.20976598278642E+00
 cg2d: Sum(rhs),rhsMax =  -9.40758582146373E-12  4.20805789683415E+00
 cg2d: Sum(rhs),rhsMax =  -9.72022462519817E-12  4.20662080299725E+00
 cg2d: Sum(rhs),rhsMax =  -9.46442924032453E-12  4.20551574498139E+00
(PID.TID 0000.0001) Did not write pickup because writePickupAtEnd = FALSE
(PID.TID 0000.0001)  MDS_READ_FIELD: opening global file: lev_T_cs_15k.bin
 --> objf_test(bi,bj)   =  0.213648480701751E+05
 --> objf_tracer(bi,bj) =  0.000000000000000E+00
 --> objf_atl(bi,bj)    =  0.000000000000000E+00
 --> objf_test(bi,bj)   =  0.114793796455080E+05
 --> objf_tracer(bi,bj) =  0.000000000000000E+00
 --> objf_atl(bi,bj)    =  0.000000000000000E+00
 --> objf_test(bi,bj)   =  0.181911445068714E+05
 --> objf_tracer(bi,bj) =  0.000000000000000E+00
 --> objf_atl(bi,bj)    =  0.000000000000000E+00
 --> objf_test(bi,bj)   =  0.231468902333029E+05
 --> objf_tracer(bi,bj) =  0.000000000000000E+00
 --> objf_atl(bi,bj)    =  0.000000000000000E+00
 --> objf_test(bi,bj)   =  0.145252599883446E+05
 --> objf_tracer(bi,bj) =  0.000000000000000E+00
 --> objf_atl(bi,bj)    =  0.000000000000000E+00
 --> objf_test(bi,bj)   =  0.125100735502010E+05
 --> objf_tracer(bi,bj) =  0.000000000000000E+00
 --> objf_atl(bi,bj)    =  0.000000000000000E+00
  local fc =  0.101217595994403E+06
 global fc =  0.101217595994403E+06
(PID.TID 0000.0001)  MDS_READ_FIELD: opening file: xx_theta.0000000000.001.001.data
(PID.TID 0000.0001)  MDS_READ_FIELD: opening file: xx_theta.0000000000.002.001.data
(PID.TID 0000.0001)  MDS_READ_FIELD: opening file: xx_theta.0000000000.003.001.data
(PID.TID 0000.0001)  MDS_READ_FIELD: opening file: xx_theta.0000000000.004.001.data
(PID.TID 0000.0001)  MDS_READ_FIELD: opening file: xx_theta.0000000000.005.001.data
(PID.TID 0000.0001)  MDS_READ_FIELD: opening file: xx_theta.0000000000.006.001.data
grad-res -------------------------------
 grad-res     0    4    4    1    1    1    1    1   0.101217625557E+06 0.101217655163E+06 0.101217595994E+06
 grad-res     0    4    4    4  639    1    1    1   0.295844867678E+01 0.295842756677E+01 0.713549722087E-05
(PID.TID 0000.0001)   ADM  precision_derivative_cost =    1.01217625556549E+05
(PID.TID 0000.0001)   ADM  precision_derivative_grad =    2.95844867677534E+00
 ph-grd  ierr ---------------------------
 ph-grd  ierr =  0, icomp =  4, ichknum =  4
(PID.TID 0000.0001) 
(PID.TID 0000.0001) // =======================================================
(PID.TID 0000.0001) // Gradient check results  >>> START <<<
(PID.TID 0000.0001) // =======================================================
(PID.TID 0000.0001) 
(PID.TID 0000.0001)  EPS =   1.000000E-02
(PID.TID 0000.0001) 
(PID.TID 0000.0001) grdchk output h.p:  Id  Itile Jtile LAYER   X(Id)            X(Id)+/-EPS
(PID.TID 0000.0001) grdchk output h.c:  Id  FC                   FC1                  FC2
(PID.TID 0000.0001) grdchk output h.g:  Id     FC1-FC2/(2*EPS)      ADJ GRAD(FC)         1-FDGRD/ADGRD
(PID.TID 0000.0001) 
(PID.TID 0000.0001) grdchk output (p):   1     1     1     1    0.000000000E+00 -1.000000000E-02
(PID.TID 0000.0001) grdchk output (c):   1  1.0121762555655E+05  1.0121765844512E+05  1.0121759269308E+05
(PID.TID 0000.0001) grdchk output (g):   1     3.2876021257835E+00  3.2876934904460E+00  2.7789896713148E-05
(PID.TID 0000.0001) 
(PID.TID 0000.0001) grdchk output (p):   2     2     1     1    0.000000000E+00 -1.000000000E-02
(PID.TID 0000.0001) grdchk output (c):   2  1.0121762555655E+05  1.0121766275606E+05  1.0121758839110E+05
(PID.TID 0000.0001) grdchk output (g):   2     3.7182482505159E+00  3.7182250265694E+00 -6.2459765912681E-06
(PID.TID 0000.0001) 
(PID.TID 0000.0001) grdchk output (p):   3     3     1     1    0.000000000E+00 -1.000000000E-02
(PID.TID 0000.0001) grdchk output (c):   3  1.0121762555655E+05  1.0121765934272E+05  1.0121759180708E+05
(PID.TID 0000.0001) grdchk output (g):   3     3.3767819397326E+00  3.3767868722498E+00  1.4607132199362E-06
(PID.TID 0000.0001) 
(PID.TID 0000.0001) grdchk output (p):   4     4     1     1    0.000000000E+00 -1.000000000E-02
(PID.TID 0000.0001) grdchk output (c):   4  1.0121762555655E+05  1.0121765516295E+05  1.0121759599440E+05
(PID.TID 0000.0001) grdchk output (g):   4     2.9584275667730E+00  2.9584486767753E+00  7.1354972208670E-06
(PID.TID 0000.0001) 
(PID.TID 0000.0001) // =======================================================
(PID.TID 0000.0001) // Gradient check results  >>> END <<<
(PID.TID 0000.0001) // =======================================================
(PID.TID 0000.0001) 
(PID.TID 0000.0001)   Seconds in section "ALL                    [THE_MODEL_MAIN]":
(PID.TID 0000.0001)           User time:  807.032309
(PID.TID 0000.0001)         System time:  47.1688302
(PID.TID 0000.0001)     Wall clock time:  9542.46296
(PID.TID 0000.0001)          No. starts: 1
(PID.TID 0000.0001)           No. stops: 1
(PID.TID 0000.0001)   Seconds in section "INITIALISE_FIXED       [THE_MODEL_MAIN]":
(PID.TID 0000.0001)           User time:  0.98885
(PID.TID 0000.0001)         System time:  0.135979004
(PID.TID 0000.0001)     Wall clock time:  1.57715893
(PID.TID 0000.0001)          No. starts: 1
(PID.TID 0000.0001)           No. stops: 1
(PID.TID 0000.0001)   Seconds in section "ADTHE_MAIN_LOOP          [ADJOINT RUN]":
(PID.TID 0000.0001)           User time:  391.60547
(PID.TID 0000.0001)         System time:  43.4034033
(PID.TID 0000.0001)     Wall clock time:  8871.68594
(PID.TID 0000.0001)          No. starts: 1
(PID.TID 0000.0001)           No. stops: 1
(PID.TID 0000.0001)   Seconds in section "LOAD_FIELDS_DRIVER  [FORWARD_STEP]":
(PID.TID 0000.0001)           User time:  1.32059383
(PID.TID 0000.0001)         System time:  0.172980845
(PID.TID 0000.0001)     Wall clock time:  6.38055801
(PID.TID 0000.0001)          No. starts: 200
(PID.TID 0000.0001)           No. stops: 200
(PID.TID 0000.0001)   Seconds in section "EXTERNAL_FLDS_LOAD [LOAD_FLDS_DRIVER]":
(PID.TID 0000.0001)           User time:  1.44171047
(PID.TID 0000.0001)         System time:  0.20497185
(PID.TID 0000.0001)     Wall clock time:  9.80686426
(PID.TID 0000.0001)          No. starts: 220
(PID.TID 0000.0001)           No. stops: 220
(PID.TID 0000.0001)   Seconds in section "I/O (WRITE)        [ADJOINT LOOP]":
(PID.TID 0000.0001)           User time:  6.21097565
(PID.TID 0000.0001)         System time:  1.94769955
(PID.TID 0000.0001)     Wall clock time:  107.45944
(PID.TID 0000.0001)          No. starts: 300
(PID.TID 0000.0001)           No. stops: 300
(PID.TID 0000.0001)   Seconds in section "DO_ATMOSPHERIC_PHYS [FORWARD_STEP]":
(PID.TID 0000.0001)           User time:  0.00786590576
(PID.TID 0000.0001)         System time:  0.
(PID.TID 0000.0001)     Wall clock time:  0.0113229752
(PID.TID 0000.0001)          No. starts: 200
(PID.TID 0000.0001)           No. stops: 200
(PID.TID 0000.0001)   Seconds in section "DO_OCEANIC_PHYS     [FORWARD_STEP]":
(PID.TID 0000.0001)           User time:  100.824712
(PID.TID 0000.0001)         System time:  0.604915321
(PID.TID 0000.0001)     Wall clock time:  135.576737
(PID.TID 0000.0001)          No. starts: 200
(PID.TID 0000.0001)           No. stops: 200
(PID.TID 0000.0001)   Seconds in section "DYNAMICS            [FORWARD_STEP]":
(PID.TID 0000.0001)           User time:  120.757079
(PID.TID 0000.0001)         System time:  0.753885984
(PID.TID 0000.0001)     Wall clock time:  166.177056
(PID.TID 0000.0001)          No. starts: 200
(PID.TID 0000.0001)           No. stops: 200
(PID.TID 0000.0001)   Seconds in section "UPDATE_SURF_DR      [FORWARD_STEP]":
(PID.TID 0000.0001)           User time:  0.384876251
(PID.TID 0000.0001)         System time:  0.00399851799
(PID.TID 0000.0001)     Wall clock time:  0.840929508
(PID.TID 0000.0001)          No. starts: 200
(PID.TID 0000.0001)           No. stops: 200
(PID.TID 0000.0001)   Seconds in section "SOLVE_FOR_PRESSURE  [FORWARD_STEP]":
(PID.TID 0000.0001)           User time:  39.1760726
(PID.TID 0000.0001)         System time:  0.192958772
(PID.TID 0000.0001)     Wall clock time:  52.1281972
(PID.TID 0000.0001)          No. starts: 200
(PID.TID 0000.0001)           No. stops: 200
(PID.TID 0000.0001)   Seconds in section "MOM_CORRECTION_STEP [FORWARD_STEP]":
(PID.TID 0000.0001)           User time:  10.0364199
(PID.TID 0000.0001)         System time:  0.0489895344
(PID.TID 0000.0001)     Wall clock time:  12.1278577
(PID.TID 0000.0001)          No. starts: 200
(PID.TID 0000.0001)           No. stops: 200
(PID.TID 0000.0001)   Seconds in section "UPDATE_ETAH         [FORWARD_STEP]":
(PID.TID 0000.0001)           User time:  0.102836132
(PID.TID 0000.0001)         System time:  0.000999450684
(PID.TID 0000.0001)     Wall clock time:  0.0916934013
(PID.TID 0000.0001)          No. starts: 200
(PID.TID 0000.0001)           No. stops: 200
(PID.TID 0000.0001)   Seconds in section "CALC_SURF_DR      [FORWARD_STEP]":
(PID.TID 0000.0001)           User time:  0.821792603
(PID.TID 0000.0001)         System time:  0.00499773026
(PID.TID 0000.0001)     Wall clock time:  1.31120157
(PID.TID 0000.0001)          No. starts: 200
(PID.TID 0000.0001)           No. stops: 200
(PID.TID 0000.0001)   Seconds in section "BLOCKING_EXCHANGES  [FORWARD_STEP]":
(PID.TID 0000.0001)           User time:  12.5440664
(PID.TID 0000.0001)         System time:  0.0639979839
(PID.TID 0000.0001)     Wall clock time:  17.9412394
(PID.TID 0000.0001)          No. starts: 400
(PID.TID 0000.0001)           No. stops: 400
(PID.TID 0000.0001)   Seconds in section "THERMODYNAMICS      [FORWARD_STEP]":
(PID.TID 0000.0001)           User time:  182.604172
(PID.TID 0000.0001)         System time:  1.13783354
(PID.TID 0000.0001)     Wall clock time:  248.690852
(PID.TID 0000.0001)          No. starts: 200
(PID.TID 0000.0001)           No. stops: 200
(PID.TID 0000.0001)   Seconds in section "TRC_CORRECTION_STEP [FORWARD_STEP]":
(PID.TID 0000.0001)           User time:  1.86200285
(PID.TID 0000.0001)         System time:  0.00699615479
(PID.TID 0000.0001)     Wall clock time:  2.37869716
(PID.TID 0000.0001)          No. starts: 200
(PID.TID 0000.0001)           No. stops: 200
(PID.TID 0000.0001)   Seconds in section "MONITOR             [FORWARD_STEP]":
(PID.TID 0000.0001)           User time:  4.37737513
(PID.TID 0000.0001)         System time:  0.0279939771
(PID.TID 0000.0001)     Wall clock time:  6.78673172
(PID.TID 0000.0001)          No. starts: 200
(PID.TID 0000.0001)           No. stops: 200
(PID.TID 0000.0001)   Seconds in section "COST_TILE           [FORWARD_STEP]":
(PID.TID 0000.0001)           User time:  10.1624188
(PID.TID 0000.0001)         System time:  0.0509988666
(PID.TID 0000.0001)     Wall clock time:  13.9877334
(PID.TID 0000.0001)          No. starts: 200
(PID.TID 0000.0001)           No. stops: 200
(PID.TID 0000.0001)   Seconds in section "DO_THE_MODEL_IO     [FORWARD_STEP]":
(PID.TID 0000.0001)           User time:  3.08862019
(PID.TID 0000.0001)         System time:  0.606908023
(PID.TID 0000.0001)     Wall clock time:  30.3425555
(PID.TID 0000.0001)          No. starts: 200
(PID.TID 0000.0001)           No. stops: 200
(PID.TID 0000.0001)   Seconds in section "DO_WRITE_PICKUP     [FORWARD_STEP]":
(PID.TID 0000.0001)           User time:  0.259048462
(PID.TID 0000.0001)         System time:  0.0249971151
(PID.TID 0000.0001)     Wall clock time:  0.712613583
(PID.TID 0000.0001)          No. starts: 200
(PID.TID 0000.0001)           No. stops: 200
(PID.TID 0000.0001)   Seconds in section "GRDCHK_MAIN         [THE_MODEL_MAIN]":
(PID.TID 0000.0001)           User time:  414.437988
(PID.TID 0000.0001)         System time:  3.62944794
(PID.TID 0000.0001)     Wall clock time:  669.191544
(PID.TID 0000.0001)          No. starts: 1
(PID.TID 0000.0001)           No. stops: 1
(PID.TID 0000.0001)   Seconds in section "INITIALISE_VARIA    [THE_MAIN_LOOP]":
(PID.TID 0000.0001)           User time:  8.10281372
(PID.TID 0000.0001)         System time:  0.723892212
(PID.TID 0000.0001)     Wall clock time:  78.7573943
(PID.TID 0000.0001)          No. starts: 8
(PID.TID 0000.0001)           No. stops: 8
(PID.TID 0000.0001)   Seconds in section "MAIN LOOP           [THE_MAIN_LOOP]":
(PID.TID 0000.0001)           User time:  404.967438
(PID.TID 0000.0001)         System time:  2.74357986
(PID.TID 0000.0001)     Wall clock time:  583.733008
(PID.TID 0000.0001)          No. starts: 8
(PID.TID 0000.0001)           No. stops: 8
(PID.TID 0000.0001)   Seconds in section "FORWARD_STEP        [THE_MAIN_LOOP]":
(PID.TID 0000.0001)           User time:  384.789703
(PID.TID 0000.0001)         System time:  2.43264389
(PID.TID 0000.0001)     Wall clock time:  533.221146
(PID.TID 0000.0001)          No. starts: 160
(PID.TID 0000.0001)           No. stops: 160
(PID.TID 0000.0001)   Seconds in section "COST_FINAL         [ADJOINT SPIN-DOWN]":
(PID.TID 0000.0001)           User time:  0.369934082
(PID.TID 0000.0001)         System time:  0.0609855652
(PID.TID 0000.0001)     Wall clock time:  5.40057826
(PID.TID 0000.0001)          No. starts: 8
(PID.TID 0000.0001)           No. stops: 8
(PID.TID 0000.0001) // ======================================================
(PID.TID 0000.0001) // Tile <-> Tile communication statistics
(PID.TID 0000.0001) // ======================================================
(PID.TID 0000.0001) // o Tile number: 000001
(PID.TID 0000.0001) //         No. X exchanges =              0
(PID.TID 0000.0001) //            Max. X spins =              0
(PID.TID 0000.0001) //            Min. X spins =     1000000000
(PID.TID 0000.0001) //          Total. X spins =              0
(PID.TID 0000.0001) //            Avg. X spins =       0.00E+00
(PID.TID 0000.0001) //         No. Y exchanges =              0
(PID.TID 0000.0001) //            Max. Y spins =              0
(PID.TID 0000.0001) //            Min. Y spins =     1000000000
(PID.TID 0000.0001) //          Total. Y spins =              0
(PID.TID 0000.0001) //            Avg. Y spins =       0.00E+00
(PID.TID 0000.0001) // o Tile number: 000002
(PID.TID 0000.0001) //         No. X exchanges =              0
(PID.TID 0000.0001) //            Max. X spins =              0
(PID.TID 0000.0001) //            Min. X spins =     1000000000
(PID.TID 0000.0001) //          Total. X spins =              0
(PID.TID 0000.0001) //            Avg. X spins =       0.00E+00
(PID.TID 0000.0001) //         No. Y exchanges =              0
(PID.TID 0000.0001) //            Max. Y spins =              0
(PID.TID 0000.0001) //            Min. Y spins =     1000000000
(PID.TID 0000.0001) //          Total. Y spins =              0
(PID.TID 0000.0001) //            Avg. Y spins =       0.00E+00
(PID.TID 0000.0001) // o Tile number: 000003
(PID.TID 0000.0001) //         No. X exchanges =              0
(PID.TID 0000.0001) //            Max. X spins =              0
(PID.TID 0000.0001) //            Min. X spins =     1000000000
(PID.TID 0000.0001) //          Total. X spins =              0
(PID.TID 0000.0001) //            Avg. X spins =       0.00E+00
(PID.TID 0000.0001) //         No. Y exchanges =              0
(PID.TID 0000.0001) //            Max. Y spins =              0
(PID.TID 0000.0001) //            Min. Y spins =     1000000000
(PID.TID 0000.0001) //          Total. Y spins =              0
(PID.TID 0000.0001) //            Avg. Y spins =       0.00E+00
(PID.TID 0000.0001) // o Tile number: 000004
(PID.TID 0000.0001) //         No. X exchanges =              0
(PID.TID 0000.0001) //            Max. X spins =              0
(PID.TID 0000.0001) //            Min. X spins =     1000000000
(PID.TID 0000.0001) //          Total. X spins =              0
(PID.TID 0000.0001) //            Avg. X spins =       0.00E+00
(PID.TID 0000.0001) //         No. Y exchanges =              0
(PID.TID 0000.0001) //            Max. Y spins =              0
(PID.TID 0000.0001) //            Min. Y spins =     1000000000
(PID.TID 0000.0001) //          Total. Y spins =              0
(PID.TID 0000.0001) //            Avg. Y spins =       0.00E+00
(PID.TID 0000.0001) // o Tile number: 000005
(PID.TID 0000.0001) //         No. X exchanges =              0
(PID.TID 0000.0001) //            Max. X spins =              0
(PID.TID 0000.0001) //            Min. X spins =     1000000000
(PID.TID 0000.0001) //          Total. X spins =              0
(PID.TID 0000.0001) //            Avg. X spins =       0.00E+00
(PID.TID 0000.0001) //         No. Y exchanges =              0
(PID.TID 0000.0001) //            Max. Y spins =              0
(PID.TID 0000.0001) //            Min. Y spins =     1000000000
(PID.TID 0000.0001) //          Total. Y spins =              0
(PID.TID 0000.0001) //            Avg. Y spins =       0.00E+00
(PID.TID 0000.0001) // o Tile number: 000006
(PID.TID 0000.0001) //         No. X exchanges =              0
(PID.TID 0000.0001) //            Max. X spins =              0
(PID.TID 0000.0001) //            Min. X spins =     1000000000
(PID.TID 0000.0001) //          Total. X spins =              0
(PID.TID 0000.0001) //            Avg. X spins =       0.00E+00
(PID.TID 0000.0001) //         No. Y exchanges =              0
(PID.TID 0000.0001) //            Max. Y spins =              0
(PID.TID 0000.0001) //            Min. Y spins =     1000000000
(PID.TID 0000.0001) //          Total. Y spins =              0
(PID.TID 0000.0001) //            Avg. Y spins =       0.00E+00
(PID.TID 0000.0001) // o Thread number: 000001
(PID.TID 0000.0001) //            No. barriers =         183852
(PID.TID 0000.0001) //      Max. barrier spins =              1
(PID.TID 0000.0001) //      Min. barrier spins =              1
(PID.TID 0000.0001) //     Total barrier spins =         183852
(PID.TID 0000.0001) //      Avg. barrier spins =       1.00E+00
