(PID.TID 0000.0001) 
(PID.TID 0000.0001) // ======================================================
(PID.TID 0000.0001) //                      MITgcm UV
(PID.TID 0000.0001) //                      =========
(PID.TID 0000.0001) // ======================================================
(PID.TID 0000.0001) // execution environment starting up...
(PID.TID 0000.0001) 
(PID.TID 0000.0001) // MITgcmUV version:  checkpoint59a
(PID.TID 0000.0001) // Build user:        jmc
(PID.TID 0000.0001) // Build host:        faulks
(PID.TID 0000.0001) // Build date:        Fri May  4 15:30:26 EDT 2007
(PID.TID 0000.0001) 
(PID.TID 0000.0001) // =======================================================
(PID.TID 0000.0001) // Execution Environment parameter file "eedata"
(PID.TID 0000.0001) // =======================================================
(PID.TID 0000.0001) ># Example "eedata" file
(PID.TID 0000.0001) ># Lines beginning "#" are comments
(PID.TID 0000.0001) ># nTx - No. threads per process in X
(PID.TID 0000.0001) ># nTy - No. threads per process in Y
(PID.TID 0000.0001) > &EEPARMS
(PID.TID 0000.0001) > useCubedSphereExchange=.TRUE.,
(PID.TID 0000.0001) > nTx=1,
(PID.TID 0000.0001) > nTy=1,
(PID.TID 0000.0001) > &
(PID.TID 0000.0001) ># Note: Some systems use & as the
(PID.TID 0000.0001) ># namelist terminator. Other systems
(PID.TID 0000.0001) ># use a / character (as shown here).
(PID.TID 0000.0001) 
(PID.TID 0000.0001) // =======================================================
(PID.TID 0000.0001) // Computational Grid Specification ( see files "SIZE.h" )
(PID.TID 0000.0001) //                                  ( and "eedata"       )
(PID.TID 0000.0001) // =======================================================
(PID.TID 0000.0001)      nPx =    1 ; /* No. processes in X */
(PID.TID 0000.0001)      nPy =    1 ; /* No. processes in Y */
(PID.TID 0000.0001)      nSx =    6 ; /* No. tiles in X per process */
(PID.TID 0000.0001)      nSy =    1 ; /* No. tiles in Y per process */
(PID.TID 0000.0001)      sNx =   32 ; /* Tile size in X */
(PID.TID 0000.0001)      sNy =   32 ; /* Tile size in Y */
(PID.TID 0000.0001)      OLx =    3 ; /* Tile overlap distance in X */
(PID.TID 0000.0001)      OLy =    3 ; /* Tile overlap distance in Y */
(PID.TID 0000.0001)      nTx =    1 ; /* No. threads in X per process */
(PID.TID 0000.0001)      nTy =    1 ; /* No. threads in Y per process */
(PID.TID 0000.0001)       Nr =   15 ; /* No. levels in the vertical   */
(PID.TID 0000.0001)       nX =  192 ; /* Total domain size in X ( = nPx*nSx*sNx ) */
(PID.TID 0000.0001)       nY =   32 ; /* Total domain size in Y ( = nPy*nSy*sNy ) */
(PID.TID 0000.0001)   nTiles =    6 ; /* Total no. tiles per process ( = nSx*nSy ) */
(PID.TID 0000.0001)   nProcs =    1 ; /* Total no. processes ( = nPx*nPy ) */
(PID.TID 0000.0001) nThreads =    1 ; /* Total no. threads per process ( = nTx*nTy ) */
(PID.TID 0000.0001) usingMPI =    F ; /* Flag used to control whether MPI is in use */
(PID.TID 0000.0001)                   /*  note: To execute a program with MPI calls */
(PID.TID 0000.0001)                   /*  it must be launched appropriately e.g     */
(PID.TID 0000.0001)                   /*  "mpirun -np 64 ......"                    */
(PID.TID 0000.0001) useCoupler=   F ; /* Flag used to control communications with */
(PID.TID 0000.0001)                   /*  other model components, through a coupler */
(PID.TID 0000.0001) 
(PID.TID 0000.0001) // ======================================================
(PID.TID 0000.0001) // Mapping of tiles to threads
(PID.TID 0000.0001) // ======================================================
(PID.TID 0000.0001) // -o- Thread   1, tiles (   1:   6,   1:   1)
(PID.TID 0000.0001) 
(PID.TID 0000.0001) // ======================================================
(PID.TID 0000.0001) // Tile <-> Tile connectvity table
(PID.TID 0000.0001) // ======================================================
(PID.TID 0000.0001) // Tile number: 000001 (process no. = 000001)
(PID.TID 0000.0001) //        WEST: Tile = 000006, Process = 000001, Comm = put
(PID.TID 0000.0001) //                bi = 000006, bj = 000001
(PID.TID 0000.0001) //        EAST: Tile = 000002, Process = 000001, Comm = put
(PID.TID 0000.0001) //                bi = 000002, bj = 000001
(PID.TID 0000.0001) //       SOUTH: Tile = 000001, Process = 000001, Comm = put
(PID.TID 0000.0001) //                bi = 000001, bj = 000001
(PID.TID 0000.0001) //       NORTH: Tile = 000001, Process = 000001, Comm = put
(PID.TID 0000.0001) //                bi = 000001, bj = 000001
(PID.TID 0000.0001) // Tile number: 000002 (process no. = 000001)
(PID.TID 0000.0001) //        WEST: Tile = 000001, Process = 000001, Comm = put
(PID.TID 0000.0001) //                bi = 000001, bj = 000001
(PID.TID 0000.0001) //        EAST: Tile = 000003, Process = 000001, Comm = put
(PID.TID 0000.0001) //                bi = 000003, bj = 000001
(PID.TID 0000.0001) //       SOUTH: Tile = 000002, Process = 000001, Comm = put
(PID.TID 0000.0001) //                bi = 000002, bj = 000001
(PID.TID 0000.0001) //       NORTH: Tile = 000002, Process = 000001, Comm = put
(PID.TID 0000.0001) //                bi = 000002, bj = 000001
(PID.TID 0000.0001) // Tile number: 000003 (process no. = 000001)
(PID.TID 0000.0001) //        WEST: Tile = 000002, Process = 000001, Comm = put
(PID.TID 0000.0001) //                bi = 000002, bj = 000001
(PID.TID 0000.0001) //        EAST: Tile = 000004, Process = 000001, Comm = put
(PID.TID 0000.0001) //                bi = 000004, bj = 000001
(PID.TID 0000.0001) //       SOUTH: Tile = 000003, Process = 000001, Comm = put
(PID.TID 0000.0001) //                bi = 000003, bj = 000001
(PID.TID 0000.0001) //       NORTH: Tile = 000003, Process = 000001, Comm = put
(PID.TID 0000.0001) //                bi = 000003, bj = 000001
(PID.TID 0000.0001) // Tile number: 000004 (process no. = 000001)
(PID.TID 0000.0001) //        WEST: Tile = 000003, Process = 000001, Comm = put
(PID.TID 0000.0001) //                bi = 000003, bj = 000001
(PID.TID 0000.0001) //        EAST: Tile = 000005, Process = 000001, Comm = put
(PID.TID 0000.0001) //                bi = 000005, bj = 000001
(PID.TID 0000.0001) //       SOUTH: Tile = 000004, Process = 000001, Comm = put
(PID.TID 0000.0001) //                bi = 000004, bj = 000001
(PID.TID 0000.0001) //       NORTH: Tile = 000004, Process = 000001, Comm = put
(PID.TID 0000.0001) //                bi = 000004, bj = 000001
(PID.TID 0000.0001) // Tile number: 000005 (process no. = 000001)
(PID.TID 0000.0001) //        WEST: Tile = 000004, Process = 000001, Comm = put
(PID.TID 0000.0001) //                bi = 000004, bj = 000001
(PID.TID 0000.0001) //        EAST: Tile = 000006, Process = 000001, Comm = put
(PID.TID 0000.0001) //                bi = 000006, bj = 000001
(PID.TID 0000.0001) //       SOUTH: Tile = 000005, Process = 000001, Comm = put
(PID.TID 0000.0001) //                bi = 000005, bj = 000001
(PID.TID 0000.0001) //       NORTH: Tile = 000005, Process = 000001, Comm = put
(PID.TID 0000.0001) //                bi = 000005, bj = 000001
(PID.TID 0000.0001) // Tile number: 000006 (process no. = 000001)
(PID.TID 0000.0001) //        WEST: Tile = 000005, Process = 000001, Comm = put
(PID.TID 0000.0001) //                bi = 000005, bj = 000001
(PID.TID 0000.0001) //        EAST: Tile = 000001, Process = 000001, Comm = put
(PID.TID 0000.0001) //                bi = 000001, bj = 000001
(PID.TID 0000.0001) //       SOUTH: Tile = 000006, Process = 000001, Comm = put
(PID.TID 0000.0001) //                bi = 000006, bj = 000001
(PID.TID 0000.0001) //       NORTH: Tile = 000006, Process = 000001, Comm = put
(PID.TID 0000.0001) //                bi = 000006, bj = 000001
(PID.TID 0000.0001) 
(PID.TID 0000.0001) ===== W2 TILE TOPLOGY =====
(PID.TID 0000.0001)  TILE:    1
(PID.TID 0000.0001)       NEIGHBOUR    1 = TILE    3 Comm = PUT ( PROC =    1)
(PID.TID 0000.0001)       NEIGHBOUR    2 = TILE    6 Comm = PUT ( PROC =    1)
(PID.TID 0000.0001)       NEIGHBOUR    3 = TILE    2 Comm = PUT ( PROC =    1)
(PID.TID 0000.0001)       NEIGHBOUR    4 = TILE    5 Comm = PUT ( PROC =    1)
(PID.TID 0000.0001)  TILE:    2
(PID.TID 0000.0001)       NEIGHBOUR    1 = TILE    3 Comm = PUT ( PROC =    1)
(PID.TID 0000.0001)       NEIGHBOUR    2 = TILE    6 Comm = PUT ( PROC =    1)
(PID.TID 0000.0001)       NEIGHBOUR    3 = TILE    4 Comm = PUT ( PROC =    1)
(PID.TID 0000.0001)       NEIGHBOUR    4 = TILE    1 Comm = PUT ( PROC =    1)
(PID.TID 0000.0001)  TILE:    3
(PID.TID 0000.0001)       NEIGHBOUR    1 = TILE    5 Comm = PUT ( PROC =    1)
(PID.TID 0000.0001)       NEIGHBOUR    2 = TILE    2 Comm = PUT ( PROC =    1)
(PID.TID 0000.0001)       NEIGHBOUR    3 = TILE    4 Comm = PUT ( PROC =    1)
(PID.TID 0000.0001)       NEIGHBOUR    4 = TILE    1 Comm = PUT ( PROC =    1)
(PID.TID 0000.0001)  TILE:    4
(PID.TID 0000.0001)       NEIGHBOUR    1 = TILE    5 Comm = PUT ( PROC =    1)
(PID.TID 0000.0001)       NEIGHBOUR    2 = TILE    2 Comm = PUT ( PROC =    1)
(PID.TID 0000.0001)       NEIGHBOUR    3 = TILE    6 Comm = PUT ( PROC =    1)
(PID.TID 0000.0001)       NEIGHBOUR    4 = TILE    3 Comm = PUT ( PROC =    1)
(PID.TID 0000.0001)  TILE:    5
(PID.TID 0000.0001)       NEIGHBOUR    1 = TILE    1 Comm = PUT ( PROC =    1)
(PID.TID 0000.0001)       NEIGHBOUR    2 = TILE    4 Comm = PUT ( PROC =    1)
(PID.TID 0000.0001)       NEIGHBOUR    3 = TILE    6 Comm = PUT ( PROC =    1)
(PID.TID 0000.0001)       NEIGHBOUR    4 = TILE    3 Comm = PUT ( PROC =    1)
(PID.TID 0000.0001)  TILE:    6
(PID.TID 0000.0001)       NEIGHBOUR    1 = TILE    1 Comm = PUT ( PROC =    1)
(PID.TID 0000.0001)       NEIGHBOUR    2 = TILE    4 Comm = PUT ( PROC =    1)
(PID.TID 0000.0001)       NEIGHBOUR    3 = TILE    2 Comm = PUT ( PROC =    1)
(PID.TID 0000.0001)       NEIGHBOUR    4 = TILE    5 Comm = PUT ( PROC =    1)
(PID.TID 0000.0001) Tile    1(proc =   1) sends points i=  35:  -2, j=  30:  32
(PID.TID 0000.0001)                          to points i=  -2:   0, j=  -2:  35 in tile    3(proc =   1)
(PID.TID 0000.0001) Tile    1(proc =   1) sends points i=  -2:  35, j=   1:   3
(PID.TID 0000.0001)                          to points i=  -2:  35, j=  33:  35 in tile    6(proc =   1)
(PID.TID 0000.0001) Tile    1(proc =   1) sends points i=  30:  32, j=  -2:  35
(PID.TID 0000.0001)                          to points i=  -2:   0, j=  -2:  35 in tile    2(proc =   1)
(PID.TID 0000.0001) Tile    1(proc =   1) sends points i=   1:   3, j=  35:  -2
(PID.TID 0000.0001)                          to points i=  -2:  35, j=  33:  35 in tile    5(proc =   1)
(PID.TID 0000.0001) Tile    2(proc =   1) sends points i=  -2:  35, j=  30:  32
(PID.TID 0000.0001)                          to points i=  -2:  35, j=  -2:   0 in tile    3(proc =   1)
(PID.TID 0000.0001) Tile    2(proc =   1) sends points i=  35:  -2, j=   1:   3
(PID.TID 0000.0001)                          to points i=  33:  35, j=  -2:  35 in tile    6(proc =   1)
(PID.TID 0000.0001) Tile    2(proc =   1) sends points i=  30:  32, j=  35:  -2
(PID.TID 0000.0001)                          to points i=  -2:  35, j=  -2:   0 in tile    4(proc =   1)
(PID.TID 0000.0001) Tile    2(proc =   1) sends points i=   1:   3, j=  -2:  35
(PID.TID 0000.0001)                          to points i=  33:  35, j=  -2:  35 in tile    1(proc =   1)
(PID.TID 0000.0001) Tile    3(proc =   1) sends points i=  35:  -2, j=  30:  32
(PID.TID 0000.0001)                          to points i=  -2:   0, j=  -2:  35 in tile    5(proc =   1)
(PID.TID 0000.0001) Tile    3(proc =   1) sends points i=  -2:  35, j=   1:   3
(PID.TID 0000.0001)                          to points i=  -2:  35, j=  33:  35 in tile    2(proc =   1)
(PID.TID 0000.0001) Tile    3(proc =   1) sends points i=  30:  32, j=  -2:  35
(PID.TID 0000.0001)                          to points i=  -2:   0, j=  -2:  35 in tile    4(proc =   1)
(PID.TID 0000.0001) Tile    3(proc =   1) sends points i=   1:   3, j=  35:  -2
(PID.TID 0000.0001)                          to points i=  -2:  35, j=  33:  35 in tile    1(proc =   1)
(PID.TID 0000.0001) Tile    4(proc =   1) sends points i=  -2:  35, j=  30:  32
(PID.TID 0000.0001)                          to points i=  -2:  35, j=  -2:   0 in tile    5(proc =   1)
(PID.TID 0000.0001) Tile    4(proc =   1) sends points i=  35:  -2, j=   1:   3
(PID.TID 0000.0001)                          to points i=  33:  35, j=  -2:  35 in tile    2(proc =   1)
(PID.TID 0000.0001) Tile    4(proc =   1) sends points i=  30:  32, j=  35:  -2
(PID.TID 0000.0001)                          to points i=  -2:  35, j=  -2:   0 in tile    6(proc =   1)
(PID.TID 0000.0001) Tile    4(proc =   1) sends points i=   1:   3, j=  -2:  35
(PID.TID 0000.0001)                          to points i=  33:  35, j=  -2:  35 in tile    3(proc =   1)
(PID.TID 0000.0001) Tile    5(proc =   1) sends points i=  35:  -2, j=  30:  32
(PID.TID 0000.0001)                          to points i=  -2:   0, j=  -2:  35 in tile    1(proc =   1)
(PID.TID 0000.0001) Tile    5(proc =   1) sends points i=  -2:  35, j=   1:   3
(PID.TID 0000.0001)                          to points i=  -2:  35, j=  33:  35 in tile    4(proc =   1)
(PID.TID 0000.0001) Tile    5(proc =   1) sends points i=  30:  32, j=  -2:  35
(PID.TID 0000.0001)                          to points i=  -2:   0, j=  -2:  35 in tile    6(proc =   1)
(PID.TID 0000.0001) Tile    5(proc =   1) sends points i=   1:   3, j=  35:  -2
(PID.TID 0000.0001)                          to points i=  -2:  35, j=  33:  35 in tile    3(proc =   1)
(PID.TID 0000.0001) Tile    6(proc =   1) sends points i=  -2:  35, j=  30:  32
(PID.TID 0000.0001)                          to points i=  -2:  35, j=  -2:   0 in tile    1(proc =   1)
(PID.TID 0000.0001) Tile    6(proc =   1) sends points i=  35:  -2, j=   1:   3
(PID.TID 0000.0001)                          to points i=  33:  35, j=  -2:  35 in tile    4(proc =   1)
(PID.TID 0000.0001) Tile    6(proc =   1) sends points i=  30:  32, j=  35:  -2
(PID.TID 0000.0001)                          to points i=  -2:  35, j=  -2:   0 in tile    2(proc =   1)
(PID.TID 0000.0001) Tile    6(proc =   1) sends points i=   1:   3, j=  -2:  35
(PID.TID 0000.0001)                          to points i=  33:  35, j=  -2:  35 in tile    5(proc =   1)
(PID.TID 0000.0001) Tile    1(proc =   1)recv to points i=  -2:  35, j=  33:  35from tile   3(proc =   1)
(PID.TID 0000.0001) Tile    1(proc =   1)recv to points i=  -2:  35, j=  -2:   0from tile   6(proc =   1)
(PID.TID 0000.0001) Tile    1(proc =   1)recv to points i=  33:  35, j=  -2:  35from tile   2(proc =   1)
(PID.TID 0000.0001) Tile    1(proc =   1)recv to points i=  -2:   0, j=  -2:  35from tile   5(proc =   1)
(PID.TID 0000.0001) Tile    2(proc =   1)recv to points i=  -2:  35, j=  33:  35from tile   3(proc =   1)
(PID.TID 0000.0001) Tile    2(proc =   1)recv to points i=  -2:  35, j=  -2:   0from tile   6(proc =   1)
(PID.TID 0000.0001) Tile    2(proc =   1)recv to points i=  33:  35, j=  -2:  35from tile   4(proc =   1)
(PID.TID 0000.0001) Tile    2(proc =   1)recv to points i=  -2:   0, j=  -2:  35from tile   1(proc =   1)
(PID.TID 0000.0001) Tile    3(proc =   1)recv to points i=  -2:  35, j=  33:  35from tile   5(proc =   1)
(PID.TID 0000.0001) Tile    3(proc =   1)recv to points i=  -2:  35, j=  -2:   0from tile   2(proc =   1)
(PID.TID 0000.0001) Tile    3(proc =   1)recv to points i=  33:  35, j=  -2:  35from tile   4(proc =   1)
(PID.TID 0000.0001) Tile    3(proc =   1)recv to points i=  -2:   0, j=  -2:  35from tile   1(proc =   1)
(PID.TID 0000.0001) Tile    4(proc =   1)recv to points i=  -2:  35, j=  33:  35from tile   5(proc =   1)
(PID.TID 0000.0001) Tile    4(proc =   1)recv to points i=  -2:  35, j=  -2:   0from tile   2(proc =   1)
(PID.TID 0000.0001) Tile    4(proc =   1)recv to points i=  33:  35, j=  -2:  35from tile   6(proc =   1)
(PID.TID 0000.0001) Tile    4(proc =   1)recv to points i=  -2:   0, j=  -2:  35from tile   3(proc =   1)
(PID.TID 0000.0001) Tile    5(proc =   1)recv to points i=  -2:  35, j=  33:  35from tile   1(proc =   1)
(PID.TID 0000.0001) Tile    5(proc =   1)recv to points i=  -2:  35, j=  -2:   0from tile   4(proc =   1)
(PID.TID 0000.0001) Tile    5(proc =   1)recv to points i=  33:  35, j=  -2:  35from tile   6(proc =   1)
(PID.TID 0000.0001) Tile    5(proc =   1)recv to points i=  -2:   0, j=  -2:  35from tile   3(proc =   1)
(PID.TID 0000.0001) Tile    6(proc =   1)recv to points i=  -2:  35, j=  33:  35from tile   1(proc =   1)
(PID.TID 0000.0001) Tile    6(proc =   1)recv to points i=  -2:  35, j=  -2:   0from tile   4(proc =   1)
(PID.TID 0000.0001) Tile    6(proc =   1)recv to points i=  33:  35, j=  -2:  35from tile   2(proc =   1)
(PID.TID 0000.0001) Tile    6(proc =   1)recv to points i=  -2:   0, j=  -2:  35from tile   5(proc =   1)
(PID.TID 0000.0001) // =======================================================
(PID.TID 0000.0001) // Model parameter file "data"
(PID.TID 0000.0001) // =======================================================
(PID.TID 0000.0001) ># ====================
(PID.TID 0000.0001) ># | Model parameters |
(PID.TID 0000.0001) ># ====================
(PID.TID 0000.0001) >#
(PID.TID 0000.0001) ># Continuous equation parameters
(PID.TID 0000.0001) > &PARM01
(PID.TID 0000.0001) > tRef=15*20.,
(PID.TID 0000.0001) > sRef=15*35.,
(PID.TID 0000.0001) > viscAh =3.E5,
(PID.TID 0000.0001) > viscAr =1.E-3,
(PID.TID 0000.0001) > diffKhT=0.,
(PID.TID 0000.0001) > diffK4T=0.,
(PID.TID 0000.0001) > diffKrT=3.E-5,
(PID.TID 0000.0001) > diffKhS=0.,
(PID.TID 0000.0001) > diffK4S=0.,
(PID.TID 0000.0001) > diffKrS=3.E-5,
(PID.TID 0000.0001) > ivdc_kappa=10.,
(PID.TID 0000.0001) > implicitDiffusion=.TRUE.,
(PID.TID 0000.0001) > rotationPeriod=86400.,
(PID.TID 0000.0001) > gravity=9.81,
(PID.TID 0000.0001) > rhonil=1035.,
(PID.TID 0000.0001) > rhoConstFresh=1000.,
(PID.TID 0000.0001) > eosType='JMD95Z',
(PID.TID 0000.0001) > staggerTimeStep=.TRUE.,
(PID.TID 0000.0001) > vectorInvariantMomentum=.TRUE.,
(PID.TID 0000.0001) > implicitFreeSurface=.TRUE.,
(PID.TID 0000.0001) > exactConserv=.TRUE.,
(PID.TID 0000.0001) > select_rStar=2,
(PID.TID 0000.0001) > nonlinFreeSurf=4,
(PID.TID 0000.0001) > hFacInf=0.2,
(PID.TID 0000.0001) > hFacSup=2.0,
(PID.TID 0000.0001) > useRealFreshWaterFlux=.TRUE.,
(PID.TID 0000.0001) > hFacMin=.1,
(PID.TID 0000.0001) > hFacMinDr=20.,
(PID.TID 0000.0001) > readBinaryPrec=64,
(PID.TID 0000.0001) >#writeBinaryPrec=64,
(PID.TID 0000.0001) > &
(PID.TID 0000.0001) >
(PID.TID 0000.0001) ># Elliptic solver parameters
(PID.TID 0000.0001) > &PARM02
(PID.TID 0000.0001) > cg2dMaxIters=200,
(PID.TID 0000.0001) >#cg2dTargetResidual=1.E-9,
(PID.TID 0000.0001) > cg2dTargetResWunit=1.E-14,
(PID.TID 0000.0001) > &
(PID.TID 0000.0001) >
(PID.TID 0000.0001) ># Time stepping parameters
(PID.TID 0000.0001) > &PARM03
(PID.TID 0000.0001) > nIter0=36000,
(PID.TID 0000.0001) > nTimeSteps=20,
(PID.TID 0000.0001) > deltaTmom   =1200.,
(PID.TID 0000.0001) > deltaTtracer=86400.,
(PID.TID 0000.0001) > deltaTfreesurf=86400.,
(PID.TID 0000.0001) > deltaTClock =86400.,
(PID.TID 0000.0001) > abEps = 0.1,
(PID.TID 0000.0001) >#forcing_In_AB=.FALSE.,
(PID.TID 0000.0001) > tracForcingOutAB=1,
(PID.TID 0000.0001) > pChkptFreq  =31104000.,
(PID.TID 0000.0001) > taveFreq    =31104000.,
(PID.TID 0000.0001) > dumpFreq    =31104000.,
(PID.TID 0000.0001) > monitorFreq =2592000.,
(PID.TID 0000.0001) >#tave_lastIter=0.,
(PID.TID 0000.0001) > periodicExternalForcing=.TRUE.,
(PID.TID 0000.0001) > externForcingPeriod=2592000.,
(PID.TID 0000.0001) > externForcingCycle=31104000.,
(PID.TID 0000.0001) ># 2 months restoring timescale for temperature
(PID.TID 0000.0001) > tauThetaClimRelax = 5184000.,
(PID.TID 0000.0001) ># 6 months restoring timescale for salinity
(PID.TID 0000.0001) > tauSaltClimRelax = 15552000.,
(PID.TID 0000.0001) > latBandClimRelax=50.,
(PID.TID 0000.0001) > monitorFreq =1.,
(PID.TID 0000.0001) > &
(PID.TID 0000.0001) >
(PID.TID 0000.0001) ># Gridding parameters
(PID.TID 0000.0001) > &PARM04
(PID.TID 0000.0001) > usingCurvilinearGrid=.TRUE.,
(PID.TID 0000.0001) > horizGridFile='grid_cs32',
(PID.TID 0000.0001) > delR= 50., 70., 100., 140., 190.,
(PID.TID 0000.0001) >       240., 290., 340., 390., 440.,
(PID.TID 0000.0001) >       490., 540., 590., 640., 690.,
(PID.TID 0000.0001) > &
(PID.TID 0000.0001) >
(PID.TID 0000.0001) ># Input datasets
(PID.TID 0000.0001) > &PARM05
(PID.TID 0000.0001) > bathyFile      ='bathy_Hmin50.bin',
(PID.TID 0000.0001) > hydrogThetaFile='lev_T_cs_15k.bin',
(PID.TID 0000.0001) > hydrogSaltFile ='lev_S_cs_15k.bin',
(PID.TID 0000.0001) > zonalWindFile  ='trenberth_taux.bin',
(PID.TID 0000.0001) > meridWindFile  ='trenberth_tauy.bin',
(PID.TID 0000.0001) > thetaClimFile  ='lev_surfT_cs_12m.bin',
(PID.TID 0000.0001) > saltClimFile   ='lev_surfS_cs_12m.bin',
(PID.TID 0000.0001) > &
(PID.TID 0000.0001) 
(PID.TID 0000.0001) S/R INI_PARMS ; starts to read PARM01
(PID.TID 0000.0001) S/R INI_PARMS ; read PARM01 : OK
(PID.TID 0000.0001) S/R INI_PARMS ; starts to read PARM02
(PID.TID 0000.0001) S/R INI_PARMS ; read PARM02 : OK
(PID.TID 0000.0001) S/R INI_PARMS ; starts to read PARM03
(PID.TID 0000.0001) S/R INI_PARMS ; read PARM03 : OK
(PID.TID 0000.0001) S/R INI_PARMS ; starts to read PARM04
(PID.TID 0000.0001) S/R INI_PARMS ; read PARM04 : OK
(PID.TID 0000.0001) S/R INI_PARMS ; starts to read PARM05
(PID.TID 0000.0001) S/R INI_PARMS ; read PARM05 : OK
(PID.TID 0000.0001)  PACKAGES_BOOT: opening data.pkg
(PID.TID 0000.0001)  OPEN_COPY_DATA_FILE: opening file data.pkg
(PID.TID 0000.0001) // =======================================================
(PID.TID 0000.0001) // Parameter file "data.pkg"
(PID.TID 0000.0001) // =======================================================
(PID.TID 0000.0001) ># Packages
(PID.TID 0000.0001) > &PACKAGES
(PID.TID 0000.0001) > useGMRedi=.TRUE.,
(PID.TID 0000.0001) > useBulkforce=.TRUE.,
(PID.TID 0000.0001) > useThSIce=.TRUE.,
(PID.TID 0000.0001) > useDiagnostics=.TRUE.,
(PID.TID 0000.0001) > &
(PID.TID 0000.0001) 
(PID.TID 0000.0001)  PACKAGES_BOOT: finished reading data.pkg
(PID.TID 0000.0001)  GM_READPARMS: opening data.gmredi
(PID.TID 0000.0001)  OPEN_COPY_DATA_FILE: opening file data.gmredi
(PID.TID 0000.0001) // =======================================================
(PID.TID 0000.0001) // Parameter file "data.gmredi"
(PID.TID 0000.0001) // =======================================================
(PID.TID 0000.0001) ># GM+Redi package parameters:
(PID.TID 0000.0001) >
(PID.TID 0000.0001) >#-from MOM :
(PID.TID 0000.0001) ># GM_background_K: 	G & Mc.W  diffusion coefficient
(PID.TID 0000.0001) ># GM_maxSlope    :	max slope of isopycnals
(PID.TID 0000.0001) ># GM_Scrit       :	transition for scaling diffusion coefficient
(PID.TID 0000.0001) ># GM_Sd          :	half width scaling for diffusion coefficient
(PID.TID 0000.0001) ># GM_taper_scheme:	slope clipping or one of the tapering schemes
(PID.TID 0000.0001) ># GM_Kmin_horiz  :	horizontal diffusion minimum value
(PID.TID 0000.0001) >
(PID.TID 0000.0001) >#-Option parameters (needs to "define" options in GMREDI_OPTIONS.h")
(PID.TID 0000.0001) ># GM_isopycK     :	isopycnal diffusion coefficient (default=GM_background_K)
(PID.TID 0000.0001) ># GM_AdvForm     :	turn on GM Advective form       (default=Skew flux form)
(PID.TID 0000.0001) >
(PID.TID 0000.0001) > &GM_PARM01
(PID.TID 0000.0001) >  GM_background_K    = 800.,
(PID.TID 0000.0001) >  GM_taper_scheme    = 'gkw91',
(PID.TID 0000.0001) >  GM_maxSlope        = 1.e-2,
(PID.TID 0000.0001) >  GM_Kmin_horiz      = 50.,
(PID.TID 0000.0001) >  GM_Scrit           = 4.e-3,
(PID.TID 0000.0001) >  GM_Sd              = 1.e-3,
(PID.TID 0000.0001) ># GM_Visbeck_alpha   = 0.,
(PID.TID 0000.0001) ># GM_Visbeck_length  = 2.e+5,
(PID.TID 0000.0001) ># GM_Visbeck_depth   = 1.e+3,
(PID.TID 0000.0001) ># GM_Visbeck_maxval_K= 2.5e+3,
(PID.TID 0000.0001) > &
(PID.TID 0000.0001) >
(PID.TID 0000.0001) >
(PID.TID 0000.0001) 
(PID.TID 0000.0001)  GM_READPARMS: finished reading data.gmredi
(PID.TID 0000.0001)  OPEN_COPY_DATA_FILE: opening file data.blk
(PID.TID 0000.0001) // =======================================================
(PID.TID 0000.0001) // Parameter file "data.blk"
(PID.TID 0000.0001) // =======================================================
(PID.TID 0000.0001) > &BULKF_CONST
(PID.TID 0000.0001) > Tf0kel = 273.15,
(PID.TID 0000.0001) >#p0   = 1013.,  <- no longer in Namelist, but hard coded
(PID.TID 0000.0001) > Rgas   = 287.,
(PID.TID 0000.0001) > &
(PID.TID 0000.0001) >
(PID.TID 0000.0001) > &BULKF_PARM01
(PID.TID 0000.0001) ># set blk_nIter=0 to use the original FORMULA_LANL:
(PID.TID 0000.0001) > blk_nIter= 0,
(PID.TID 0000.0001) >#RainFile=       'ncep_precip_cs.bin',
(PID.TID 0000.0001) > RainFile=       'ncep_pr_scal_cs.bin',
(PID.TID 0000.0001) > SolarFile=      'ncep_downsolar_cs.bin',
(PID.TID 0000.0001) > AirTempFile=    'ncep_tair_cs.bin',
(PID.TID 0000.0001) > AirhumidityFile='ncep_qair_cs.bin',
(PID.TID 0000.0001) > LongwaveFile=   'ncep_downlw_cs.bin',
(PID.TID 0000.0001) > UWindFile=      ' ',
(PID.TID 0000.0001) > VWindFile=      ' ',
(PID.TID 0000.0001) > WspeedFile=     'ncep_windspeed_cs.bin',
(PID.TID 0000.0001) > RunoffFile=     ' ',
(PID.TID 0000.0001) > QnetFile=       ' ',
(PID.TID 0000.0001) > EmPFile=        ' ',
(PID.TID 0000.0001) > CloudFile=      ' ',
(PID.TID 0000.0001) >#blk_taveFreq=864000.,
(PID.TID 0000.0001) > &
(PID.TID 0000.0001) >
(PID.TID 0000.0001) > &BULKF_PARM02
(PID.TID 0000.0001) > qnet_off=0.0,
(PID.TID 0000.0001) > empmr_off=0.0,
(PID.TID 0000.0001) > conservcycle=311040000.,
(PID.TID 0000.0001) > &
(PID.TID 0000.0001) >
(PID.TID 0000.0001) 
(PID.TID 0000.0001)  BULKF_READPARMS: starts to read BULKF_CONST
(PID.TID 0000.0001)  BULKF_READPARMS: read BULKF_CONST : OK
(PID.TID 0000.0001)  BULKF_READPARMS: starts to read BULKF_PARM01
(PID.TID 0000.0001)  BULKF_READPARMS: read BULKF_PARM01 : OK
 BlkF: rhoA     =  1.3
 BlkF: rhoFW    =  1000.
 BlkF: cpAir    =  1004.
 BlkF: Lvap     =  2500000.
 BlkF: Lfresh   =  334000.
 BlkF: Tf0kel   =  273.15
 BlkF: Rgas     =  287.
 BlkF: xkar     =  0.4
 BlkF: stefan   =  5.67E-08
 BlkF: zref     =  10.
 BlkF: zwd      =  10.
 BlkF: zth      =  10.
 BlkF: cDrag_1  =  0.0027
 BlkF: cDrag_2  =  0.000142
 BlkF: cDrag_3  =  7.64E-05
 BlkF: cStantonS=  0.018
 BlkF: cStantonU=  0.0327
 BlkF: cDalton  =  0.0346
 BlkF: umin     =  1.
 BlkF: humid_fac=  0.606
 BlkF: saltQsFac=  0.98
 BlkF: gamma_blk=  0.01
 BlkF: atm_emissivity  =  0.9
 BlkF: ocean_emissivity=  0.985
 BlkF: snow_emissivity =  0.98
 BlkF: ice_emissivity  =  0.98
 BlkF: ocean_albedo    =  0.1
 BlkF: FWIND0   =  0.6
 BlkF: CHS      =  0.0008
 BlkF: VGUST    =  5.
 BlkF: DTHETA   =  3.
 BlkF: dTstab   =  1.
 BlkF: FSTAB    =  0.67
 BlkF: useFluxFormula_AIM= F
 BlkF: calcWindStress  = F
 BlkF: useQnetch       = F
 BlkF: useEmPch        = F
 BlkF: blk_nIter   = 0
 BlkF: blk_taveFreq=  31104000.
(PID.TID 0000.0001)  THSICE_READPARMS: opening data.ice
(PID.TID 0000.0001)  OPEN_COPY_DATA_FILE: opening file data.ice
(PID.TID 0000.0001) // =======================================================
(PID.TID 0000.0001) // Parameter file "data.ice"
(PID.TID 0000.0001) // =======================================================
(PID.TID 0000.0001) > &THSICE_CONST
(PID.TID 0000.0001) > Tf0kel  = 273.15,
(PID.TID 0000.0001) >#- with LANL albedo:
(PID.TID 0000.0001) >#albWarmSnow= 0.75,
(PID.TID 0000.0001) >#- for full ice-fraction :
(PID.TID 0000.0001) >#fracEnMelt = 0.,
(PID.TID 0000.0001) >#iceMaskMin = 1.,
(PID.TID 0000.0001) >#hThinIce   = 0.01,
(PID.TID 0000.0001) >#hThickIce  = 100.,
(PID.TID 0000.0001) >#- with fractional ice:
(PID.TID 0000.0001) > iceMaskMin = 0.05,
(PID.TID 0000.0001) > hiMax      = 10.,
(PID.TID 0000.0001) > hsMax      = 10.,
(PID.TID 0000.0001) >#albIceMax  = 0.7,
(PID.TID 0000.0001) >#albIceMin  = 0.7,
(PID.TID 0000.0001) > &
(PID.TID 0000.0001) >
(PID.TID 0000.0001) > &THSICE_PARM01
(PID.TID 0000.0001) >#StartIceModel=1,
(PID.TID 0000.0001) > stressReduction=0.,
(PID.TID 0000.0001) >#thSIce_taveFreq=2592000.,
(PID.TID 0000.0001) >#thSIce_diagFreq=2592000.,
(PID.TID 0000.0001) >#thSIce_monFreq=864000.,
(PID.TID 0000.0001) > &
(PID.TID 0000.0001) >
(PID.TID 0000.0001) 
(PID.TID 0000.0001)  THSICE_READPARMS: read THSICE_CONST
(PID.TID 0000.0001)  THSICE_READPARMS: read THSICE_PARM01
 ThSI: rhos      =  330.
 ThSI: rhoi      =  900.
 ThSI: rhosw     =  1035.
 ThSI: rhofw     =  1000.
 ThSI: rhoiw     =  135.
 ThSI: cpIce     =  2106.
 ThSI: cpWater   =  3994.
 ThSI: kIce      =  2.03
 ThSI: kSnow     =  0.3
 ThSI: bMeltCoef =  0.006
 ThSI: Lfresh    =  334000.
 ThSI: qsnow     =  334000.
 ThSI: albColdSnow=  0.85
 ThSI: albWarmSnow=  0.7
 ThSI: tempSnowAlb= -10.
 ThSI: albOldSnow =  0.55
 ThSI: hNewSnowAge=  0.002
 ThSI: snowAgTime =  4320000.
 ThSI: albIceMax =  0.65
 ThSI: albIceMin =  0.2
 ThSI: hAlbIce   =  0.5
 ThSI: hAlbSnow  =  0.3
 ThSI: i0swFrac  =  0.3
 ThSI: ksolar    =  1.5
 ThSI: dhSnowLin =  0.
 ThSI: saltIce   =  4.
 ThSI: S_winton  =  1.
 ThSI: mu_Tf     =  0.054
 ThSI: Tf0kel    =  273.15
 ThSI: Tmlt1     = -0.054
 ThSI: Terrmax   =  0.5
 ThSI: nitMaxTsf = 20
 ThSI: hIceMin   =  0.01
 ThSI: hiMax     =  10.
 ThSI: hsMax     =  10.
 ThSI: iceMaskMax =  1.
 ThSI: iceMaskMin =  0.05
 ThSI: fracEnMelt =  0.4
 ThSI: fracEnFreez=  0.
 ThSI: hThinIce   =  0.2
 ThSI: hThickIce  =  2.5
 ThSI: hNewIceMax =  10.
 ThSI: stressReduction =  0.
 ThSI: thSIceAdvScheme = 0
 ThSI: thSIce_diffK  =  0.
 ThSI: thSIce_deltaT =  86400.
 ThSI: ocean_deltaT  =  86400.
 ThSI: stepFwd_oceMxL= F
 ThSI: tauRelax_MxL  =  0.
 ThSI: hMxL_default  =  50.
 ThSI: sMxL_default  =  35.
 ThSI: vMxL_default  =  0.05
 ThSI: thSIce_taveFreq=  31104000.
 ThSI: thSIce_diagFreq=  31104000.
 ThSI: thSIce_monFreq =  1.
 ThSI: startIceModel = 0
(PID.TID 0000.0001)  DIAGNOSTICS_READPARMS: opening data.diagnostics
(PID.TID 0000.0001)  OPEN_COPY_DATA_FILE: opening file data.diagnostics
(PID.TID 0000.0001) // =======================================================
(PID.TID 0000.0001) // Parameter file "data.diagnostics"
(PID.TID 0000.0001) // =======================================================
(PID.TID 0000.0001) ># Diagnostic Package Choices
(PID.TID 0000.0001) >#-----------------
(PID.TID 0000.0001) ># for each output-stream:
(PID.TID 0000.0001) >#  filename(n) : prefix of the output file name (only 8.c long) for outp.stream n
(PID.TID 0000.0001) >#  frequency(n):< 0 : write snap-shot output every |frequency| seconds
(PID.TID 0000.0001) >#               > 0 : write time-average output every frequency seconds
(PID.TID 0000.0001) >#  timePhase(n)     : write at time = timePhase + multiple of |frequency|
(PID.TID 0000.0001) >#  averagingFreq(n) : frequency (in s) for periodic averaging interval
(PID.TID 0000.0001) >#  averagingPhase(n): phase     (in s) for periodic averaging interval
(PID.TID 0000.0001) >#  repeatCycle(n)   : number of averaging intervals in 1 cycle
(PID.TID 0000.0001) >#  levels(:,n) : list of levels to write to file (Notes: declared as REAL)
(PID.TID 0000.0001) >#                 when this entry is missing, select all common levels of this list
(PID.TID 0000.0001) >#  fields(:,n) : list of diagnostics fields (8.c) (see "available_diagnostics.log"
(PID.TID 0000.0001) >#                 file for the list of all available diag. in this particular config)
(PID.TID 0000.0001) >#-----------------
(PID.TID 0000.0001) > &DIAGNOSTICS_LIST
(PID.TID 0000.0001) ># diag_mnc     = .FALSE.,
(PID.TID 0000.0001) ># dumpAtLast   = .TRUE.,
(PID.TID 0000.0001) >   fields(1,1) = 'ETAN    ','ETANSQ  ','DETADT2 ','PHIBOT  ','PHIBOTSQ',
(PID.TID 0000.0001) >                 'oceTAUX ','oceTAUY ','TFLUX   ','SFLUX   ','oceFreez',
(PID.TID 0000.0001) >                 'TRELAX  ','SRELAX  ',
(PID.TID 0000.0001) >   levels(1,1) = 1.,
(PID.TID 0000.0001) >   filename(1) = 'surfDiag',
(PID.TID 0000.0001) >  frequency(1) = 1555200000.,
(PID.TID 0000.0001) >   fields(1,2) = 'UVEL    ','VVEL    ','WVEL    ','PHIHYD  ',
(PID.TID 0000.0001) >                 'VVELMASS','UVELMASS','WVELSQ  ',
(PID.TID 0000.0001) >                 'THETA   ','UTHMASS ','VTHMASS ','WTHMASS ',
(PID.TID 0000.0001) >                 'SALT    ','USLTMASS','VSLTMASS','WSLTMASS',
(PID.TID 0000.0001) ># do not specify levels => all levels are selected
(PID.TID 0000.0001) >   filename(2) = 'dynDiag',
(PID.TID 0000.0001) >  frequency(2) = 1555200000.,
(PID.TID 0000.0001) >   fields(1,3) = 'DRHODR  ','RHOAnoma','CONVADJ ',
(PID.TID 0000.0001) >                 'GM_PsiX ','GM_PsiY ',
(PID.TID 0000.0001) >                 'GM_Kwx  ','GM_Kwy  ','GM_Kwz  ',
(PID.TID 0000.0001) >                 'GM_Kux  ','GM_Kvy  ',
(PID.TID 0000.0001) >                 'GM_Kuz  ','GM_Kvz  ',
(PID.TID 0000.0001) >#- disable this output list by commenting out the file name
(PID.TID 0000.0001) >#  filename(3) = 'oceDiag',
(PID.TID 0000.0001) >  frequency(3) = 1555200000.,
(PID.TID 0000.0001) >   fields(1,4) = 'ADVx_TH ','ADVy_TH ','ADVr_TH ',
(PID.TID 0000.0001) >                 'DFxE_TH ','DFyE_TH ','DFrE_TH ',
(PID.TID 0000.0001) >                 'DFrI_TH ',
(PID.TID 0000.0001) >#                'ADVx_SLT',
(PID.TID 0000.0001) >#  filename(4) = 'flxDiag',
(PID.TID 0000.0001) >  frequency(4) = 1728000.,
(PID.TID 0000.0001) >   fields(1,5) = 'SI_Fract','SI_Thick','SI_SnowH',
(PID.TID 0000.0001) >                 'SI_Tsrf ','SI_Tice1','SI_Tice2',
(PID.TID 0000.0001) >                 'SI_Qice1','SI_Qice2','SIsnwAge',
(PID.TID 0000.0001) >                 'SIsnwPrc','SIalbedo',
(PID.TID 0000.0001) >                 'SIflx2oc','SIfrw2oc','SIsaltFx',
(PID.TID 0000.0001) >                 'SIflxAtm','SIfrwAtm',
(PID.TID 0000.0001) >#                'SItOcMxL','SIsOcMxL',
(PID.TID 0000.0001) >   filename(5) = 'thSIceDiag',
(PID.TID 0000.0001) >  frequency(5) = 1555200000.,
(PID.TID 0000.0001) > averagingFreq(5) = 2592000.,
(PID.TID 0000.0001) >   repeatCycle(5) = 12,
(PID.TID 0000.0001) >#--- to check conservation of Volume, Heat & Salt (with z*+realFW+AB_2):
(PID.TID 0000.0001) >   fields(1,6) = 'ETAN    ','oceFWflx',
(PID.TID 0000.0001) >   filename(6) = 'surfInst',
(PID.TID 0000.0001) >  frequency(6) = -777600.,
(PID.TID 0000.0001) >  timePhase(6) = 0.,
(PID.TID 0000.0001) >   fields(1,7) = 'ETAN    ',
(PID.TID 0000.0001) >   filename(7) = 'etaInst',
(PID.TID 0000.0001) >  frequency(7) = -777600.,
(PID.TID 0000.0001) >  timePhase(7) = 86400.,
(PID.TID 0000.0001) >   fields(1,8) = 'THETA   ','SALT    ',
(PID.TID 0000.0001) >   filename(8) = 'dynInst',
(PID.TID 0000.0001) >  frequency(8) = -777600.,
(PID.TID 0000.0001) >  timePhase(8) = 0.,
(PID.TID 0000.0001) > &
(PID.TID 0000.0001) >
(PID.TID 0000.0001) ># Parameter for Diagnostics of per level statistics:
(PID.TID 0000.0001) >#-----------------
(PID.TID 0000.0001) ># for each output-stream:
(PID.TID 0000.0001) >#  stat_fname(n) : prefix of the output file name (only 8.c long) for outp.stream n
(PID.TID 0000.0001) >#  stat_freq(n):< 0 : write snap-shot output every |stat_freq| seconds
(PID.TID 0000.0001) >#               > 0 : write time-average output every stat_freq seconds
(PID.TID 0000.0001) >#  stat_phase(n)    : write at time = stat_phase + multiple of |stat_freq|
(PID.TID 0000.0001) >#  stat_region(:,n) : list of "regions" (default: 1 region only=global)
(PID.TID 0000.0001) >#  stat_fields(:,n) : list of diagnostics fields (8.c) (see "available_diagnostics.log"
(PID.TID 0000.0001) >#                 file for the list of all available diag. in this particular config)
(PID.TID 0000.0001) >#-----------------
(PID.TID 0000.0001) > &DIAG_STATIS_PARMS
(PID.TID 0000.0001) >#- regional mask: 3 lat. band: 1 : y <= -24 ; 2 : -24<y<24 ; 3 : 24 <= y
(PID.TID 0000.0001) > diagSt_regMaskFile='regMask_lat24.bin',
(PID.TID 0000.0001) > nSetRegMskFile=1,
(PID.TID 0000.0001) > set_regMask(1)= 1,  1,  1,
(PID.TID 0000.0001) > val_regMask(1)= 1., 2., 3.,
(PID.TID 0000.0001) >#---
(PID.TID 0000.0001) > stat_fields(1,1)= 'ETAN    ','ETANSQ  ','DETADT2 ',
(PID.TID 0000.0001) >#                  'UVEL    ','VVEL    ','WVEL    ',
(PID.TID 0000.0001) >                   'THETA   ','SALT    ','CONVADJ ',
(PID.TID 0000.0001) >    stat_fname(1)= 'dynStDiag',
(PID.TID 0000.0001) >     stat_freq(1)= 864000.,
(PID.TID 0000.0001) >#--- to check conservation of Volume, Heat & Salt (with z*+realFW+AB_2):
(PID.TID 0000.0001) > stat_fields(1,2)= 'oceTAUX ','oceTAUY ','TRELAX  ','SRELAX  ',
(PID.TID 0000.0001) >                   'surForcT','surForcS','TFLUX   ','SFLUX   ',
(PID.TID 0000.0001) >                   'oceQnet ','oceSflux','oceFWflx',
(PID.TID 0000.0001) >    stat_fname(2)= 'surfStDiag',
(PID.TID 0000.0001) >     stat_freq(2)= 777600.,
(PID.TID 0000.0001) >    stat_phase(2)= 86400.,
(PID.TID 0000.0001) > stat_fields(1,3)= 'ETAN    ','THETA   ','SALT    ',
(PID.TID 0000.0001) >    stat_fname(3)= 'instStDiag',
(PID.TID 0000.0001) >     stat_freq(3)= -777600.,
(PID.TID 0000.0001) >    stat_phase(3)= 86400.,
(PID.TID 0000.0001) >#---
(PID.TID 0000.0001) > stat_fields(1,5)= 'SI_Fract','SI_Thick','SI_SnowH',
(PID.TID 0000.0001) >                   'SI_Tsrf ','SI_Tice1','SI_Tice2',
(PID.TID 0000.0001) >                   'SI_Qice1','SI_Qice2',
(PID.TID 0000.0001) >                   'SIsnwPrc','SIalbedo','SIsnwAge',
(PID.TID 0000.0001) >                   'SIflx2oc','SIfrw2oc','SIsaltFx',
(PID.TID 0000.0001) >                   'SIflxAtm','SIfrwAtm',
(PID.TID 0000.0001) >#                  'SItOcMxL','SIsOcMxL',
(PID.TID 0000.0001) > stat_region(1,5)= 1, 3, 0,
(PID.TID 0000.0001) >    stat_fname(5)= 'thSIceStDiag',
(PID.TID 0000.0001) >     stat_freq(5)= 864000.,
(PID.TID 0000.0001) > &
(PID.TID 0000.0001) >
(PID.TID 0000.0001) 
(PID.TID 0000.0001) S/R DIAGNOSTICS_READPARMS, read namelist "diagnostics_list": start
(PID.TID 0000.0001) S/R DIAGNOSTICS_READPARMS, read namelist "diagnostics_list": OK
(PID.TID 0000.0001) S/R DIAGNOSTICS_READPARMS, read namelist "DIAG_STATIS_PARMS": start
(PID.TID 0000.0001) S/R DIAGNOSTICS_READPARMS, read namelist "DIAG_STATIS_PARMS": OK
(PID.TID 0000.0001) -----------------------------------------------------
(PID.TID 0000.0001)  DIAGNOSTICS_READPARMS: active diagnostics summary:
(PID.TID 0000.0001) -----------------------------------------------------
(PID.TID 0000.0001) Creating Output Stream: surfDiag
(PID.TID 0000.0001) Output Frequency:1555200000.000000 ; Phase:          0.000000
(PID.TID 0000.0001)  Averaging Freq.:1555200000.000000 , Phase:          0.000000 , Cycle:  1
(PID.TID 0000.0001)  Levels:       1.
(PID.TID 0000.0001) Fields:    ETAN     ETANSQ   DETADT2  PHIBOT   PHIBOTSQ oceTAUX  oceTAUY  TFLUX    SFLUX    oceFreez
(PID.TID 0000.0001) Fields:    TRELAX   SRELAX
(PID.TID 0000.0001) Creating Output Stream: dynDiag
(PID.TID 0000.0001) Output Frequency:1555200000.000000 ; Phase:          0.000000
(PID.TID 0000.0001)  Averaging Freq.:1555200000.000000 , Phase:          0.000000 , Cycle:  1
(PID.TID 0000.0001)  Levels:    will be set later
(PID.TID 0000.0001) Fields:    UVEL     VVEL     WVEL     PHIHYD   VVELMASS UVELMASS WVELSQ   THETA    UTHMASS  VTHMASS
(PID.TID 0000.0001) Fields:    WTHMASS  SALT     USLTMASS VSLTMASS WSLTMASS
(PID.TID 0000.0001) Creating Output Stream: thSIceDiag
(PID.TID 0000.0001) Output Frequency:1555200000.000000 ; Phase:          0.000000
(PID.TID 0000.0001)  Averaging Freq.:   2592000.000000 , Phase:          0.000000 , Cycle: 12
(PID.TID 0000.0001)  Levels:    will be set later
(PID.TID 0000.0001) Fields:    SI_Fract SI_Thick SI_SnowH SI_Tsrf  SI_Tice1 SI_Tice2 SI_Qice1 SI_Qice2 SIsnwAge SIsnwPrc
(PID.TID 0000.0001) Fields:    SIalbedo SIflx2oc SIfrw2oc SIsaltFx SIflxAtm SIfrwAtm
(PID.TID 0000.0001) Creating Output Stream: surfInst
(PID.TID 0000.0001) Output Frequency:   -777600.000000 ; Phase:          0.000000
(PID.TID 0000.0001)  Averaging Freq.:         0.000000 , Phase:          0.000000 , Cycle:  1
(PID.TID 0000.0001)  Levels:    will be set later
(PID.TID 0000.0001) Fields:    ETAN     oceFWflx
(PID.TID 0000.0001) Creating Output Stream: etaInst
(PID.TID 0000.0001) Output Frequency:   -777600.000000 ; Phase:      86400.000000
(PID.TID 0000.0001)  Averaging Freq.:         0.000000 , Phase:          0.000000 , Cycle:  1
(PID.TID 0000.0001)  Levels:    will be set later
(PID.TID 0000.0001) Fields:    ETAN
(PID.TID 0000.0001) Creating Output Stream: dynInst
(PID.TID 0000.0001) Output Frequency:   -777600.000000 ; Phase:          0.000000
(PID.TID 0000.0001)  Averaging Freq.:         0.000000 , Phase:          0.000000 , Cycle:  1
(PID.TID 0000.0001)  Levels:    will be set later
(PID.TID 0000.0001) Fields:    THETA    SALT
(PID.TID 0000.0001) -----------------------------------------------------
(PID.TID 0000.0001)  DIAGNOSTICS_READPARMS: statistics diags. summary:
(PID.TID 0000.0001) Creating Stats. Output Stream: dynStDiag
(PID.TID 0000.0001) Output Frequency:    864000.000000 ; Phase:          0.000000
(PID.TID 0000.0001)  Regions :    0
(PID.TID 0000.0001)  Fields:    ETAN     ETANSQ   DETADT2  THETA    SALT     CONVADJ
(PID.TID 0000.0001) Creating Stats. Output Stream: surfStDiag
(PID.TID 0000.0001) Output Frequency:    777600.000000 ; Phase:      86400.000000
(PID.TID 0000.0001)  Regions :    0
(PID.TID 0000.0001)  Fields:    oceTAUX  oceTAUY  TRELAX   SRELAX   surForcT surForcS TFLUX    SFLUX    oceQnet  oceSflux oceFWflx
(PID.TID 0000.0001) Creating Stats. Output Stream: instStDiag
(PID.TID 0000.0001) Output Frequency:   -777600.000000 ; Phase:      86400.000000
(PID.TID 0000.0001)  Regions :    0
(PID.TID 0000.0001)  Fields:    ETAN     THETA    SALT
(PID.TID 0000.0001) Creating Stats. Output Stream: thSIceStDiag
(PID.TID 0000.0001) Output Frequency:    864000.000000 ; Phase:          0.000000
(PID.TID 0000.0001)  Regions :    0  1  3
(PID.TID 0000.0001)  Fields:    SI_Fract SI_Thick SI_SnowH SI_Tsrf  SI_Tice1 SI_Tice2 SI_Qice1 SI_Qice2 SIsnwPrc SIalbedo SIsnwAge SIflx2oc SIfrw2oc SIsaltFx SIflxAtm SIfrwAtm
(PID.TID 0000.0001) -----------------------------------------------------
(PID.TID 0000.0001) 
(PID.TID 0000.0001) SET_PARMS: done
(PID.TID 0000.0001) Enter INI_VERTICAL_GRID: setInterFDr=    T ; setCenterDr=    F
(PID.TID 0000.0001) tile:   1 ; Read from file grid_cs32.face001.bin
(PID.TID 0000.0001)   => xC yC dxF dyF rA xG yG dxV dyU rAz dxC dyC rAw rAs dxG dyG AngleCS AngleSN
(PID.TID 0000.0001) tile:   2 ; Read from file grid_cs32.face002.bin
(PID.TID 0000.0001)   => xC yC dxF dyF rA xG yG dxV dyU rAz dxC dyC rAw rAs dxG dyG AngleCS AngleSN
(PID.TID 0000.0001) tile:   3 ; Read from file grid_cs32.face003.bin
(PID.TID 0000.0001)   => xC yC dxF dyF rA xG yG dxV dyU rAz dxC dyC rAw rAs dxG dyG AngleCS AngleSN
(PID.TID 0000.0001) tile:   4 ; Read from file grid_cs32.face004.bin
(PID.TID 0000.0001)   => xC yC dxF dyF rA xG yG dxV dyU rAz dxC dyC rAw rAs dxG dyG AngleCS AngleSN
(PID.TID 0000.0001) tile:   5 ; Read from file grid_cs32.face005.bin
(PID.TID 0000.0001)   => xC yC dxF dyF rA xG yG dxV dyU rAz dxC dyC rAw rAs dxG dyG AngleCS AngleSN
(PID.TID 0000.0001) tile:   6 ; Read from file grid_cs32.face006.bin
(PID.TID 0000.0001)   => xC yC dxF dyF rA xG yG dxV dyU rAz dxC dyC rAw rAs dxG dyG AngleCS AngleSN
(PID.TID 0000.0001) %MON XC_max                       =   1.7854351589505E+02
(PID.TID 0000.0001) %MON XC_min                       =  -1.7854351589505E+02
(PID.TID 0000.0001) %MON XC_mean                      =  -4.6999441375798E-15
(PID.TID 0000.0001) %MON XC_sd                        =   1.0355545336287E+02
(PID.TID 0000.0001) %MON XG_max                       =   1.8000000000000E+02
(PID.TID 0000.0001) %MON XG_min                       =  -1.7708797161002E+02
(PID.TID 0000.0001) %MON XG_mean                      =   1.8796250616675E+00
(PID.TID 0000.0001) %MON XG_sd                        =   1.0410625309932E+02
(PID.TID 0000.0001) %MON DXC_max                      =   3.2375185836900E+05
(PID.TID 0000.0001) %MON DXC_min                      =   1.1142031410131E+05
(PID.TID 0000.0001) %MON DXC_mean                     =   2.8605689051214E+05
(PID.TID 0000.0001) %MON DXC_sd                       =   3.4042087138252E+04
(PID.TID 0000.0001) %MON DXF_max                      =   3.2369947500827E+05
(PID.TID 0000.0001) %MON DXF_min                      =   1.2020820513318E+05
(PID.TID 0000.0001) %MON DXF_mean                     =   2.8605437324820E+05
(PID.TID 0000.0001) %MON DXF_sd                       =   3.4050524252539E+04
(PID.TID 0000.0001) %MON DXG_max                      =   3.2375195872773E+05
(PID.TID 0000.0001) %MON DXG_min                      =   1.0098378008791E+05
(PID.TID 0000.0001) %MON DXG_mean                     =   2.8603818508931E+05
(PID.TID 0000.0001) %MON DXG_sd                       =   3.4140406908005E+04
(PID.TID 0000.0001) %MON DXV_max                      =   3.2380418162750E+05
(PID.TID 0000.0001) %MON DXV_min                      =   8.0152299824136E+04
(PID.TID 0000.0001) %MON DXV_mean                     =   2.8603970633619E+05
(PID.TID 0000.0001) %MON DXV_sd                       =   3.4145142117723E+04
(PID.TID 0000.0001) %MON YC_max                       =   8.7940663871962E+01
(PID.TID 0000.0001) %MON YC_min                       =  -8.7940663871962E+01
(PID.TID 0000.0001) %MON YC_mean                      =   0.0000000000000E+00
(PID.TID 0000.0001) %MON YC_sd                        =   3.8676242969072E+01
(PID.TID 0000.0001) %MON YG_max                       =   9.0000000000000E+01
(PID.TID 0000.0001) %MON YG_min                       =  -9.0000000000000E+01
(PID.TID 0000.0001) %MON YG_mean                      =  -1.2094344438470E-15
(PID.TID 0000.0001) %MON YG_sd                        =   3.9086186579984E+01
(PID.TID 0000.0001) %MON DYC_max                      =   3.2375185836900E+05
(PID.TID 0000.0001) %MON DYC_min                      =   1.1142031410131E+05
(PID.TID 0000.0001) %MON DYC_mean                     =   2.8605689051214E+05
(PID.TID 0000.0001) %MON DYC_sd                       =   3.4042087138252E+04
(PID.TID 0000.0001) %MON DYF_max                      =   3.2369947500827E+05
(PID.TID 0000.0001) %MON DYF_min                      =   1.2020820513318E+05
(PID.TID 0000.0001) %MON DYF_mean                     =   2.8605437324820E+05
(PID.TID 0000.0001) %MON DYF_sd                       =   3.4050524252539E+04
(PID.TID 0000.0001) %MON DYG_max                      =   3.2375195872773E+05
(PID.TID 0000.0001) %MON DYG_min                      =   1.0098378008791E+05
(PID.TID 0000.0001) %MON DYG_mean                     =   2.8603818508931E+05
(PID.TID 0000.0001) %MON DYG_sd                       =   3.4140406908005E+04
(PID.TID 0000.0001) %MON DYU_max                      =   3.2380418162750E+05
(PID.TID 0000.0001) %MON DYU_min                      =   8.0152299824136E+04
(PID.TID 0000.0001) %MON DYU_mean                     =   2.8603970633619E+05
(PID.TID 0000.0001) %MON DYU_sd                       =   3.4145142117723E+04
(PID.TID 0000.0001) %MON RA_max                       =   1.0479260248419E+11
(PID.TID 0000.0001) %MON RA_min                       =   1.4019007022556E+10
(PID.TID 0000.0001) %MON RA_mean                      =   8.2992246709265E+10
(PID.TID 0000.0001) %MON RA_sd                        =   1.7509089299457E+10
(PID.TID 0000.0001) %MON RAW_max                      =   1.0480965274559E+11
(PID.TID 0000.0001) %MON RAW_min                      =   1.2166903467143E+10
(PID.TID 0000.0001) %MON RAW_mean                     =   8.2992246709235E+10
(PID.TID 0000.0001) %MON RAW_sd                       =   1.7481917919656E+10
(PID.TID 0000.0001) %MON RAS_max                      =   1.0480965274559E+11
(PID.TID 0000.0001) %MON RAS_min                      =   1.2166903467143E+10
(PID.TID 0000.0001) %MON RAS_mean                     =   8.2992246709235E+10
(PID.TID 0000.0001) %MON RAS_sd                       =   1.7481917919656E+10
(PID.TID 0000.0001) %MON RAZ_max                      =   1.0484349334619E+11
(PID.TID 0000.0001) %MON RAZ_min                      =   8.8317900612505E+09
(PID.TID 0000.0001) %MON RAZ_mean                     =   8.2992246709235E+10
(PID.TID 0000.0001) %MON RAZ_sd                       =   1.7482297311044E+10
(PID.TID 0000.0001) %MON AngleCS_max                  =   9.9999994756719E-01
(PID.TID 0000.0001) %MON AngleCS_min                  =  -9.9968286884824E-01
(PID.TID 0000.0001) %MON AngleCS_mean                 =   3.3078850405987E-01
(PID.TID 0000.0001) %MON AngleCS_sd                   =   6.2496317138039E-01
(PID.TID 0000.0001) %MON AngleSN_max                  =   9.9968286884824E-01
(PID.TID 0000.0001) %MON AngleSN_min                  =  -9.9999994756719E-01
(PID.TID 0000.0001) %MON AngleSN_mean                 =  -3.3078850405987E-01
(PID.TID 0000.0001) %MON AngleSN_sd                   =   6.2496317138039E-01
(PID.TID 0000.0001)  MDS_READ_FIELD: opening global file: bathy_Hmin50.bin
(PID.TID 0000.0001) // =======================================================
(PID.TID 0000.0001) // Field Model R_low (ini_masks_etc) at iteration          1
(PID.TID 0000.0001) // CMIN =         -5.200000000000000E+03
(PID.TID 0000.0001) // CMAX =         -5.000000000000000E+01
(PID.TID 0000.0001) // CINT =          1.907407407407407E+02
(PID.TID 0000.0001) // SYMBOLS (CMIN->CMAX): -abcdefghijklmnopqrstuvwxyz+
(PID.TID 0000.0001) //                  0.0: .
(PID.TID 0000.0001) // RANGE I (Lo:Hi:Step):(  -2: 195:   1)
(PID.TID 0000.0001) // RANGE J (Lo:Hi:Step):(  35:  -2:  -1)
(PID.TID 0000.0001) // RANGE K (Lo:Hi:Step):(   1:   1:   1)
(PID.TID 0000.0001) // =======================================================
(PID.TID 0000.0001) K =   1
(PID.TID 0000.0001) //                I=7       I=17      I=27      I=31      I=41      I=51      I=61      I=65      I=75      I=85      I=95      I=99      I=109     I=119     I=129     I=133     I=143     I=153     I=163     I=167     I=177     I=187
(PID.TID 0000.0001) // |--J--|210123456|890123456|890123456|890123450|234567890|234567890|234567890|234567234|678901234|678901234|678901234|678945678|012345678|012345678|012345678|016789012|456789012|456789012|456789012|890123456|890123456|890123456|89012345
(PID.TID 0000.0001) //     35 cac--cbbeefjkfefw+..........zpu......................................kqnzrqq-b-da----bbbbfu..............fdddccaaddccaadcdddcbbbbcdddcccdffffghgffffddefligfiljfba---aafddehy...pwvlhfffcbagfccbagfcceeffffjlkjgaa---bfvheeln-aesaaa
(PID.TID 0000.0001) //     34 --ba-abcehjnldcclz+........spps.....................................vkqn+xnnabbcbba--aabfu+..............hcbaaaaacaaaaaccdccbaaabbddddccdffffghfeeeeedefiffefilhfcaaaacgceei.......zomggfcaecbfcaecbbccddefilihecbaacbaajfega-aesfee
(PID.TID 0000.0001) //     33 -abbbccceiomkfdbbc+.......+s........................................xsrxzz+zdcddb-----adu+...............hcbaa--acaa--accddba--bbbddddccdfffhhgfeeddccedfeddfgikhfffdfgccffw........zohhgebbaagebbaaaaaccdfhlhfefdcccaabjefbaaafooss
(PID.TID 0000.0001) //     32 -bddefhhkqqlgfaakqz..v.+..+.......................................++..u+....gfdba----adu+................kdcaaa-acaaa-accdcb---bbbcdddddefffggfeeedccccccbbdcdfgghhiihcbeiw.........+ynjgebaaagebaaaa-aacccfikkhecccbbbaaabaadfklnqp
(PID.TID 0000.0001) //     31 bbcffijnpnqneaaat..umrr+s.z.......................................+++++.ztsvifeb--dfdfu+................+lkdca--abca--abcccb---bbbbddddeffflhfeeeecbbbbaa-abbacbcdceffbbfw+..........++ujfbaaajfbaaa----aacffiljgfffcca--adfikkiihhh
(PID.TID 0000.0001) //     30 -adgillkkkifcadcx.ymmqzqikvnnps...................................+++++wmegtlifcacdlqx+++...............mligea---aea---abbbb---abaaddddeedkmeddefdbbbaaac---b--aaaaabaabm..............+viba--viba-------acdefinmlgiieb-chnnnmlmlgff
(PID.TID 0000.0001) //     29 -cfiljigfjd--efdozy...+ximpnnuz....................................+++yqddhpljhcbbchz+......++.........+mmhffc----fc----aaba------acdddcbcineddgdbaaa---dd--a------aa-bfz...............+qe---+qe---aa---aedeegknmlgiigcdfhpokkimlfd
(PID.TID 0000.0001) //     28 abgkhfcccea-bdei........t..........................................++zwgfcfkknhccbbhwwy.....+++........+njfeed----ed-----aa-------abddcabcnfddegcaaa----lf------------dk+................+ja--.+ja------bffdddehfd--bedaacfhpnligiih
(PID.TID 0000.0001) //     27 acghfbaaaa-achmy............................+++....................++vnbbbclkpkeeecflmqxy....++........+lhfeecc---ecc------------aaadcbabcfhddccba------qd-----------irw.................++e--.++e-----mhmijddda--------ahhfiokhedeg
(PID.TID 0000.0001) //     26 adhfca-----bfiv.............................++sy...................+tq-fdbblknqiheddefhiksz++++........zkhfdccb---ccb------------aabdcaaaacfddbca-------xfa-abb-----vvv...................+wa-..+wa---mlmkijhc----------cjjffiheb-aa
(PID.TID 0000.0001) //     25 achfa------ch+..................w.....w.......njo+................+x-----bcgiqqojfefiiiijmy.++.........zkhfdbaa---baa-------daa---acccaaaacccca--------a+udaabbb----tei...................++qd..++qdeqnghiljcaaaaidaa----beedeeca--b
(PID.TID 0000.0001) //     24 aeifa--acbcei...................w.....w.......likn+.....++.....++znpa----bbdfnlmnjhinlksssw............qhfeca-----a--------addc--aeffaaaaaaccb-a----a--b++udbbaba---ven....................++x...++xywnfgllcbbabegkecba----ddddcaacd
(PID.TID 0000.0001) //     23 bfida-aabchjk...................zz....zz.....nhhijz....tqq.....+ujgzgd---abccegklkkknols..xuu..........zgfdba-----a--------bcd---affaaadffabbb-----aa-bc+.+ufb-----l.gx...........s.........++....++zzkfilfccccoz..ulkcd---bccnfdddd
(PID.TID 0000.0001) //     22 afhfaa---bfgi....................zz..r.zz..rnjffggm...nlmn+....+sffzya--aabcaaffdfhimrmp...yuu.++.......zudba-----a--------adc---dda-adffe-aa--------aaa...+ufc-baaqvhh..........dcfeeh......+.....++zggqvifefhz......zobbaccfwuffee
(PID.TID 0000.0001) //     21 abcgca----abe.....................ysst..ysstlgeeeeoz..ijklt+....lfjzzf---adfdaadcehllotq....yy+++zzs.....+zcba----ba-------cdd--aaa----df------------aaa....+upjdcy.vohq.......+idcdfeeefwz...fwz....+hhn.vklox.........gdccfjwrigff
(PID.TID 0000.0001) //     20 bbbcgfcaa-aae+.......................l.....lcgfdddhq.+hiilnz++.+oquxyz--adgkcaabcfmtooyxz......+yuiiy....++gb-----b--------ddcca-a-----acbaa------bbaaaa.......ywxy.lulo.lv...kcdgddffefffilyxffilyx+fffk.+xyyy.........mgeimvskjkll
(PID.TID 0000.0001) //     19 mfeccdghfeegcbt......................a.....aafifccgnrzgghjry.+++sr+lq.--edfkxtkblwnnsp.vv......skhggt...+++t---------------bdaf---------edd-------adlaaa..........vnhzy.tllqiedccdhggfggffiiggffiiggfcbdgy..yz..........xigqophijkki
(PID.TID 0000.0001) //     18 .wifedfkhfegbbcivlqfoz..............ja....jaacfihggokeeffgt..++++..hhlfdeddk..qcz+.zwxtsttz..ysrkhot++++++zig-----g--------b--f---------egqqqaa----frb--........+kkrhw.vqmlnieddcdehgggffgigedfgigedbaaceiy.............zilrddefikkh
(PID.TID 0000.0001) //     17 .+wfeefikhgcbbccaaacgn.............ica...icaaccfihfoedddeedy..++...nnqwgfeeky.z++..+zsjjllllljllpjos+++.+zhhi-----i-----e-----ea--------foqqoqqo--hlwgea........+nk+..xiioonhfefddegihhghigfdbhigfdbaaabdgx..............nheddefiklh
(PID.TID 0000.0001) //     16 ...wiheddeccdfhfbabdfl............jdba..jdbaddddgifkccccdccd+.++..++ynvz.tkkmu....++zyslllllkhggkmpy++...ihhi-----i-----ea---feb-----a-acnoohfghknvmwnuc.........qhu..hhhkojgffgeefghihhiieedbiieedbaaabcdy..............ygddeghiljg
(PID.TID 0000.0001) //     15 .....ylea--acfihebcbbes..........sfcbb.sfcbbngfffigcaaabdbcac+.+++++zgmpx...mm....++..zslwz.yhhhhnz+++...rhgc----ac----ab----ige----acaaalllkddfiy..yswx.........thk.xgghiligfghfefhhhhiiheedciheedcdbbabdmz.............zfdeghikkif
(PID.TID 0000.0001) //     14 .......c---acgkhdcc--di..........ofddc.ofddchohffikaaaaabaaa-aw+.+ysnggox++.qrv..........yzzzzrjil+++....qhgd-----d-----a-----i---cccdeabkklldinqssy..xx..........+y.uhghikihgfghefgihhhgeeeeegeeeeeddbaadhw.............nedeghjjhfe
(PID.TID 0000.0001) //     13 ......+b----cfkhec---afz.........nhfdf.nhfdffholghkaaaaaba-a---flkkuswyy++++zr...........zzzzz++ry++......yd--------------------aeecdeidfkkqnqlmqquukqqm.............iihiijjhfefgefhjihiffgggfffgggffecaabelx...........zjecehijhfec
(PID.TID 0000.0001) //     12 ......ec----chjhec---ag..........skiqd.skiqddeiiiifaaabae--a---dd--iu+++.+++q++..........+z+++++.+++....++.s------------------a-ceccdejhlllkqlkklssiccde............wjkkkjjjigeefffgjiiighiiihghiiihhhdaabdffghtxx......mfccehjiffdb
(PID.TID 0000.0001) //     11 .....pdca--achlheba--ai..........nkn.f.nkn.fdemijidaaaabi-------a--q+....++.is...........+++++..........+yyza----ba----b-----a--ccccddkhieekkossssfbbbbc...........njjijhhihijhgggggjjjjijkkkkijkkkkjjhcaacddeegpy.....xfdccdhjgfdda
(PID.TID 0000.0001) //     10 .....wfdb--achlhea---an.........uos..duos..dcemikkfdcaabi-------equ+........k...........................zyvuq----cq----cc----a---dcfhkopqjeissrnpfbbcccd.........zslihhigghgijjihhhhkllkkkkkkjkkkkkjkkkedccdeeeeipz..zwhccbcdhgfddca
(PID.TID 0000.0001) //      9 .....vgec---bfikca--cjl+.......+nnv.+cnnv.+ccffhkkiddaadha-----as++.........vz++........................zxuuk-----k------a---a----djmqrrnlllsoiddcccccdj........+zjijhfgfggffhjkkkiillljihhghgihhghgihighdeeffgghimnnjgecbbcdgfeccba
(PID.TID 0000.0001) //      8 ....zleca---afjfca--hdfz.......vkky.jckky.jceddefijffdddhb--a-afv...........n..ss.........................+yku----ku--------------ejnpqqnninnritqdccchkm.......wihgghgeffffeefhijkjkljiigeeffegeeffefffhjhhikkklljklmhffeeeggfdcbaay
(PID.TID 0000.0001) //      7 ..+zohec--abcfkhecbchbdx.......qiht.faiht.faaaabdgijgfededcdcb-f+...........n...pz.........................+zu----zu--------------edefqgqddsz+......+yudm+....tiggfggfeeeefeeefiiiijkiihheddddheddddddddjjllliijhfkmmkkjjhijgdcba--q
(PID.TID 0000.0001) //      6 .+yomfddcaabefkifdchaadt......uqdeisc-deisc----dfefgifffkklldc--v...........p...pp.........................v.x----.x---------a----fbbpqgzenx+........zdbllkhhfffffffgfeeeeeeeefhhhhijihhffddcbffddcbbbbdhhiihedddb-cfhhhjjjieca----+
(PID.TID 0000.0001) //      5 .+nhgffkghccfhkhffgdaackz....uoibcimlabcimlaaacfbddfjjhijeehf-a-c...........s...su.........................qk.yi--k.yi-------gha-fjddqs+xkrz.........q-bikdccdeeeeeeedddedddddgghhhhjhhgffcbbaffcbbaaaaddfegecca----dfeefhfgdb-----+
(PID.TID 0000.0001) //      4 +ujhgfllfhdffhkfffca-aady...llnabdopfcbdopfcbdgdbcdehlihgfddc--ms..........................................okn.zd-kn.zd---eciiiicfkeeqy.ysz..........n-agdcbbdeddedcdcccdddcddffggghiggfffdbaaffdbaa---acdcccba--abvfedeffdcca----b+
(PID.TID 0000.0001) //      3 vjggfcceeffffjlkjgaa---bfvheeln-aesphfaesphfdhgabddeflihhgfecbaaayq+++++...................................kqnz.vtqnz.vtpkllgdccfkkkkk..++..........+g--ecaaadcdddcbbbbcdddcccdffffghgffffdcaaffdcaa----abcaaaa-acxxmecdjmdbba----r+
(PID.TID 0000.0001) //      2 ifeecbbccddefilihecbaacbaajfega-aesqhfaesqhffiea-cdeflkkljifeddcba---bry+.................................vkqn+.sgqn+.sghfcbcbbbdgfdek.++++.........+l--aaaaaccdccbaaabbddddccdffffghfeeeeecbaeeecba------baaaa-euwxqdbcdkud-----sy+
(PID.TID 0000.0001) //      1 bbbbaaaaaccdfhlhfefdcccaabjefbaaafonhgafonhglid--adfgkkkklkhffddca-----s++++..............................xsrxz.terxz.tedcbbbbaaadddet.++++.........+l----a-accddba--bbbddddccdfffhhgfeeddccbaddccba-------aaaabgns.qcbcchyzqngll++.
(PID.TID 0000.0001) //      0 aaaaaaa-aacccfikkhecccbbbaaabaadfkllilfkllilmgebaadfijjiiikjhffdcba-----lllg............................++..u+..zmu+..zmdfbd---a-aeef.xx+..........+++s-----accdcb---bbbcdddddefffggfeeedcccbbdcccbba----aa--alrwwy.kcbccc+...++++..
(PID.TID 0000.0001) //     -1 -aaaaa----aacffiljgfffcca--adfikkiikimkiikimiiheccfurkiffhijjigfecb-----l---............................+++++.z+.w+.z+.wqgbf-------dgzpoy+........+ys+yr-aa-abcccb---bbbbddddeffflhfeeeecbbcbbcbbcbbaa----a--bdflm.yuibbcc.......+..
(PID.TID 0000.0001) //     -2 -aaa-------acdefinmlgiieb-chnnnmlmlfkllmlfklklkhednwwsheeghhijjgfdca----g---............................+++++wmu+++wmu++ywn--------fwvmgy+........+r-.++abc--abbbb---abaaddddeedkmeddefdbbbdcbbbbdcbaa-------ba-hv.susfbcc.......+..
(PID.TID 0000.0001) // =======================================================
(PID.TID 0000.0001) // END OF FIELD                                          =
(PID.TID 0000.0001) // =======================================================
(PID.TID 0000.0001) 
(PID.TID 0000.0001) // =======================================================
(PID.TID 0000.0001) // Field Model Ro_surf (ini_masks_etc) at iteration          1
(PID.TID 0000.0001) // CMIN =         -7.105427357601002E-15
(PID.TID 0000.0001) // CMAX =         -7.105427357601002E-15
(PID.TID 0000.0001) // CINT =          0.000000000000000E+00
(PID.TID 0000.0001) // SYMBOLS (CMIN->CMAX): -abcdefghijklmnopqrstuvwxyz+
(PID.TID 0000.0001) //                  0.0: .
(PID.TID 0000.0001) // RANGE I (Lo:Hi:Step):(  -2: 195:   1)
(PID.TID 0000.0001) // RANGE J (Lo:Hi:Step):(  35:  -2:  -1)
(PID.TID 0000.0001) // RANGE K (Lo:Hi:Step):(   1:   1:   1)
(PID.TID 0000.0001) // =======================================================
(PID.TID 0000.0001) // =======================================================
(PID.TID 0000.0001) // END OF FIELD                                          =
(PID.TID 0000.0001) // =======================================================
(PID.TID 0000.0001) 
(PID.TID 0000.0001) // =======================================================
(PID.TID 0000.0001) // Field hFacC at iteration          1
(PID.TID 0000.0001) // CMIN =          1.000000000000000E+00
(PID.TID 0000.0001) // CMAX =          1.000000000000000E+00
(PID.TID 0000.0001) // CINT =          0.000000000000000E+00
(PID.TID 0000.0001) // SYMBOLS (CMIN->CMAX): -abcdefghijklmnopqrstuvwxyz+
(PID.TID 0000.0001) //                  0.0: .
(PID.TID 0000.0001) // RANGE I (Lo:Hi:Step):(  -2: 195:   1)
(PID.TID 0000.0001) // RANGE J (Lo:Hi:Step):(  35:  -2:  -1)
(PID.TID 0000.0001) // RANGE K (Lo:Hi:Step):(   1:   1:   1)
(PID.TID 0000.0001) // =======================================================
(PID.TID 0000.0001) // =======================================================
(PID.TID 0000.0001) // END OF FIELD                                          =
(PID.TID 0000.0001) // =======================================================
(PID.TID 0000.0001) 
(PID.TID 0000.0001) // =======================================================
(PID.TID 0000.0001) // Field hFacW at iteration          1
(PID.TID 0000.0001) // CMIN =          1.000000000000000E+00
(PID.TID 0000.0001) // CMAX =          1.000000000000000E+00
(PID.TID 0000.0001) // CINT =          0.000000000000000E+00
(PID.TID 0000.0001) // SYMBOLS (CMIN->CMAX): -abcdefghijklmnopqrstuvwxyz+
(PID.TID 0000.0001) //                  0.0: .
(PID.TID 0000.0001) // RANGE I (Lo:Hi:Step):(  -2: 195:   1)
(PID.TID 0000.0001) // RANGE J (Lo:Hi:Step):(  35:  -2:  -1)
(PID.TID 0000.0001) // RANGE K (Lo:Hi:Step):(   1:   1:   1)
(PID.TID 0000.0001) // =======================================================
(PID.TID 0000.0001) // =======================================================
(PID.TID 0000.0001) // END OF FIELD                                          =
(PID.TID 0000.0001) // =======================================================
(PID.TID 0000.0001) 
(PID.TID 0000.0001) // =======================================================
(PID.TID 0000.0001) // Field hFacS at iteration          1
(PID.TID 0000.0001) // CMIN =          1.000000000000000E+00
(PID.TID 0000.0001) // CMAX =          1.000000000000000E+00
(PID.TID 0000.0001) // CINT =          0.000000000000000E+00
(PID.TID 0000.0001) // SYMBOLS (CMIN->CMAX): -abcdefghijklmnopqrstuvwxyz+
(PID.TID 0000.0001) //                  0.0: .
(PID.TID 0000.0001) // RANGE I (Lo:Hi:Step):(  -2: 195:   1)
(PID.TID 0000.0001) // RANGE J (Lo:Hi:Step):(  35:  -2:  -1)
(PID.TID 0000.0001) // RANGE K (Lo:Hi:Step):(   1:   1:   1)
(PID.TID 0000.0001) // =======================================================
(PID.TID 0000.0001) // =======================================================
(PID.TID 0000.0001) // END OF FIELD                                          =
(PID.TID 0000.0001) // =======================================================
(PID.TID 0000.0001) 
(PID.TID 0000.0001) 
(PID.TID 0000.0001) // ===================================
(PID.TID 0000.0001) // GAD parameters :
(PID.TID 0000.0001) // ===================================
(PID.TID 0000.0001) tempAdvScheme =   /* Temp. Horiz.Advection scheme selector */
(PID.TID 0000.0001)                       2
(PID.TID 0000.0001)     ;
(PID.TID 0000.0001) tempVertAdvScheme =   /* Temp. Vert. Advection scheme selector */
(PID.TID 0000.0001)                       2
(PID.TID 0000.0001)     ;
(PID.TID 0000.0001) tempMultiDimAdvec =   /* use Muti-Dim Advec method for Temp */
(PID.TID 0000.0001)                   F
(PID.TID 0000.0001)     ;
(PID.TID 0000.0001) tempSOM_Advection = /* use 2nd Order Moment Advection for Temp */
(PID.TID 0000.0001)                   F
(PID.TID 0000.0001)     ;
(PID.TID 0000.0001) AdamsBashforthGt = /* apply Adams-Bashforth extrapolation on Gt */
(PID.TID 0000.0001)                   T
(PID.TID 0000.0001)     ;
(PID.TID 0000.0001) AdamsBashforth_T = /* apply Adams-Bashforth extrapolation on Temp */
(PID.TID 0000.0001)                   F
(PID.TID 0000.0001)     ;
(PID.TID 0000.0001) saltAdvScheme =   /* Salt. Horiz.advection scheme selector */
(PID.TID 0000.0001)                       2
(PID.TID 0000.0001)     ;
(PID.TID 0000.0001) saltVertAdvScheme =   /* Salt. Vert. Advection scheme selector */
(PID.TID 0000.0001)                       2
(PID.TID 0000.0001)     ;
(PID.TID 0000.0001) saltMultiDimAdvec =   /* use Muti-Dim Advec method for Salt */
(PID.TID 0000.0001)                   F
(PID.TID 0000.0001)     ;
(PID.TID 0000.0001) saltSOM_Advection = /* use 2nd Order Moment Advection for Salt */
(PID.TID 0000.0001)                   F
(PID.TID 0000.0001)     ;
(PID.TID 0000.0001) AdamsBashforthGs = /* apply Adams-Bashforth extrapolation on Gs */
(PID.TID 0000.0001)                   T
(PID.TID 0000.0001)     ;
(PID.TID 0000.0001) AdamsBashforth_S = /* apply Adams-Bashforth extrapolation on Salt */
(PID.TID 0000.0001)                   F
(PID.TID 0000.0001)     ;
(PID.TID 0000.0001) // ===================================
(PID.TID 0000.0001) ------------------------------------------------------------
(PID.TID 0000.0001) DIAGNOSTICS_SET_LEVELS: done
(PID.TID 0000.0001)  Total Nb of available Diagnostics: ndiagt= 211
(PID.TID 0000.0001)  write list of available Diagnostics to file: available_diagnostics.log
(PID.TID 0000.0001) SETDIAG: Allocate  1 x  1 Levels for Diagnostic #  23 ETAN
(PID.TID 0000.0001) SETDIAG: Allocate  1 x  1 Levels for Diagnostic #  24 ETANSQ
(PID.TID 0000.0001) SETDIAG: Allocate  1 x  1 Levels for Diagnostic #  25 DETADT2
(PID.TID 0000.0001) SETDIAG: Allocate  1 x  1 Levels for Diagnostic #  67 PHIBOT
(PID.TID 0000.0001) SETDIAG: Allocate  1 x  1 Levels for Diagnostic #  68 PHIBOTSQ
(PID.TID 0000.0001) SETDIAG: Allocate  1 x  1 Levels for Diagnostic #  71 oceTAUX
(PID.TID 0000.0001) SETDIAG: Allocate  1 x  1 Levels for Diagnostic #  72 oceTAUY
(PID.TID 0000.0001) SETDIAG: Allocate  1 x  1 Levels for Diagnostic #  84 TFLUX
(PID.TID 0000.0001) SETDIAG: Allocate  1 x  1 Levels for Diagnostic #  85 SFLUX
(PID.TID 0000.0001) SETDIAG: Allocate  1 x  1 Levels for Diagnostic #  79 oceFreez
(PID.TID 0000.0001) SETDIAG: Allocate  1 x  1 Levels for Diagnostic #  80 TRELAX
(PID.TID 0000.0001) SETDIAG: Allocate  1 x  1 Levels for Diagnostic #  81 SRELAX
(PID.TID 0000.0001) SETDIAG: Allocate 15 x  1 Levels for Diagnostic #  30 UVEL
(PID.TID 0000.0001) SETDIAG: Allocate 15 x  1 Levels for Diagnostic #  31 VVEL
(PID.TID 0000.0001) SETDIAG: Allocate 15 x  1 Levels for Diagnostic #  32 WVEL
(PID.TID 0000.0001) SETDIAG: Allocate 15 x  1 Levels for Diagnostic #  65 PHIHYD
(PID.TID 0000.0001) SETDIAG: Allocate 15 x  1 Levels for Diagnostic #  44 VVELMASS
(PID.TID 0000.0001) SETDIAG: Allocate 15 x  1 Levels for Diagnostic #  43 UVELMASS
(PID.TID 0000.0001) SETDIAG: Allocate 15 x  1 Levels for Diagnostic #  38 WVELSQ
(PID.TID 0000.0001) SETDIAG: Allocate 15 x  1 Levels for Diagnostic #  26 THETA
(PID.TID 0000.0001) SETDIAG: Allocate 15 x  1 Levels for Diagnostic #  46 UTHMASS
(PID.TID 0000.0001) SETDIAG: Allocate 15 x  1 Levels for Diagnostic #  47 VTHMASS
(PID.TID 0000.0001) SETDIAG: Allocate 15 x  1 Levels for Diagnostic #  48 WTHMASS
(PID.TID 0000.0001) SETDIAG: Allocate 15 x  1 Levels for Diagnostic #  27 SALT
(PID.TID 0000.0001) SETDIAG: Allocate 15 x  1 Levels for Diagnostic #  49 USLTMASS
(PID.TID 0000.0001) SETDIAG: Allocate 15 x  1 Levels for Diagnostic #  50 VSLTMASS
(PID.TID 0000.0001) SETDIAG: Allocate 15 x  1 Levels for Diagnostic #  51 WSLTMASS
(PID.TID 0000.0001) SETDIAG: Allocate  1 x 12 Levels for Diagnostic # 183 SI_Fract
(PID.TID 0000.0001) SETDIAG: Allocate  1 x 12 Levels for Diagnostic # 184 SI_Thick
(PID.TID 0000.0001) - NOTE - SETDIAG: Counter Diagnostic # 183 SI_Fract has already been set
(PID.TID 0000.0001) SETDIAG: Allocate  1 x 12 Levels for Diagnostic # 185 SI_SnowH
(PID.TID 0000.0001) - NOTE - SETDIAG: Counter Diagnostic # 183 SI_Fract has already been set
(PID.TID 0000.0001) SETDIAG: Allocate  1 x 12 Levels for Diagnostic # 186 SI_Tsrf
(PID.TID 0000.0001) - NOTE - SETDIAG: Counter Diagnostic # 183 SI_Fract has already been set
(PID.TID 0000.0001) SETDIAG: Allocate  1 x 12 Levels for Diagnostic # 187 SI_Tice1
(PID.TID 0000.0001) - NOTE - SETDIAG: Counter Diagnostic # 183 SI_Fract has already been set
(PID.TID 0000.0001) SETDIAG: Allocate  1 x 12 Levels for Diagnostic # 188 SI_Tice2
(PID.TID 0000.0001) - NOTE - SETDIAG: Counter Diagnostic # 183 SI_Fract has already been set
(PID.TID 0000.0001) SETDIAG: Allocate  1 x 12 Levels for Diagnostic # 189 SI_Qice1
(PID.TID 0000.0001) - NOTE - SETDIAG: Counter Diagnostic # 184 SI_Thick has already been set
(PID.TID 0000.0001) SETDIAG: Allocate  1 x 12 Levels for Diagnostic # 190 SI_Qice2
(PID.TID 0000.0001) - NOTE - SETDIAG: Counter Diagnostic # 184 SI_Thick has already been set
(PID.TID 0000.0001) SETDIAG: Allocate  1 x 12 Levels for Diagnostic # 191 SIsnwAge
(PID.TID 0000.0001) SETDIAG: Allocate  1 x 12 Levels for Diagnostic # 194 SIsnwPrc
(PID.TID 0000.0001) SETDIAG: Allocate  1 x 12 Levels for Count.Diag # 192 SI_FrcFx
(PID.TID 0000.0001) SETDIAG: Allocate  1 x 12 Levels for Diagnostic # 193 SIalbedo
(PID.TID 0000.0001) - NOTE - SETDIAG: Counter Diagnostic # 192 SI_FrcFx has already been set
(PID.TID 0000.0001) SETDIAG: Allocate  1 x 12 Levels for Diagnostic # 197 SIflx2oc
(PID.TID 0000.0001) SETDIAG: Allocate  1 x 12 Levels for Diagnostic # 198 SIfrw2oc
(PID.TID 0000.0001) SETDIAG: Allocate  1 x 12 Levels for Diagnostic # 199 SIsaltFx
(PID.TID 0000.0001) SETDIAG: Allocate  1 x 12 Levels for Diagnostic # 195 SIflxAtm
(PID.TID 0000.0001) SETDIAG: Allocate  1 x 12 Levels for Diagnostic # 196 SIfrwAtm
(PID.TID 0000.0001) SETDIAG: Allocate  1 x  1 Levels for Diagnostic #  23 ETAN
(PID.TID 0000.0001) SETDIAG: Allocate  1 x  1 Levels for Diagnostic #  75 oceFWflx
(PID.TID 0000.0001) SETDIAG: Allocate  1 x  1 Levels for Diagnostic #  23 ETAN
(PID.TID 0000.0001) SETDIAG: Allocate 15 x  1 Levels for Diagnostic #  26 THETA
(PID.TID 0000.0001) SETDIAG: Allocate 15 x  1 Levels for Diagnostic #  27 SALT
(PID.TID 0000.0001)   space allocated for all diagnostics:   474 levels
(PID.TID 0000.0001)   set mate pointer for diag #  30  UVEL     , Parms: UU   031MR
(PID.TID 0000.0001)   set mate pointer for diag #  31  VVEL     , Parms: VV   030MR
(PID.TID 0000.0001)   set mate pointer for diag #  44  VVELMASS , Parms: VV   043MR
(PID.TID 0000.0001)   set mate pointer for diag #  43  UVELMASS , Parms: UU   044MR
(PID.TID 0000.0001)   set mate pointer for diag #  46  UTHMASS  , Parms: UU   047MR
(PID.TID 0000.0001)   set mate pointer for diag #  47  VTHMASS  , Parms: VV   046MR
(PID.TID 0000.0001)   set mate pointer for diag #  49  USLTMASS , Parms: UU   050MR
(PID.TID 0000.0001)   set mate pointer for diag #  50  VSLTMASS , Parms: VV   049MR
(PID.TID 0000.0001) DIAGNOSTICS_SET_POINTERS: Set levels for Outp.Stream: dynDiag
(PID.TID 0000.0001)  Levels:       1.   2.   3.   4.   5.   6.   7.   8.   9.  10.  11.  12.  13.  14.  15.
(PID.TID 0000.0001) DIAGNOSTICS_SET_POINTERS: Set levels for Outp.Stream: thSIceDiag
(PID.TID 0000.0001)  Levels:       1.
(PID.TID 0000.0001) DIAGNOSTICS_SET_POINTERS: Set levels for Outp.Stream: surfInst
(PID.TID 0000.0001)  Levels:       1.
(PID.TID 0000.0001) DIAGNOSTICS_SET_POINTERS: Set levels for Outp.Stream: etaInst
(PID.TID 0000.0001)  Levels:       1.
(PID.TID 0000.0001) DIAGNOSTICS_SET_POINTERS: Set levels for Outp.Stream: dynInst
(PID.TID 0000.0001)  Levels:       1.   2.   3.   4.   5.   6.   7.   8.   9.  10.  11.  12.  13.  14.  15.
(PID.TID 0000.0001) DIAGNOSTICS_SET_POINTERS: done
(PID.TID 0000.0001) ------------------------------------------------------------
 DIAGSTATS_SET_REGIONS: start reading region-mask file: regMask_lat24.bin
 DIAGSTATS_SET_REGIONS:  reading set k=  1
(PID.TID 0000.0001)  MDS_READ_FIELD: opening global file: regMask_lat24.bin
 DIAGSTATS_SET_REGIONS:          set k=  1 <= done
(PID.TID 0000.0001) DIAGSTATS_SET_REGIONS: define   3 regions:  1  2  3
(PID.TID 0000.0001) ------------------------------------------------------------
(PID.TID 0000.0001) SETDIAG: Allocate  1 Levels for Stats-Diag #  23 ETAN
(PID.TID 0000.0001) SETDIAG: Allocate  1 Levels for Stats-Diag #  24 ETANSQ
(PID.TID 0000.0001) SETDIAG: Allocate  1 Levels for Stats-Diag #  25 DETADT2
(PID.TID 0000.0001) SETDIAG: Allocate 15 Levels for Stats-Diag #  26 THETA
(PID.TID 0000.0001) SETDIAG: Allocate 15 Levels for Stats-Diag #  27 SALT
(PID.TID 0000.0001) SETDIAG: Allocate 15 Levels for Stats-Diag #  70 CONVADJ
(PID.TID 0000.0001) SETDIAG: Allocate  1 Levels for Stats-Diag #  71 oceTAUX
(PID.TID 0000.0001) SETDIAG: Allocate  1 Levels for Stats-Diag #  72 oceTAUY
(PID.TID 0000.0001) SETDIAG: Allocate  1 Levels for Stats-Diag #  80 TRELAX
(PID.TID 0000.0001) SETDIAG: Allocate  1 Levels for Stats-Diag #  81 SRELAX
(PID.TID 0000.0001) SETDIAG: Allocate  1 Levels for Stats-Diag #  82 surForcT
(PID.TID 0000.0001) SETDIAG: Allocate  1 Levels for Stats-Diag #  83 surForcS
(PID.TID 0000.0001) SETDIAG: Allocate  1 Levels for Stats-Diag #  84 TFLUX
(PID.TID 0000.0001) SETDIAG: Allocate  1 Levels for Stats-Diag #  85 SFLUX
(PID.TID 0000.0001) SETDIAG: Allocate  1 Levels for Stats-Diag #  77 oceQnet
(PID.TID 0000.0001) SETDIAG: Allocate  1 Levels for Stats-Diag #  76 oceSflux
(PID.TID 0000.0001) SETDIAG: Allocate  1 Levels for Stats-Diag #  75 oceFWflx
(PID.TID 0000.0001) SETDIAG: Allocate  1 Levels for Stats-Diag #  23 ETAN
(PID.TID 0000.0001) SETDIAG: Allocate 15 Levels for Stats-Diag #  26 THETA
(PID.TID 0000.0001) SETDIAG: Allocate 15 Levels for Stats-Diag #  27 SALT
(PID.TID 0000.0001) SETDIAG: Allocate  1 Levels for Stats-Diag # 183 SI_Fract
(PID.TID 0000.0001) SETDIAG: Allocate  1 Levels for Stats-Diag # 184 SI_Thick
(PID.TID 0000.0001) - NOTE - SETDIAG: Counter Diagnostic # 183 SI_Fract has already been set
(PID.TID 0000.0001) SETDIAG: Allocate  1 Levels for Stats-Diag # 185 SI_SnowH
(PID.TID 0000.0001) - NOTE - SETDIAG: Counter Diagnostic # 183 SI_Fract has already been set
(PID.TID 0000.0001) SETDIAG: Allocate  1 Levels for Stats-Diag # 186 SI_Tsrf
(PID.TID 0000.0001) - NOTE - SETDIAG: Counter Diagnostic # 183 SI_Fract has already been set
(PID.TID 0000.0001) SETDIAG: Allocate  1 Levels for Stats-Diag # 187 SI_Tice1
(PID.TID 0000.0001) - NOTE - SETDIAG: Counter Diagnostic # 183 SI_Fract has already been set
(PID.TID 0000.0001) SETDIAG: Allocate  1 Levels for Stats-Diag # 188 SI_Tice2
(PID.TID 0000.0001) - NOTE - SETDIAG: Counter Diagnostic # 183 SI_Fract has already been set
(PID.TID 0000.0001) SETDIAG: Allocate  1 Levels for Stats-Diag # 189 SI_Qice1
(PID.TID 0000.0001) - NOTE - SETDIAG: Counter Diagnostic # 184 SI_Thick has already been set
(PID.TID 0000.0001) SETDIAG: Allocate  1 Levels for Stats-Diag # 190 SI_Qice2
(PID.TID 0000.0001) - NOTE - SETDIAG: Counter Diagnostic # 184 SI_Thick has already been set
(PID.TID 0000.0001) SETDIAG: Allocate  1 Levels for Stats-Diag # 194 SIsnwPrc
(PID.TID 0000.0001) SETDIAG: Allocate  1 Levels for Count.Diag # 192 SI_FrcFx
(PID.TID 0000.0001) SETDIAG: Allocate  1 Levels for Stats-Diag # 193 SIalbedo
(PID.TID 0000.0001) - NOTE - SETDIAG: Counter Diagnostic # 192 SI_FrcFx has already been set
(PID.TID 0000.0001) SETDIAG: Allocate  1 Levels for Stats-Diag # 191 SIsnwAge
(PID.TID 0000.0001) SETDIAG: Allocate  1 Levels for Stats-Diag # 197 SIflx2oc
(PID.TID 0000.0001) SETDIAG: Allocate  1 Levels for Stats-Diag # 198 SIfrw2oc
(PID.TID 0000.0001) SETDIAG: Allocate  1 Levels for Stats-Diag # 199 SIsaltFx
(PID.TID 0000.0001) SETDIAG: Allocate  1 Levels for Stats-Diag # 195 SIflxAtm
(PID.TID 0000.0001) SETDIAG: Allocate  1 Levels for Stats-Diag # 196 SIfrwAtm
(PID.TID 0000.0001)   space allocated for all stats-diags:   107 levels
(PID.TID 0000.0001) DIAGSTATS_SET_POINTERS: done
(PID.TID 0000.0001) ------------------------------------------------------------
(PID.TID 0000.0001) DIAGSTATS_INI_IO: open file: dynStDiag.0000036000.txt , unit=     9
(PID.TID 0000.0001) DIAGSTATS_INI_IO: open file: surfStDiag.0000036000.txt , unit=    10
(PID.TID 0000.0001) DIAGSTATS_INI_IO: open file: instStDiag.0000036000.txt , unit=    11
(PID.TID 0000.0001) DIAGSTATS_INI_IO: open file: thSIceStDiag.0000036000.txt , unit=    12
(PID.TID 0000.0001) GAD_CHECK: #define ALLOW_GENERIC_ADVDIFF
(PID.TID 0000.0001) GMREDI_CHECK: #define GMREDI
(PID.TID 0000.0001) GM_AdvForm =  /* if FALSE => use SkewFlux Form */
(PID.TID 0000.0001)                   F
(PID.TID 0000.0001)     ;
(PID.TID 0000.0001) GM_AdvSeparate = /* Calc Bolus & Euler Adv. separately */
(PID.TID 0000.0001)                   F
(PID.TID 0000.0001)     ;
(PID.TID 0000.0001) GM_ExtraDiag =  /* Tensor Extra Diag (line 1&2) non 0 */
(PID.TID 0000.0001)                   F
(PID.TID 0000.0001)     ;
(PID.TID 0000.0001) GM_isopycK =   /* Background Isopyc. Diffusivity ( m^2/s ) */
(PID.TID 0000.0001)                 8.000000000000000E+02
(PID.TID 0000.0001)     ;
(PID.TID 0000.0001)  GM_skewflx*K =   /* Background GM_SkewFlx Diffusivity ( m^2/s ) */
(PID.TID 0000.0001)                 8.000000000000000E+02
(PID.TID 0000.0001)     ;
(PID.TID 0000.0001)  GM_advec*K =   /* Backg. GM-Advec(=Bolus) Diffusivity ( m^2/s ) */
(PID.TID 0000.0001)                 0.000000000000000E+00
(PID.TID 0000.0001)     ;
(PID.TID 0000.0001)  GM_Visbeck_alpha =   /* Visbeck alpha coeff. ( ) */
(PID.TID 0000.0001)                 0.000000000000000E+00
(PID.TID 0000.0001)     ;
(PID.TID 0000.0001)  Tapering/Cliping : gkw91
(PID.TID 0000.0001)  GM_Small_Number =  /* epsilon used in slope calc */
(PID.TID 0000.0001)                 1.000000000000000E-12
(PID.TID 0000.0001)     ;
(PID.TID 0000.0001)  GM_slopeSqCutoff =  /* Slope^2 cut-off value */
(PID.TID 0000.0001)                 1.000000000000000E+48
(PID.TID 0000.0001)     ;
(PID.TID 0000.0001) THSICE_CHECK: #define THSICE
(PID.TID 0000.0001) %MON fCori_max                    =   1.4535016908525E-04
(PID.TID 0000.0001) %MON fCori_min                    =  -1.4535016908525E-04
(PID.TID 0000.0001) %MON fCori_mean                   =   0.0000000000000E+00
(PID.TID 0000.0001) %MON fCori_sd                     =   8.3972192788621E-05
(PID.TID 0000.0001) %MON fCoriG_max                   =   1.4544410433286E-04
(PID.TID 0000.0001) %MON fCoriG_min                   =  -1.4544410433286E-04
(PID.TID 0000.0001) %MON fCoriG_mean                  =   0.0000000000000E+00
(PID.TID 0000.0001) %MON fCoriG_sd                    =   8.4860812167727E-05
(PID.TID 0000.0001) %MON fCoriCos_max                 =   1.4540341538469E-04
(PID.TID 0000.0001) %MON fCoriCos_min                 =   5.2264550201501E-06
(PID.TID 0000.0001) %MON fCoriCos_mean                =   1.1482595466044E-04
(PID.TID 0000.0001) %MON fCoriCos_sd                  =   3.0292878037194E-05
(PID.TID 0000.0001) INI_CG2D: CG2D normalisation factor =  1.9156564154949553E-04
(PID.TID 0000.0001) INI_CG2D: cg2dTolerance = 5.809016360175293E-07 (Area=3.6388673751E+14)
(PID.TID 0000.0001) 
(PID.TID 0000.0001) CONFIG_CHECK: OK
(PID.TID 0000.0001) // =======================================================
(PID.TID 0000.0001) // Model configuration
(PID.TID 0000.0001) // =======================================================
(PID.TID 0000.0001) //
(PID.TID 0000.0001) // "Physical" paramters ( PARM01 in namelist )
(PID.TID 0000.0001) //
(PID.TID 0000.0001) buoyancyRelation = OCEANIC
(PID.TID 0000.0001) fluidIsAir  =  /* fluid major constituent is Air */
(PID.TID 0000.0001)                   F
(PID.TID 0000.0001)     ;
(PID.TID 0000.0001) fluidIsWater=  /* fluid major constituent is Water */
(PID.TID 0000.0001)                   T
(PID.TID 0000.0001)     ;
(PID.TID 0000.0001) usingPCoords =  /* use p (or p*) vertical coordinate */
(PID.TID 0000.0001)                   F
(PID.TID 0000.0001)     ;
(PID.TID 0000.0001) usingZCoords =  /* use z (or z*) vertical coordinate */
(PID.TID 0000.0001)                   T
(PID.TID 0000.0001)     ;
(PID.TID 0000.0001) tRef =   /* Reference temperature profile ( oC or K ) */
(PID.TID 0000.0001)    15 @  2.000000000000000E+01              /* K =  1: 15 */
(PID.TID 0000.0001)     ;
(PID.TID 0000.0001) sRef =   /* Reference salinity profile ( psu ) */
(PID.TID 0000.0001)    15 @  3.500000000000000E+01              /* K =  1: 15 */
(PID.TID 0000.0001)     ;
(PID.TID 0000.0001) viscAh =   /* Lateral eddy viscosity ( m^2/s ) */
(PID.TID 0000.0001)                 3.000000000000000E+05
(PID.TID 0000.0001)     ;
(PID.TID 0000.0001) viscAhMax =   /* Maximum lateral eddy viscosity ( m^2/s ) */
(PID.TID 0000.0001)                 1.000000000000000E+21
(PID.TID 0000.0001)     ;
(PID.TID 0000.0001) viscAhGrid =   /* Grid dependent lateral eddy viscosity ( non-dim. ) */
(PID.TID 0000.0001)                 0.000000000000000E+00
(PID.TID 0000.0001)     ;
(PID.TID 0000.0001) useFullLeith =   /* Use Full Form of Leith Viscosity on/off flag*/
(PID.TID 0000.0001)                   F
(PID.TID 0000.0001)     ;
(PID.TID 0000.0001) useStrainTensionVisc =   /* Use StrainTension Form of Viscous Operator on/off flag*/
(PID.TID 0000.0001)                   F
(PID.TID 0000.0001)     ;
(PID.TID 0000.0001) useAreaViscLength =   /* Use area for visc length instead of geom. mean*/
(PID.TID 0000.0001)                   F
(PID.TID 0000.0001)     ;
(PID.TID 0000.0001) viscC2leith = /* Leith harmonic visc. factor (on grad(vort),non-dim.) */
(PID.TID 0000.0001)                 0.000000000000000E+00
(PID.TID 0000.0001)     ;
(PID.TID 0000.0001) viscC2leithD = /* Leith harmonic viscosity factor (on grad(div),non-dim.) */
(PID.TID 0000.0001)                 0.000000000000000E+00
(PID.TID 0000.0001)     ;
(PID.TID 0000.0001) viscC2smag =   /* Smagorinsky harmonic viscosity factor (non-dim.) */
(PID.TID 0000.0001)                 0.000000000000000E+00
(PID.TID 0000.0001)     ;
(PID.TID 0000.0001) viscA4 =   /* Lateral biharmonic viscosity ( m^4/s ) */
(PID.TID 0000.0001)                 0.000000000000000E+00
(PID.TID 0000.0001)     ;
(PID.TID 0000.0001) viscA4Max =   /* Maximum biharmonic viscosity ( m^2/s ) */
(PID.TID 0000.0001)                 1.000000000000000E+21
(PID.TID 0000.0001)     ;
(PID.TID 0000.0001) viscA4Grid =   /* Grid dependent biharmonic viscosity ( non-dim. ) */
(PID.TID 0000.0001)                 0.000000000000000E+00
(PID.TID 0000.0001)     ;
(PID.TID 0000.0001) viscC4leith = /* Leith biharm viscosity factor (on grad(vort), non-dim.) */
(PID.TID 0000.0001)                 0.000000000000000E+00
(PID.TID 0000.0001)     ;
(PID.TID 0000.0001) viscC4leithD = /* Leith biharm viscosity factor (on grad(div), non-dim.) */
(PID.TID 0000.0001)                 0.000000000000000E+00
(PID.TID 0000.0001)     ;
(PID.TID 0000.0001) viscC4Smag = /* Smagorinsky biharm viscosity factor (non-dim) */
(PID.TID 0000.0001)                 0.000000000000000E+00
(PID.TID 0000.0001)     ;
(PID.TID 0000.0001) no_slip_sides =  /* Viscous BCs: No-slip sides */
(PID.TID 0000.0001)                   T
(PID.TID 0000.0001)     ;
(PID.TID 0000.0001) sideDragFactor = /* side-drag scaling factor (non-dim) */
(PID.TID 0000.0001)                 2.000000000000000E+00
(PID.TID 0000.0001)     ;
(PID.TID 0000.0001) viscAr =   /* Vertical eddy viscosity ( units of r^2/s ) */
(PID.TID 0000.0001)                 1.000000000000000E-03
(PID.TID 0000.0001)     ;
(PID.TID 0000.0001) no_slip_bottom =  /* Viscous BCs: No-slip bottom */
(PID.TID 0000.0001)                   T
(PID.TID 0000.0001)     ;
(PID.TID 0000.0001) bottomDragLinear = /* linear bottom-drag coefficient ( 1/s ) */
(PID.TID 0000.0001)                 0.000000000000000E+00
(PID.TID 0000.0001)     ;
(PID.TID 0000.0001) bottomDragQuadratic = /* quadratic bottom-drag coeff. ( 1/m ) */
(PID.TID 0000.0001)                 0.000000000000000E+00
(PID.TID 0000.0001)     ;
(PID.TID 0000.0001) diffKhT =   /* Laplacian diffusion of heat laterally ( m^2/s ) */
(PID.TID 0000.0001)                 0.000000000000000E+00
(PID.TID 0000.0001)     ;
(PID.TID 0000.0001) diffK4T =   /* Bihaarmonic diffusion of heat laterally ( m^4/s ) */
(PID.TID 0000.0001)                 0.000000000000000E+00
(PID.TID 0000.0001)     ;
(PID.TID 0000.0001) diffKhS =   /* Laplacian diffusion of salt laterally ( m^2/s ) */
(PID.TID 0000.0001)                 0.000000000000000E+00
(PID.TID 0000.0001)     ;
(PID.TID 0000.0001) diffK4S =   /* Bihaarmonic diffusion of salt laterally ( m^4/s ) */
(PID.TID 0000.0001)                 0.000000000000000E+00
(PID.TID 0000.0001)     ;
(PID.TID 0000.0001) diffKrNrT = /* vertical profile of vertical diffusion of Temp ( m^2/s )*/
(PID.TID 0000.0001)    15 @  3.000000000000000E-05              /* K =  1: 15 */
(PID.TID 0000.0001)     ;
(PID.TID 0000.0001) diffKrNrS = /* vertical profile of vertical diffusion of Salt ( m^2/s )*/
(PID.TID 0000.0001)    15 @  3.000000000000000E-05              /* K =  1: 15 */
(PID.TID 0000.0001)     ;
(PID.TID 0000.0001) diffKrBL79surf =   /* Surface diffusion for Bryan and Lewis 1979 ( m^2/s ) */
(PID.TID 0000.0001)                 0.000000000000000E+00
(PID.TID 0000.0001)     ;
(PID.TID 0000.0001) diffKrBL79deep =   /* Deep diffusion for Bryan and Lewis 1979 ( m^2/s ) */
(PID.TID 0000.0001)                 0.000000000000000E+00
(PID.TID 0000.0001)     ;
(PID.TID 0000.0001) diffKrBL79scl =   /* Depth scale for Bryan and Lewis 1979 ( m ) */
(PID.TID 0000.0001)                 2.000000000000000E+02
(PID.TID 0000.0001)     ;
(PID.TID 0000.0001) diffKrBL79Ho =   /* Turning depth for Bryan and Lewis 1979 ( m ) */
(PID.TID 0000.0001)                -2.000000000000000E+03
(PID.TID 0000.0001)     ;
(PID.TID 0000.0001) Equation of State : eosType = JMD95Z ;
(PID.TID 0000.0001) tAlpha =   /* Linear EOS thermal expansion coefficient ( 1/oC ) */
(PID.TID 0000.0001)                 1.234567000000000E+05
(PID.TID 0000.0001)     ;
(PID.TID 0000.0001) sBeta =   /* Linear EOS haline contraction coefficient ( 1/psu ) */
(PID.TID 0000.0001)                 1.234567000000000E+05
(PID.TID 0000.0001)     ;
(PID.TID 0000.0001) rhonil =   /* Reference density ( kg/m^3 ) */
(PID.TID 0000.0001)                 1.035000000000000E+03
(PID.TID 0000.0001)     ;
(PID.TID 0000.0001) rhoConst =   /* Reference density ( kg/m^3 ) */
(PID.TID 0000.0001)                 1.035000000000000E+03
(PID.TID 0000.0001)     ;
(PID.TID 0000.0001) rhoFacC = /* normalized Reference density @ cell-Center (-) */
(PID.TID 0000.0001)    15 @  1.000000000000000E+00              /* K =  1: 15 */
(PID.TID 0000.0001)     ;
(PID.TID 0000.0001) rhoFacF = /* normalized Reference density @ W-Interface (-) */
(PID.TID 0000.0001)    16 @  1.000000000000000E+00              /* K =  1: 16 */
(PID.TID 0000.0001)     ;
(PID.TID 0000.0001) rhoConstFresh =   /* Reference density ( kg/m^3 ) */
(PID.TID 0000.0001)                 1.000000000000000E+03
(PID.TID 0000.0001)     ;
(PID.TID 0000.0001) gravity =   /* Gravitational acceleration ( m/s^2 ) */
(PID.TID 0000.0001)                 9.810000000000000E+00
(PID.TID 0000.0001)     ;
(PID.TID 0000.0001) gBaro =   /* Barotropic gravity ( m/s^2 ) */
(PID.TID 0000.0001)                 9.810000000000000E+00
(PID.TID 0000.0001)     ;
(PID.TID 0000.0001) rotationPeriod =   /* Rotation Period ( s ) */
(PID.TID 0000.0001)                 8.640000000000000E+04
(PID.TID 0000.0001)     ;
(PID.TID 0000.0001) omega =   /* Angular velocity ( rad/s ) */
(PID.TID 0000.0001)                 7.272205216643040E-05
(PID.TID 0000.0001)     ;
(PID.TID 0000.0001) f0 =   /* Reference coriolis parameter ( 1/s ) */
(PID.TID 0000.0001)                 1.000000000000000E-04
(PID.TID 0000.0001)     ;
(PID.TID 0000.0001) beta =   /* Beta ( 1/(m.s) ) */
(PID.TID 0000.0001)                 9.999999999999999E-12
(PID.TID 0000.0001)     ;
(PID.TID 0000.0001) freeSurfFac =   /* Implicit free surface factor */
(PID.TID 0000.0001)                 1.000000000000000E+00
(PID.TID 0000.0001)     ;
(PID.TID 0000.0001) implicitFreeSurface =   /* Implicit free surface on/off flag */
(PID.TID 0000.0001)                   T
(PID.TID 0000.0001)     ;
(PID.TID 0000.0001) rigidLid =   /* Rigid lid on/off flag */
(PID.TID 0000.0001)                   F
(PID.TID 0000.0001)     ;
(PID.TID 0000.0001) implicSurfPress =   /* Surface Pressure implicit factor (0-1)*/
(PID.TID 0000.0001)                 1.000000000000000E+00
(PID.TID 0000.0001)     ;
(PID.TID 0000.0001) implicDiv2Dflow =   /* Barot. Flow Div. implicit factor (0-1)*/
(PID.TID 0000.0001)                 1.000000000000000E+00
(PID.TID 0000.0001)     ;
(PID.TID 0000.0001) exactConserv =   /* Exact Volume Conservation on/off flag*/
(PID.TID 0000.0001)                   T
(PID.TID 0000.0001)     ;
(PID.TID 0000.0001) linFSConserveTr =   /* Tracer correction for Lin Free Surface on/off flag*/
(PID.TID 0000.0001)                   F
(PID.TID 0000.0001)     ;
(PID.TID 0000.0001) uniformLin_PhiSurf =   /* use uniform Bo_surf on/off flag*/
(PID.TID 0000.0001)                   T
(PID.TID 0000.0001)     ;
(PID.TID 0000.0001) nonlinFreeSurf =   /* Non-linear Free Surf. options (-1,0,1,2,3)*/
(PID.TID 0000.0001)                       4
(PID.TID 0000.0001)     ;
(PID.TID 0000.0001)      -1,0= Off ; 1,2,3= On, 2=+rescale gU,gV, 3=+update cg2d solv.
(PID.TID 0000.0001) hFacInf =   /* lower threshold for hFac (nonlinFreeSurf only)*/
(PID.TID 0000.0001)                 2.000000000000000E-01
(PID.TID 0000.0001)     ;
(PID.TID 0000.0001) hFacSup =   /* upper threshold for hFac (nonlinFreeSurf only)*/
(PID.TID 0000.0001)                 2.000000000000000E+00
(PID.TID 0000.0001)     ;
(PID.TID 0000.0001) select_rStar =   /* r* Coordinate options (not yet implemented)*/
(PID.TID 0000.0001)                       2
(PID.TID 0000.0001)     ;
(PID.TID 0000.0001) useRealFreshWaterFlux =   /* Real Fresh Water Flux on/off flag*/
(PID.TID 0000.0001)                   T
(PID.TID 0000.0001)     ;
(PID.TID 0000.0001) temp_EvPrRn = /* Temp. of Evap/Prec/R (UNSET=use local T)(oC)*/
(PID.TID 0000.0001)                 1.234567000000000E+05
(PID.TID 0000.0001)     ;
(PID.TID 0000.0001) salt_EvPrRn = /* Salin. of Evap/Prec/R (UNSET=use local S)(ppt)*/
(PID.TID 0000.0001)                 0.000000000000000E+00
(PID.TID 0000.0001)     ;
(PID.TID 0000.0001) use3Dsolver = /* use 3-D pressure solver on/off flag */
(PID.TID 0000.0001)                   F
(PID.TID 0000.0001)     ;
(PID.TID 0000.0001) nonHydrostatic =  /* Non-Hydrostatic on/off flag */
(PID.TID 0000.0001)                   F
(PID.TID 0000.0001)     ;
(PID.TID 0000.0001) nh_Am2 = /* Non-Hydrostatic terms scaling factor */
(PID.TID 0000.0001)                 1.000000000000000E+00
(PID.TID 0000.0001)     ;
(PID.TID 0000.0001) quasiHydrostatic = /* Quasi-Hydrostatic on/off flag */
(PID.TID 0000.0001)                   F
(PID.TID 0000.0001)     ;
(PID.TID 0000.0001) momStepping =  /* Momentum equation on/off flag */
(PID.TID 0000.0001)                   T
(PID.TID 0000.0001)     ;
(PID.TID 0000.0001) vectorInvariantMomentum= /* Vector-Invariant Momentum on/off */
(PID.TID 0000.0001)                   T
(PID.TID 0000.0001)     ;
(PID.TID 0000.0001) momAdvection =  /* Momentum advection on/off flag */
(PID.TID 0000.0001)                   T
(PID.TID 0000.0001)     ;
(PID.TID 0000.0001) momViscosity =  /* Momentum viscosity on/off flag */
(PID.TID 0000.0001)                   T
(PID.TID 0000.0001)     ;
(PID.TID 0000.0001) momImplVertAdv =/* Momentum implicit vert. advection on/off*/
(PID.TID 0000.0001)                   F
(PID.TID 0000.0001)     ;
(PID.TID 0000.0001) implicitViscosity = /* Implicit viscosity on/off flag */
(PID.TID 0000.0001)                   F
(PID.TID 0000.0001)     ;
(PID.TID 0000.0001) metricTerms =  /* metric-Terms on/off flag */
(PID.TID 0000.0001)                   F
(PID.TID 0000.0001)     ;
(PID.TID 0000.0001) useNHMTerms = /* Non-Hydrostatic Metric-Terms on/off */
(PID.TID 0000.0001)                   F
(PID.TID 0000.0001)     ;
(PID.TID 0000.0001) useConstantF =  /* use Constant f0 Coriolis flag */
(PID.TID 0000.0001)                   F
(PID.TID 0000.0001)     ;
(PID.TID 0000.0001) useBetaPlaneF = /* use Beta-Plane Coriolis flag */
(PID.TID 0000.0001)                   F
(PID.TID 0000.0001)     ;
(PID.TID 0000.0001) useSphereF  =   /* use Spherical Coriolis flag */
(PID.TID 0000.0001)                   T
(PID.TID 0000.0001)     ;
(PID.TID 0000.0001) use3dCoriolis = /* 3-D Coriolis on/off flag */
(PID.TID 0000.0001)                   F
(PID.TID 0000.0001)     ;
(PID.TID 0000.0001) useCoriolis =  /* Coriolis on/off flag */
(PID.TID 0000.0001)                   T
(PID.TID 0000.0001)     ;
(PID.TID 0000.0001) useCDscheme =  /* CD scheme on/off flag */
(PID.TID 0000.0001)                   F
(PID.TID 0000.0001)     ;
(PID.TID 0000.0001) useJamartWetPoints= /* Coriolis WetPoints method flag */
(PID.TID 0000.0001)                   F
(PID.TID 0000.0001)     ;
(PID.TID 0000.0001) useJamartMomAdv= /* V.I. Non-linear terms Jamart flag */
(PID.TID 0000.0001)                   F
(PID.TID 0000.0001)     ;
(PID.TID 0000.0001) SadournyCoriolis= /* Sadourny Coriolis discr. flag */
(PID.TID 0000.0001)                   F
(PID.TID 0000.0001)     ;
(PID.TID 0000.0001) upwindVorticity= /* Upwind bias vorticity flag */
(PID.TID 0000.0001)                   F
(PID.TID 0000.0001)     ;
(PID.TID 0000.0001) useAbsVorticity= /* Work with f+zeta in Coriolis */
(PID.TID 0000.0001)                   F
(PID.TID 0000.0001)     ;
(PID.TID 0000.0001) highOrderVorticity= /* High order interp. of vort. flag */
(PID.TID 0000.0001)                   F
(PID.TID 0000.0001)     ;
(PID.TID 0000.0001) upwindShear= /* Upwind vertical Shear advection flag */
(PID.TID 0000.0001)                   F
(PID.TID 0000.0001)     ;
(PID.TID 0000.0001) selectKEscheme= /* Kinetic Energy scheme selector */
(PID.TID 0000.0001)                       0
(PID.TID 0000.0001)     ;
(PID.TID 0000.0001) momForcing =  /* Momentum forcing on/off flag */
(PID.TID 0000.0001)                   T
(PID.TID 0000.0001)     ;
(PID.TID 0000.0001) momPressureForcing =  /* Momentum pressure term on/off flag */
(PID.TID 0000.0001)                   T
(PID.TID 0000.0001)     ;
(PID.TID 0000.0001) implicitIntGravWave= /* Implicit Internal Gravity Wave flag */
(PID.TID 0000.0001)                   F
(PID.TID 0000.0001)     ;
(PID.TID 0000.0001) staggerTimeStep =   /* Stagger time stepping on/off flag */
(PID.TID 0000.0001)                   T
(PID.TID 0000.0001)     ;
(PID.TID 0000.0001) multiDimAdvection =   /* enable/disable Multi-Dim Advection */
(PID.TID 0000.0001)                   T
(PID.TID 0000.0001)     ;
(PID.TID 0000.0001) useMultiDimAdvec =   /* Multi-Dim Advection is/is-not used */
(PID.TID 0000.0001)                   F
(PID.TID 0000.0001)     ;
(PID.TID 0000.0001) implicitDiffusion =/* Implicit Diffusion on/off flag */
(PID.TID 0000.0001)                   T
(PID.TID 0000.0001)     ;
(PID.TID 0000.0001) tempStepping =  /* Temperature equation on/off flag */
(PID.TID 0000.0001)                   T
(PID.TID 0000.0001)     ;
(PID.TID 0000.0001) tempAdvection=  /* Temperature advection on/off flag */
(PID.TID 0000.0001)                   T
(PID.TID 0000.0001)     ;
(PID.TID 0000.0001) tempImplVertAdv =/* Temp. implicit vert. advection on/off */
(PID.TID 0000.0001)                   F
(PID.TID 0000.0001)     ;
(PID.TID 0000.0001) tempForcing  =  /* Temperature forcing on/off flag */
(PID.TID 0000.0001)                   T
(PID.TID 0000.0001)     ;
(PID.TID 0000.0001) saltStepping =  /* Salinity equation on/off flag */
(PID.TID 0000.0001)                   T
(PID.TID 0000.0001)     ;
(PID.TID 0000.0001) saltAdvection=  /* Salinity advection on/off flag */
(PID.TID 0000.0001)                   T
(PID.TID 0000.0001)     ;
(PID.TID 0000.0001) saltImplVertAdv =/* Sali. implicit vert. advection on/off */
(PID.TID 0000.0001)                   F
(PID.TID 0000.0001)     ;
(PID.TID 0000.0001) saltForcing  =  /* Salinity forcing on/off flag */
(PID.TID 0000.0001)                   T
(PID.TID 0000.0001)     ;
(PID.TID 0000.0001)  readBinaryPrec = /* Precision used for reading binary files */
(PID.TID 0000.0001)                      64
(PID.TID 0000.0001)     ;
(PID.TID 0000.0001) writeBinaryPrec = /* Precision used for writing binary files */
(PID.TID 0000.0001)                      32
(PID.TID 0000.0001)     ;
(PID.TID 0000.0001)  globalFiles = /* write "global" (=not per tile) files */
(PID.TID 0000.0001)                   F
(PID.TID 0000.0001)     ;
(PID.TID 0000.0001)  useSingleCpuIO = /* only master MPI process does I/O */
(PID.TID 0000.0001)                   F
(PID.TID 0000.0001)     ;
(PID.TID 0000.0001)  debugMode  =  /* Debug Mode on/off flag */
(PID.TID 0000.0001)                   F
(PID.TID 0000.0001)     ;
(PID.TID 0000.0001)    debLevA  =  /* 1rst level of debugging */
(PID.TID 0000.0001)                       1
(PID.TID 0000.0001)     ;
(PID.TID 0000.0001)    debLevB  =  /* 2nd  level of debugging */
(PID.TID 0000.0001)                       2
(PID.TID 0000.0001)     ;
(PID.TID 0000.0001)  debugLevel =  /* select debugging level */
(PID.TID 0000.0001)                       1
(PID.TID 0000.0001)     ;
(PID.TID 0000.0001) //
(PID.TID 0000.0001) // Elliptic solver(s) paramters ( PARM02 in namelist )
(PID.TID 0000.0001) //
(PID.TID 0000.0001) cg2dMaxIters =   /* Upper limit on 2d con. grad iterations  */
(PID.TID 0000.0001)                     200
(PID.TID 0000.0001)     ;
(PID.TID 0000.0001) cg2dChkResFreq =   /* 2d con. grad convergence test frequency */
(PID.TID 0000.0001)                       1
(PID.TID 0000.0001)     ;
(PID.TID 0000.0001) cg2dTargetResidual =   /* 2d con. grad target residual  */
(PID.TID 0000.0001)                 1.000000000000000E-07
(PID.TID 0000.0001)     ;
(PID.TID 0000.0001) cg2dTargetResWunit =   /* CG2d target residual [W units] */
(PID.TID 0000.0001)                 1.000000000000000E-14
(PID.TID 0000.0001)     ;
(PID.TID 0000.0001) cg2dPreCondFreq =   /* Freq. for updating cg2d preconditioner */
(PID.TID 0000.0001)                       1
(PID.TID 0000.0001)     ;
(PID.TID 0000.0001) //
(PID.TID 0000.0001) // Time stepping paramters ( PARM03 in namelist )
(PID.TID 0000.0001) //
(PID.TID 0000.0001) nIter0 =   /* Run starting timestep number  */
(PID.TID 0000.0001)                   36000
(PID.TID 0000.0001)     ;
(PID.TID 0000.0001) nTimeSteps =   /* Number of timesteps */
(PID.TID 0000.0001)                      20
(PID.TID 0000.0001)     ;
(PID.TID 0000.0001) deltaTmom =   /* Momentum equation timestep ( s ) */
(PID.TID 0000.0001)                 1.200000000000000E+03
(PID.TID 0000.0001)     ;
(PID.TID 0000.0001) deltaTfreesurf =   /* FreeSurface equation timestep ( s ) */
(PID.TID 0000.0001)                 8.640000000000000E+04
(PID.TID 0000.0001)     ;
(PID.TID 0000.0001) dTtracerLev =   /* Tracer equation timestep ( s ) */
(PID.TID 0000.0001)    15 @  8.640000000000000E+04              /* K =  1: 15 */
(PID.TID 0000.0001)     ;
(PID.TID 0000.0001) deltaTClock  =   /* Model clock timestep ( s ) */
(PID.TID 0000.0001)                 8.640000000000000E+04
(PID.TID 0000.0001)     ;
(PID.TID 0000.0001) cAdjFreq =   /* Convective adjustment interval ( s ) */
(PID.TID 0000.0001)                 0.000000000000000E+00
(PID.TID 0000.0001)     ;
(PID.TID 0000.0001) momForcingOutAB = /* =1: take Momentum Forcing out of Adams-Bash. stepping */
(PID.TID 0000.0001)                       0
(PID.TID 0000.0001)     ;
(PID.TID 0000.0001) tracForcingOutAB = /* =1: take T,S,pTr Forcing out of Adams-Bash. stepping */
(PID.TID 0000.0001)                       1
(PID.TID 0000.0001)     ;
(PID.TID 0000.0001) momDissip_In_AB = /* put Dissipation Tendency in Adams-Bash. stepping */
(PID.TID 0000.0001)                   T
(PID.TID 0000.0001)     ;
(PID.TID 0000.0001) doAB_onGtGs = /* apply AB on Tendencies (rather than on T,S)*/
(PID.TID 0000.0001)                   T
(PID.TID 0000.0001)     ;
(PID.TID 0000.0001) abEps =   /* Adams-Bashforth-2 stabilizing weight */
(PID.TID 0000.0001)                 1.000000000000000E-01
(PID.TID 0000.0001)     ;
(PID.TID 0000.0001) baseTime =   /* Model base time ( s ). */
(PID.TID 0000.0001)                 0.000000000000000E+00
(PID.TID 0000.0001)     ;
(PID.TID 0000.0001) startTime =   /* Run start time ( s ). */
(PID.TID 0000.0001)                 3.110400000000000E+09
(PID.TID 0000.0001)     ;
(PID.TID 0000.0001) endTime =   /* Integration ending time ( s ). */
(PID.TID 0000.0001)                 3.112128000000000E+09
(PID.TID 0000.0001)     ;
(PID.TID 0000.0001) pChkPtFreq =   /* Permanent restart/checkpoint file interval ( s ). */
(PID.TID 0000.0001)                 3.110400000000000E+07
(PID.TID 0000.0001)     ;
(PID.TID 0000.0001) chkPtFreq =   /* Rolling restart/checkpoint file interval ( s ). */
(PID.TID 0000.0001)                 0.000000000000000E+00
(PID.TID 0000.0001)     ;
(PID.TID 0000.0001) pickup_write_mdsio =   /* Model IO flag. */
(PID.TID 0000.0001)                   T
(PID.TID 0000.0001)     ;
(PID.TID 0000.0001) pickup_read_mdsio =   /* Model IO flag. */
(PID.TID 0000.0001)                   T
(PID.TID 0000.0001)     ;
(PID.TID 0000.0001) pickup_write_immed =   /* Model IO flag. */
(PID.TID 0000.0001)                   F
(PID.TID 0000.0001)     ;
(PID.TID 0000.0001) dumpFreq =   /* Model state write out interval ( s ). */
(PID.TID 0000.0001)                 3.110400000000000E+07
(PID.TID 0000.0001)     ;
(PID.TID 0000.0001) dumpInitAndLast= /* write out Initial & Last iter. model state */
(PID.TID 0000.0001)                   T
(PID.TID 0000.0001)     ;
(PID.TID 0000.0001) snapshot_mdsio =   /* Model IO flag. */
(PID.TID 0000.0001)                   T
(PID.TID 0000.0001)     ;
(PID.TID 0000.0001) monitorFreq =   /* Monitor output interval ( s ). */
(PID.TID 0000.0001)                 1.000000000000000E+00
(PID.TID 0000.0001)     ;
(PID.TID 0000.0001) monitor_stdio =   /* Model IO flag. */
(PID.TID 0000.0001)                   T
(PID.TID 0000.0001)     ;
(PID.TID 0000.0001) externForcingPeriod =   /* forcing period (s) */
(PID.TID 0000.0001)                 2.592000000000000E+06
(PID.TID 0000.0001)     ;
(PID.TID 0000.0001) externForcingCycle =   /* period of the cyle (s). */
(PID.TID 0000.0001)                 3.110400000000000E+07
(PID.TID 0000.0001)     ;
(PID.TID 0000.0001) tauThetaClimRelax =   /* relaxation time scale (s) */
(PID.TID 0000.0001)                 5.184000000000000E+06
(PID.TID 0000.0001)     ;
(PID.TID 0000.0001) tauSaltClimRelax =   /* relaxation time scale (s) */
(PID.TID 0000.0001)                 1.555200000000000E+07
(PID.TID 0000.0001)     ;
(PID.TID 0000.0001) latBandClimRelax =   /* max. Lat. where relaxation */
(PID.TID 0000.0001)                 5.000000000000000E+01
(PID.TID 0000.0001)     ;
(PID.TID 0000.0001) //
(PID.TID 0000.0001) // Gridding paramters ( PARM04 in namelist )
(PID.TID 0000.0001) //
(PID.TID 0000.0001) usingCartesianGrid = /* Cartesian coordinates flag ( True/False ) */
(PID.TID 0000.0001)                   F
(PID.TID 0000.0001)     ;
(PID.TID 0000.0001) usingCylindricalGrid = /* Cylindrical coordinates flag ( True/False ) */
(PID.TID 0000.0001)                   F
(PID.TID 0000.0001)     ;
(PID.TID 0000.0001) usingSphericalPolarGrid = /* Spherical coordinates flag ( True/False ) */
(PID.TID 0000.0001)                   F
(PID.TID 0000.0001)     ;
(PID.TID 0000.0001) usingCurvilinearGrid = /* Curvilinear coordinates flag ( True/False ) */
(PID.TID 0000.0001)                   T
(PID.TID 0000.0001)     ;
(PID.TID 0000.0001) Ro_SeaLevel = /* r(1) ( units of r ) */
(PID.TID 0000.0001)                 0.000000000000000E+00
(PID.TID 0000.0001)     ;
(PID.TID 0000.0001) rkSign =   /* index orientation relative to vertical coordinate */
(PID.TID 0000.0001)                -1.000000000000000E+00
(PID.TID 0000.0001)     ;
(PID.TID 0000.0001) gravitySign = /* gravity orientation relative to vertical coordinate */
(PID.TID 0000.0001)                -1.000000000000000E+00
(PID.TID 0000.0001)     ;
(PID.TID 0000.0001) horiVertRatio =   /* Ratio on units : Horiz - Vertical */
(PID.TID 0000.0001)                 1.000000000000000E+00
(PID.TID 0000.0001)     ;
(PID.TID 0000.0001) drC =   /* C spacing ( units of r ) */
(PID.TID 0000.0001)                 2.500000000000000E+01,      /* K =  1 */
(PID.TID 0000.0001)                 6.000000000000000E+01,      /* K =  2 */
(PID.TID 0000.0001)                 8.500000000000000E+01,      /* K =  3 */
(PID.TID 0000.0001)                 1.200000000000000E+02,      /* K =  4 */
(PID.TID 0000.0001)                 1.650000000000000E+02,      /* K =  5 */
(PID.TID 0000.0001)                 2.150000000000000E+02,      /* K =  6 */
(PID.TID 0000.0001)                 2.650000000000000E+02,      /* K =  7 */
(PID.TID 0000.0001)                 3.150000000000000E+02,      /* K =  8 */
(PID.TID 0000.0001)                 3.650000000000000E+02,      /* K =  9 */
(PID.TID 0000.0001)                 4.150000000000000E+02,      /* K = 10 */
(PID.TID 0000.0001)                 4.650000000000000E+02,      /* K = 11 */
(PID.TID 0000.0001)                 5.150000000000000E+02,      /* K = 12 */
(PID.TID 0000.0001)                 5.650000000000000E+02,      /* K = 13 */
(PID.TID 0000.0001)                 6.150000000000000E+02,      /* K = 14 */
(PID.TID 0000.0001)                 6.650000000000000E+02       /* K = 15 */
(PID.TID 0000.0001)     ;
(PID.TID 0000.0001) drF =   /* W spacing ( units of r ) */
(PID.TID 0000.0001)                 5.000000000000000E+01,      /* K =  1 */
(PID.TID 0000.0001)                 7.000000000000000E+01,      /* K =  2 */
(PID.TID 0000.0001)                 1.000000000000000E+02,      /* K =  3 */
(PID.TID 0000.0001)                 1.400000000000000E+02,      /* K =  4 */
(PID.TID 0000.0001)                 1.900000000000000E+02,      /* K =  5 */
(PID.TID 0000.0001)                 2.400000000000000E+02,      /* K =  6 */
(PID.TID 0000.0001)                 2.900000000000000E+02,      /* K =  7 */
(PID.TID 0000.0001)                 3.400000000000000E+02,      /* K =  8 */
(PID.TID 0000.0001)                 3.900000000000000E+02,      /* K =  9 */
(PID.TID 0000.0001)                 4.400000000000000E+02,      /* K = 10 */
(PID.TID 0000.0001)                 4.900000000000000E+02,      /* K = 11 */
(PID.TID 0000.0001)                 5.400000000000000E+02,      /* K = 12 */
(PID.TID 0000.0001)                 5.900000000000000E+02,      /* K = 13 */
(PID.TID 0000.0001)                 6.400000000000000E+02,      /* K = 14 */
(PID.TID 0000.0001)                 6.900000000000000E+02       /* K = 15 */
(PID.TID 0000.0001)     ;
(PID.TID 0000.0001) delX =   /* U spacing ( m - cartesian, degrees - spherical ) */
(PID.TID 0000.0001)   192 @  1.234567000000000E+05              /* I =  1:192 */
(PID.TID 0000.0001)     ;
(PID.TID 0000.0001) delY =   /* V spacing ( m - cartesian, degrees - spherical ) */
(PID.TID 0000.0001)    32 @  1.234567000000000E+05              /* J =  1: 32 */
(PID.TID 0000.0001)     ;
(PID.TID 0000.0001) phiMin =    /* South edge (ignored - cartesian, degrees - spherical ) */
(PID.TID 0000.0001)                 0.000000000000000E+00
(PID.TID 0000.0001)     ;
(PID.TID 0000.0001) thetaMin =    /* West edge ( ignored - cartesian, degrees - spherical ) */
(PID.TID 0000.0001)                 0.000000000000000E+00
(PID.TID 0000.0001)     ;
(PID.TID 0000.0001) rSphere =  /* Radius ( ignored - cartesian, m - spherical ) */
(PID.TID 0000.0001)                 6.370000000000000E+06
(PID.TID 0000.0001)     ;
(PID.TID 0000.0001) deepAtmosphere = /* Deep/Shallow Atmosphere flag (True/False) */
(PID.TID 0000.0001)                   F
(PID.TID 0000.0001)     ;
(PID.TID 0000.0001) xcoord =   /* P-point X coord ( m - cartesian, degrees - spherical ) */
(PID.TID 0000.0001)                -4.439521994760536E+01,      /* I =  1 */
(PID.TID 0000.0001)                -4.295641272275883E+01,      /* I =  2 */
(PID.TID 0000.0001)                -4.122055553388957E+01,      /* I =  3 */
(PID.TID 0000.0001)                -3.923446288487304E+01,      /* I =  4 */
(PID.TID 0000.0001)                -3.702585158682200E+01,      /* I =  5 */
(PID.TID 0000.0001)                -3.461179367094151E+01,      /* I =  6 */
(PID.TID 0000.0001)                -3.200434569041793E+01,      /* I =  7 */
(PID.TID 0000.0001)                -2.921355965632675E+01,      /* I =  8 */
(PID.TID 0000.0001)                -2.624932223028290E+01,      /* I =  9 */
(PID.TID 0000.0001)                -2.312261250426344E+01,      /* I = 10 */
(PID.TID 0000.0001)                -1.984640717127058E+01,      /* I = 11 */
(PID.TID 0000.0001)                -1.643630800555134E+01,      /* I = 12 */
(PID.TID 0000.0001)                -1.291089806302069E+01,      /* I = 13 */
(PID.TID 0000.0001)                -9.291807802719402E+00,      /* I = 14 */
(PID.TID 0000.0001)                -5.603475335822332E+00,      /* I = 15 */
(PID.TID 0000.0001)                -1.872608513033445E+00,      /* I = 16 */
(PID.TID 0000.0001)                 1.872608513033445E+00,      /* I = 17 */
(PID.TID 0000.0001)                 5.603475335822332E+00,      /* I = 18 */
(PID.TID 0000.0001)                 9.291807802719402E+00,      /* I = 19 */
(PID.TID 0000.0001)                 1.291089806302069E+01,      /* I = 20 */
(PID.TID 0000.0001)                 1.643630800555134E+01,      /* I = 21 */
(PID.TID 0000.0001)                 1.984640717127058E+01,      /* I = 22 */
(PID.TID 0000.0001)                 2.312261250426344E+01,      /* I = 23 */
(PID.TID 0000.0001)                 2.624932223028290E+01,      /* I = 24 */
(PID.TID 0000.0001)                 2.921355965632675E+01,      /* I = 25 */
(PID.TID 0000.0001)                 3.200434569041793E+01,      /* I = 26 */
(PID.TID 0000.0001)                 3.461179367094151E+01,      /* I = 27 */
(PID.TID 0000.0001)                 3.702585158682200E+01,      /* I = 28 */
(PID.TID 0000.0001)                 3.923446288487304E+01,      /* I = 29 */
(PID.TID 0000.0001)                 4.122055553388957E+01,      /* I = 30 */
(PID.TID 0000.0001)                 4.295641272275883E+01,      /* I = 31 */
(PID.TID 0000.0001)                 4.439521994760536E+01,      /* I = 32 */
(PID.TID 0000.0001)                 4.560478005239464E+01,      /* I = 33 */
(PID.TID 0000.0001)                 4.704358727724117E+01,      /* I = 34 */
(PID.TID 0000.0001)                 4.877944446611043E+01,      /* I = 35 */
(PID.TID 0000.0001)                 5.076553711512697E+01,      /* I = 36 */
(PID.TID 0000.0001)                 5.297414841317801E+01,      /* I = 37 */
(PID.TID 0000.0001)                 5.538820632905850E+01,      /* I = 38 */
(PID.TID 0000.0001)                 5.799565430958209E+01,      /* I = 39 */
(PID.TID 0000.0001)                 6.078644034367325E+01,      /* I = 40 */
(PID.TID 0000.0001)                 6.375067776971711E+01,      /* I = 41 */
(PID.TID 0000.0001)                 6.687738749573657E+01,      /* I = 42 */
(PID.TID 0000.0001)                 7.015359282872943E+01,      /* I = 43 */
(PID.TID 0000.0001)                 7.356369199444866E+01,      /* I = 44 */
(PID.TID 0000.0001)                 7.708910193697932E+01,      /* I = 45 */
(PID.TID 0000.0001)                 8.070819219728060E+01,      /* I = 46 */
(PID.TID 0000.0001)                 8.439652466417766E+01,      /* I = 47 */
(PID.TID 0000.0001)                 8.812739148696656E+01,      /* I = 48 */
(PID.TID 0000.0001)                 9.187260851303344E+01,      /* I = 49 */
(PID.TID 0000.0001)                 9.560347533582234E+01,      /* I = 50 */
(PID.TID 0000.0001)                 9.929180780271940E+01,      /* I = 51 */
(PID.TID 0000.0001)                 1.029108980630207E+02,      /* I = 52 */
(PID.TID 0000.0001)                 1.064363080055513E+02,      /* I = 53 */
(PID.TID 0000.0001)                 1.098464071712706E+02,      /* I = 54 */
(PID.TID 0000.0001)                 1.131226125042634E+02,      /* I = 55 */
(PID.TID 0000.0001)                 1.162493222302829E+02,      /* I = 56 */
(PID.TID 0000.0001)                 1.192135596563268E+02,      /* I = 57 */
(PID.TID 0000.0001)                 1.220043456904179E+02,      /* I = 58 */
(PID.TID 0000.0001)                 1.246117936709415E+02,      /* I = 59 */
(PID.TID 0000.0001)                 1.270258515868220E+02,      /* I = 60 */
(PID.TID 0000.0001)                 1.292344628848730E+02,      /* I = 61 */
(PID.TID 0000.0001)                 1.312205555338896E+02,      /* I = 62 */
(PID.TID 0000.0001)                 1.329564127227588E+02,      /* I = 63 */
(PID.TID 0000.0001)                 1.343952199476053E+02,      /* I = 64 */
(PID.TID 0000.0001)                 4.500000000000000E+01,      /* I = 65 */
(PID.TID 0000.0001)                 4.620805468796297E+01,      /* I = 66 */
(PID.TID 0000.0001)                 4.781369642513039E+01,      /* I = 67 */
(PID.TID 0000.0001)                 4.971767671143929E+01,      /* I = 68 */
(PID.TID 0000.0001)                 5.187738319787235E+01,      /* I = 69 */
(PID.TID 0000.0001)                 5.427004371478710E+01,      /* I = 70 */
(PID.TID 0000.0001)                 5.688128325334060E+01,      /* I = 71 */
(PID.TID 0000.0001)                 5.970018167786760E+01,      /* I = 72 */
(PID.TID 0000.0001)                 6.271654991792347E+01,      /* I = 73 */
(PID.TID 0000.0001)                 6.591914604853015E+01,      /* I = 74 */
(PID.TID 0000.0001)                 6.929439270484148E+01,      /* I = 75 */
(PID.TID 0000.0001)                 7.282545807616151E+01,      /* I = 76 */
(PID.TID 0000.0001)                 7.649168830618933E+01,      /* I = 77 */
(PID.TID 0000.0001)                 8.026842803787176E+01,      /* I = 78 */
(PID.TID 0000.0001)                 8.412726743124185E+01,      /* I = 79 */
(PID.TID 0000.0001)                 8.803672008547504E+01,      /* I = 80 */
(PID.TID 0000.0001)                 9.196327991452496E+01,      /* I = 81 */
(PID.TID 0000.0001)                 9.587273256875815E+01,      /* I = 82 */
(PID.TID 0000.0001)                 9.973157196212824E+01,      /* I = 83 */
(PID.TID 0000.0001)                 1.035083116938107E+02,      /* I = 84 */
(PID.TID 0000.0001)                 1.071745419238385E+02,      /* I = 85 */
(PID.TID 0000.0001)                 1.107056072951585E+02,      /* I = 86 */
(PID.TID 0000.0001)                 1.140808539514698E+02,      /* I = 87 */
(PID.TID 0000.0001)                 1.172834500820765E+02,      /* I = 88 */
(PID.TID 0000.0001)                 1.202998183221324E+02,      /* I = 89 */
(PID.TID 0000.0001)                 1.231187167466594E+02,      /* I = 90 */
(PID.TID 0000.0001)                 1.257299562852129E+02,      /* I = 91 */
(PID.TID 0000.0001)                 1.281226168021277E+02,      /* I = 92 */
(PID.TID 0000.0001)                 1.302823232885607E+02,      /* I = 93 */
(PID.TID 0000.0001)                 1.321863035748696E+02,      /* I = 94 */
(PID.TID 0000.0001)                 1.337919453120370E+02,      /* I = 95 */
(PID.TID 0000.0001)                 1.350000000000000E+02,      /* I = 96 */
(PID.TID 0000.0001)                 1.356047800523947E+02,      /* I = 97 */
(PID.TID 0000.0001)                 1.358367907661329E+02,      /* I = 98 */
(PID.TID 0000.0001)                 1.359720382181193E+02,      /* I = 99 */
(PID.TID 0000.0001)                 1.360654656901789E+02,      /* I =100 */
(PID.TID 0000.0001)                 1.361344533147042E+02,      /* I =101 */
(PID.TID 0000.0001)                 1.361871219420981E+02,      /* I =102 */
(PID.TID 0000.0001)                 1.362280794509603E+02,      /* I =103 */
(PID.TID 0000.0001)                 1.362602511071934E+02,      /* I =104 */
(PID.TID 0000.0001)                 1.362856280326734E+02,      /* I =105 */
(PID.TID 0000.0001)                 1.363056266270901E+02,      /* I =106 */
(PID.TID 0000.0001)                 1.363212817739446E+02,      /* I =107 */
(PID.TID 0000.0001)                 1.363333595910255E+02,      /* I =108 */
(PID.TID 0000.0001)                 1.363424272425760E+02,      /* I =109 */
(PID.TID 0000.0001)                 1.363488978790713E+02,      /* I =110 */
(PID.TID 0000.0001)                 1.363530600590580E+02,      /* I =111 */
(PID.TID 0000.0001)     2 @  1.363550967500717E+02,             /* I =112:113 */
(PID.TID 0000.0001)                 1.363530600590580E+02,      /* I =114 */
(PID.TID 0000.0001)                 1.363488978790713E+02,      /* I =115 */
(PID.TID 0000.0001)                 1.363424272425760E+02,      /* I =116 */
(PID.TID 0000.0001)                 1.363333595910255E+02,      /* I =117 */
(PID.TID 0000.0001)                 1.363212817739446E+02,      /* I =118 */
(PID.TID 0000.0001)                 1.363056266270901E+02,      /* I =119 */
(PID.TID 0000.0001)                 1.362856280326734E+02,      /* I =120 */
(PID.TID 0000.0001)                 1.362602511071934E+02,      /* I =121 */
(PID.TID 0000.0001)                 1.362280794509603E+02,      /* I =122 */
(PID.TID 0000.0001)                 1.361871219420981E+02,      /* I =123 */
(PID.TID 0000.0001)                 1.361344533147042E+02,      /* I =124 */
(PID.TID 0000.0001)                 1.360654656901789E+02,      /* I =125 */
(PID.TID 0000.0001)                 1.359720382181193E+02,      /* I =126 */
(PID.TID 0000.0001)                 1.358367907661329E+02,      /* I =127 */
(PID.TID 0000.0001)                 1.356047800523947E+02,      /* I =128 */
(PID.TID 0000.0001)                -1.343952199476053E+02,      /* I =129 */
(PID.TID 0000.0001)                -1.341632092338671E+02,      /* I =130 */
(PID.TID 0000.0001)                -1.340279617818807E+02,      /* I =131 */
(PID.TID 0000.0001)                -1.339345343098211E+02,      /* I =132 */
(PID.TID 0000.0001)                -1.338655466852958E+02,      /* I =133 */
(PID.TID 0000.0001)                -1.338128780579019E+02,      /* I =134 */
(PID.TID 0000.0001)                -1.337719205490397E+02,      /* I =135 */
(PID.TID 0000.0001)                -1.337397488928066E+02,      /* I =136 */
(PID.TID 0000.0001)                -1.337143719673266E+02,      /* I =137 */
(PID.TID 0000.0001)                -1.336943733729099E+02,      /* I =138 */
(PID.TID 0000.0001)                -1.336787182260554E+02,      /* I =139 */
(PID.TID 0000.0001)                -1.336666404089745E+02,      /* I =140 */
(PID.TID 0000.0001)                -1.336575727574240E+02,      /* I =141 */
(PID.TID 0000.0001)                -1.336511021209287E+02,      /* I =142 */
(PID.TID 0000.0001)                -1.336469399409420E+02,      /* I =143 */
(PID.TID 0000.0001)     2 @ -1.336449032499283E+02,             /* I =144:145 */
(PID.TID 0000.0001)                -1.336469399409420E+02,      /* I =146 */
(PID.TID 0000.0001)                -1.336511021209287E+02,      /* I =147 */
(PID.TID 0000.0001)                -1.336575727574240E+02,      /* I =148 */
(PID.TID 0000.0001)                -1.336666404089745E+02,      /* I =149 */
(PID.TID 0000.0001)                -1.336787182260554E+02,      /* I =150 */
(PID.TID 0000.0001)                -1.336943733729099E+02,      /* I =151 */
(PID.TID 0000.0001)                -1.337143719673266E+02,      /* I =152 */
(PID.TID 0000.0001)                -1.337397488928066E+02,      /* I =153 */
(PID.TID 0000.0001)                -1.337719205490397E+02,      /* I =154 */
(PID.TID 0000.0001)                -1.338128780579019E+02,      /* I =155 */
(PID.TID 0000.0001)                -1.338655466852958E+02,      /* I =156 */
(PID.TID 0000.0001)                -1.339345343098211E+02,      /* I =157 */
(PID.TID 0000.0001)                -1.340279617818807E+02,      /* I =158 */
(PID.TID 0000.0001)                -1.341632092338671E+02,      /* I =159 */
(PID.TID 0000.0001)                -1.343952199476053E+02,      /* I =160 */
(PID.TID 0000.0001)                -1.350000000000000E+02,      /* I =161 */
(PID.TID 0000.0001)                -1.362080546879630E+02,      /* I =162 */
(PID.TID 0000.0001)                -1.378136964251304E+02,      /* I =163 */
(PID.TID 0000.0001)                -1.397176767114393E+02,      /* I =164 */
(PID.TID 0000.0001)                -1.418773831978723E+02,      /* I =165 */
(PID.TID 0000.0001)                -1.442700437147871E+02,      /* I =166 */
(PID.TID 0000.0001)                -1.468812832533406E+02,      /* I =167 */
(PID.TID 0000.0001)                -1.497001816778676E+02,      /* I =168 */
(PID.TID 0000.0001)                -1.527165499179235E+02,      /* I =169 */
(PID.TID 0000.0001)                -1.559191460485302E+02,      /* I =170 */
(PID.TID 0000.0001)                -1.592943927048415E+02,      /* I =171 */
(PID.TID 0000.0001)                -1.628254580761615E+02,      /* I =172 */
(PID.TID 0000.0001)                -1.664916883061893E+02,      /* I =173 */
(PID.TID 0000.0001)                -1.702684280378718E+02,      /* I =174 */
(PID.TID 0000.0001)                -1.741272674312418E+02,      /* I =175 */
(PID.TID 0000.0001)                -1.780367200854751E+02,      /* I =176 */
(PID.TID 0000.0001)                 1.780367200854751E+02,      /* I =177 */
(PID.TID 0000.0001)                 1.741272674312418E+02,      /* I =178 */
(PID.TID 0000.0001)                 1.702684280378718E+02,      /* I =179 */
(PID.TID 0000.0001)                 1.664916883061893E+02,      /* I =180 */
(PID.TID 0000.0001)                 1.628254580761615E+02,      /* I =181 */
(PID.TID 0000.0001)                 1.592943927048415E+02,      /* I =182 */
(PID.TID 0000.0001)                 1.559191460485302E+02,      /* I =183 */
(PID.TID 0000.0001)                 1.527165499179235E+02,      /* I =184 */
(PID.TID 0000.0001)                 1.497001816778676E+02,      /* I =185 */
(PID.TID 0000.0001)                 1.468812832533406E+02,      /* I =186 */
(PID.TID 0000.0001)                 1.442700437147871E+02,      /* I =187 */
(PID.TID 0000.0001)                 1.418773831978723E+02,      /* I =188 */
(PID.TID 0000.0001)                 1.397176767114393E+02,      /* I =189 */
(PID.TID 0000.0001)                 1.378136964251304E+02,      /* I =190 */
(PID.TID 0000.0001)                 1.362080546879630E+02,      /* I =191 */
(PID.TID 0000.0001)                 1.350000000000000E+02       /* I =192 */
(PID.TID 0000.0001)     ;
(PID.TID 0000.0001) ycoord =   /* P-point Y coord ( m - cartesian, degrees - spherical ) */
(PID.TID 0000.0001)                -3.497677942598243E+01,      /* J =  1 */
(PID.TID 0000.0001)                -3.374005967394886E+01,      /* J =  2 */
(PID.TID 0000.0001)                -3.220655175667454E+01,      /* J =  3 */
(PID.TID 0000.0001)                -3.045756348838641E+01,      /* J =  4 */
(PID.TID 0000.0001)                -2.853728129852918E+01,      /* J =  5 */
(PID.TID 0000.0001)                -2.647426640173173E+01,      /* J =  6 */
(PID.TID 0000.0001)                -2.428936657094636E+01,      /* J =  7 */
(PID.TID 0000.0001)                -2.199915808312262E+01,      /* J =  8 */
(PID.TID 0000.0001)                -1.961768597440146E+01,      /* J =  9 */
(PID.TID 0000.0001)                -1.715743888281371E+01,      /* J = 10 */
(PID.TID 0000.0001)                -1.462993396899330E+01,      /* J = 11 */
(PID.TID 0000.0001)                -1.204608340464756E+01,      /* J = 12 */
(PID.TID 0000.0001)                -9.416429130284818E+00,      /* J = 13 */
(PID.TID 0000.0001)                -6.751293662992216E+00,      /* J = 14 */
(PID.TID 0000.0001)                -4.060875511835959E+00,      /* J = 15 */
(PID.TID 0000.0001)                -1.355307764409121E+00,      /* J = 16 */
(PID.TID 0000.0001)                 1.355307764409121E+00,      /* J = 17 */
(PID.TID 0000.0001)                 4.060875511835959E+00,      /* J = 18 */
(PID.TID 0000.0001)                 6.751293662992216E+00,      /* J = 19 */
(PID.TID 0000.0001)                 9.416429130284818E+00,      /* J = 20 */
(PID.TID 0000.0001)                 1.204608340464756E+01,      /* J = 21 */
(PID.TID 0000.0001)                 1.462993396899330E+01,      /* J = 22 */
(PID.TID 0000.0001)                 1.715743888281371E+01,      /* J = 23 */
(PID.TID 0000.0001)                 1.961768597440146E+01,      /* J = 24 */
(PID.TID 0000.0001)                 2.199915808312262E+01,      /* J = 25 */
(PID.TID 0000.0001)                 2.428936657094636E+01,      /* J = 26 */
(PID.TID 0000.0001)                 2.647426640173173E+01,      /* J = 27 */
(PID.TID 0000.0001)                 2.853728129852918E+01,      /* J = 28 */
(PID.TID 0000.0001)                 3.045756348838641E+01,      /* J = 29 */
(PID.TID 0000.0001)                 3.220655175667454E+01,      /* J = 30 */
(PID.TID 0000.0001)                 3.374005967394886E+01,      /* J = 31 */
(PID.TID 0000.0001)                 3.497677942598243E+01       /* J = 32 */
(PID.TID 0000.0001)     ;
(PID.TID 0000.0001) rcoord =   /* P-point R coordinate (  units of r ) */
(PID.TID 0000.0001)                -2.500000000000000E+01,      /* K =  1 */
(PID.TID 0000.0001)                -8.500000000000000E+01,      /* K =  2 */
(PID.TID 0000.0001)                -1.700000000000000E+02,      /* K =  3 */
(PID.TID 0000.0001)                -2.900000000000000E+02,      /* K =  4 */
(PID.TID 0000.0001)                -4.550000000000000E+02,      /* K =  5 */
(PID.TID 0000.0001)                -6.700000000000000E+02,      /* K =  6 */
(PID.TID 0000.0001)                -9.350000000000000E+02,      /* K =  7 */
(PID.TID 0000.0001)                -1.250000000000000E+03,      /* K =  8 */
(PID.TID 0000.0001)                -1.615000000000000E+03,      /* K =  9 */
(PID.TID 0000.0001)                -2.030000000000000E+03,      /* K = 10 */
(PID.TID 0000.0001)                -2.495000000000000E+03,      /* K = 11 */
(PID.TID 0000.0001)                -3.010000000000000E+03,      /* K = 12 */
(PID.TID 0000.0001)                -3.575000000000000E+03,      /* K = 13 */
(PID.TID 0000.0001)                -4.190000000000000E+03,      /* K = 14 */
(PID.TID 0000.0001)                -4.855000000000000E+03       /* K = 15 */
(PID.TID 0000.0001)     ;
(PID.TID 0000.0001) rF =   /* W-Interf. R coordinate (  units of r ) */
(PID.TID 0000.0001)                 0.000000000000000E+00,      /* K =  1 */
(PID.TID 0000.0001)                -5.000000000000000E+01,      /* K =  2 */
(PID.TID 0000.0001)                -1.200000000000000E+02,      /* K =  3 */
(PID.TID 0000.0001)                -2.200000000000000E+02,      /* K =  4 */
(PID.TID 0000.0001)                -3.600000000000000E+02,      /* K =  5 */
(PID.TID 0000.0001)                -5.500000000000000E+02,      /* K =  6 */
(PID.TID 0000.0001)                -7.900000000000000E+02,      /* K =  7 */
(PID.TID 0000.0001)                -1.080000000000000E+03,      /* K =  8 */
(PID.TID 0000.0001)                -1.420000000000000E+03,      /* K =  9 */
(PID.TID 0000.0001)                -1.810000000000000E+03,      /* K = 10 */
(PID.TID 0000.0001)                -2.250000000000000E+03,      /* K = 11 */
(PID.TID 0000.0001)                -2.740000000000000E+03,      /* K = 12 */
(PID.TID 0000.0001)                -3.280000000000000E+03,      /* K = 13 */
(PID.TID 0000.0001)                -3.870000000000000E+03,      /* K = 14 */
(PID.TID 0000.0001)                -4.510000000000000E+03,      /* K = 15 */
(PID.TID 0000.0001)                -5.200000000000000E+03       /* K = 16 */
(PID.TID 0000.0001)     ;
(PID.TID 0000.0001) deepFacC = /* deep-model grid factor @ cell-Center (-) */
(PID.TID 0000.0001)    15 @  1.000000000000000E+00              /* K =  1: 15 */
(PID.TID 0000.0001)     ;
(PID.TID 0000.0001) deepFacF = /* deep-model grid factor @ W-Interface (-) */
(PID.TID 0000.0001)    16 @  1.000000000000000E+00              /* K =  1: 16 */
(PID.TID 0000.0001)     ;
(PID.TID 0000.0001) rVel2wUnit = /* convert units: rVel -> wSpeed (=1 if z-coord)*/
(PID.TID 0000.0001)    16 @  1.000000000000000E+00              /* K =  1: 16 */
(PID.TID 0000.0001)     ;
(PID.TID 0000.0001) wUnit2rVel = /* convert units: wSpeed -> rVel (=1 if z-coord)*/
(PID.TID 0000.0001)    16 @  1.000000000000000E+00              /* K =  1: 16 */
(PID.TID 0000.0001)     ;
(PID.TID 0000.0001) dBdrRef = /* Vertical gradient of reference boyancy [(m/s/r)^2)] */
(PID.TID 0000.0001)    15 @  0.000000000000000E+00              /* K =  1: 15 */
(PID.TID 0000.0001)     ;
(PID.TID 0000.0001) dxF =  /* dxF(:,1,:,1) ( units: m ) */
(PID.TID 0000.0001)                 1.202082051331828E+05,      /* I =  1 */
(PID.TID 0000.0001)                 1.563594089971120E+05,      /* I =  2 */
(PID.TID 0000.0001)                 1.835530058121492E+05,      /* I =  3 */
(PID.TID 0000.0001)                 2.045883481718707E+05,      /* I =  4 */
(PID.TID 0000.0001)                 2.218350349844185E+05,      /* I =  5 */
(PID.TID 0000.0001)                 2.364352994647058E+05,      /* I =  6 */
(PID.TID 0000.0001)                 2.490022710862746E+05,      /* I =  7 */
(PID.TID 0000.0001)                 2.598919724358304E+05,      /* I =  8 */
(PID.TID 0000.0001)                 2.693210245495156E+05,      /* I =  9 */
(PID.TID 0000.0001)                 2.774243179696503E+05,      /* I = 10 */
(PID.TID 0000.0001)                 2.842862532064524E+05,      /* I = 11 */
(PID.TID 0000.0001)                 2.899590699694043E+05,      /* I = 12 */
(PID.TID 0000.0001)                 2.944742915095688E+05,      /* I = 13 */
(PID.TID 0000.0001)                 2.978501920522794E+05,      /* I = 14 */
(PID.TID 0000.0001)                 3.000967749619962E+05,      /* I = 15 */
(PID.TID 0000.0001)     2 @  3.012190981969055E+05,             /* I = 16: 17 */
(PID.TID 0000.0001)                 3.000967749619962E+05,      /* I = 18 */
(PID.TID 0000.0001)                 2.978501920522794E+05,      /* I = 19 */
(PID.TID 0000.0001)                 2.944742915095688E+05,      /* I = 20 */
(PID.TID 0000.0001)                 2.899590699694043E+05,      /* I = 21 */
(PID.TID 0000.0001)                 2.842862532064524E+05,      /* I = 22 */
(PID.TID 0000.0001)                 2.774243179696503E+05,      /* I = 23 */
(PID.TID 0000.0001)                 2.693210245495156E+05,      /* I = 24 */
(PID.TID 0000.0001)                 2.598919724358304E+05,      /* I = 25 */
(PID.TID 0000.0001)                 2.490022710862746E+05,      /* I = 26 */
(PID.TID 0000.0001)                 2.364352994647058E+05,      /* I = 27 */
(PID.TID 0000.0001)                 2.218350349844185E+05,      /* I = 28 */
(PID.TID 0000.0001)                 2.045883481718707E+05,      /* I = 29 */
(PID.TID 0000.0001)                 1.835530058121492E+05,      /* I = 30 */
(PID.TID 0000.0001)                 1.563594089971120E+05,      /* I = 31 */
(PID.TID 0000.0001)     2 @  1.202082051331828E+05,             /* I = 32: 33 */
(PID.TID 0000.0001)                 1.563594089971120E+05,      /* I = 34 */
(PID.TID 0000.0001)                 1.835530058121492E+05,      /* I = 35 */
(PID.TID 0000.0001)                 2.045883481718707E+05,      /* I = 36 */
(PID.TID 0000.0001)                 2.218350349844185E+05,      /* I = 37 */
(PID.TID 0000.0001)                 2.364352994647058E+05,      /* I = 38 */
(PID.TID 0000.0001)                 2.490022710862746E+05,      /* I = 39 */
(PID.TID 0000.0001)                 2.598919724358304E+05,      /* I = 40 */
(PID.TID 0000.0001)                 2.693210245495156E+05,      /* I = 41 */
(PID.TID 0000.0001)                 2.774243179696503E+05,      /* I = 42 */
(PID.TID 0000.0001)                 2.842862532064524E+05,      /* I = 43 */
(PID.TID 0000.0001)                 2.899590699694043E+05,      /* I = 44 */
(PID.TID 0000.0001)                 2.944742915095688E+05,      /* I = 45 */
(PID.TID 0000.0001)                 2.978501920522794E+05,      /* I = 46 */
(PID.TID 0000.0001)                 3.000967749619962E+05,      /* I = 47 */
(PID.TID 0000.0001)     2 @  3.012190981969055E+05,             /* I = 48: 49 */
(PID.TID 0000.0001)                 3.000967749619962E+05,      /* I = 50 */
(PID.TID 0000.0001)                 2.978501920522794E+05,      /* I = 51 */
(PID.TID 0000.0001)                 2.944742915095688E+05,      /* I = 52 */
(PID.TID 0000.0001)                 2.899590699694043E+05,      /* I = 53 */
(PID.TID 0000.0001)                 2.842862532064524E+05,      /* I = 54 */
(PID.TID 0000.0001)                 2.774243179696503E+05,      /* I = 55 */
(PID.TID 0000.0001)                 2.693210245495156E+05,      /* I = 56 */
(PID.TID 0000.0001)                 2.598919724358304E+05,      /* I = 57 */
(PID.TID 0000.0001)                 2.490022710862746E+05,      /* I = 58 */
(PID.TID 0000.0001)                 2.364352994647058E+05,      /* I = 59 */
(PID.TID 0000.0001)                 2.218350349844185E+05,      /* I = 60 */
(PID.TID 0000.0001)                 2.045883481718707E+05,      /* I = 61 */
(PID.TID 0000.0001)                 1.835530058121492E+05,      /* I = 62 */
(PID.TID 0000.0001)                 1.563594089971120E+05,      /* I = 63 */
(PID.TID 0000.0001)     2 @  1.202082051331828E+05,             /* I = 64: 65 */
(PID.TID 0000.0001)                 1.563594089971120E+05,      /* I = 66 */
(PID.TID 0000.0001)                 1.835530058121492E+05,      /* I = 67 */
(PID.TID 0000.0001)                 2.045883481718707E+05,      /* I = 68 */
(PID.TID 0000.0001)                 2.218350349844185E+05,      /* I = 69 */
(PID.TID 0000.0001)                 2.364352994647058E+05,      /* I = 70 */
(PID.TID 0000.0001)                 2.490022710862746E+05,      /* I = 71 */
(PID.TID 0000.0001)                 2.598919724358304E+05,      /* I = 72 */
(PID.TID 0000.0001)                 2.693210245495156E+05,      /* I = 73 */
(PID.TID 0000.0001)                 2.774243179696503E+05,      /* I = 74 */
(PID.TID 0000.0001)                 2.842862532064524E+05,      /* I = 75 */
(PID.TID 0000.0001)                 2.899590699694043E+05,      /* I = 76 */
(PID.TID 0000.0001)                 2.944742915095688E+05,      /* I = 77 */
(PID.TID 0000.0001)                 2.978501920522794E+05,      /* I = 78 */
(PID.TID 0000.0001)                 3.000967749619962E+05,      /* I = 79 */
(PID.TID 0000.0001)     2 @  3.012190981969055E+05,             /* I = 80: 81 */
(PID.TID 0000.0001)                 3.000967749619962E+05,      /* I = 82 */
(PID.TID 0000.0001)                 2.978501920522794E+05,      /* I = 83 */
(PID.TID 0000.0001)                 2.944742915095688E+05,      /* I = 84 */
(PID.TID 0000.0001)                 2.899590699694043E+05,      /* I = 85 */
(PID.TID 0000.0001)                 2.842862532064524E+05,      /* I = 86 */
(PID.TID 0000.0001)                 2.774243179696503E+05,      /* I = 87 */
(PID.TID 0000.0001)                 2.693210245495156E+05,      /* I = 88 */
(PID.TID 0000.0001)                 2.598919724358304E+05,      /* I = 89 */
(PID.TID 0000.0001)                 2.490022710862746E+05,      /* I = 90 */
(PID.TID 0000.0001)                 2.364352994647058E+05,      /* I = 91 */
(PID.TID 0000.0001)                 2.218350349844185E+05,      /* I = 92 */
(PID.TID 0000.0001)                 2.045883481718707E+05,      /* I = 93 */
(PID.TID 0000.0001)                 1.835530058121492E+05,      /* I = 94 */
(PID.TID 0000.0001)                 1.563594089971120E+05,      /* I = 95 */
(PID.TID 0000.0001)     2 @  1.202082051331828E+05,             /* I = 96: 97 */
(PID.TID 0000.0001)                 1.563594089971120E+05,      /* I = 98 */
(PID.TID 0000.0001)                 1.835530058121492E+05,      /* I = 99 */
(PID.TID 0000.0001)                 2.045883481718707E+05,      /* I =100 */
(PID.TID 0000.0001)                 2.218350349844185E+05,      /* I =101 */
(PID.TID 0000.0001)                 2.364352994647058E+05,      /* I =102 */
(PID.TID 0000.0001)                 2.490022710862746E+05,      /* I =103 */
(PID.TID 0000.0001)                 2.598919724358304E+05,      /* I =104 */
(PID.TID 0000.0001)                 2.693210245495156E+05,      /* I =105 */
(PID.TID 0000.0001)                 2.774243179696503E+05,      /* I =106 */
(PID.TID 0000.0001)                 2.842862532064524E+05,      /* I =107 */
(PID.TID 0000.0001)                 2.899590699694043E+05,      /* I =108 */
(PID.TID 0000.0001)                 2.944742915095688E+05,      /* I =109 */
(PID.TID 0000.0001)                 2.978501920522794E+05,      /* I =110 */
(PID.TID 0000.0001)                 3.000967749619962E+05,      /* I =111 */
(PID.TID 0000.0001)     2 @  3.012190981969055E+05,             /* I =112:113 */
(PID.TID 0000.0001)                 3.000967749619962E+05,      /* I =114 */
(PID.TID 0000.0001)                 2.978501920522794E+05,      /* I =115 */
(PID.TID 0000.0001)                 2.944742915095688E+05,      /* I =116 */
(PID.TID 0000.0001)                 2.899590699694043E+05,      /* I =117 */
(PID.TID 0000.0001)                 2.842862532064524E+05,      /* I =118 */
(PID.TID 0000.0001)                 2.774243179696503E+05,      /* I =119 */
(PID.TID 0000.0001)                 2.693210245495156E+05,      /* I =120 */
(PID.TID 0000.0001)                 2.598919724358304E+05,      /* I =121 */
(PID.TID 0000.0001)                 2.490022710862746E+05,      /* I =122 */
(PID.TID 0000.0001)                 2.364352994647058E+05,      /* I =123 */
(PID.TID 0000.0001)                 2.218350349844185E+05,      /* I =124 */
(PID.TID 0000.0001)                 2.045883481718707E+05,      /* I =125 */
(PID.TID 0000.0001)                 1.835530058121492E+05,      /* I =126 */
(PID.TID 0000.0001)                 1.563594089971120E+05,      /* I =127 */
(PID.TID 0000.0001)     2 @  1.202082051331828E+05,             /* I =128:129 */
(PID.TID 0000.0001)                 1.563594089971120E+05,      /* I =130 */
(PID.TID 0000.0001)                 1.835530058121492E+05,      /* I =131 */
(PID.TID 0000.0001)                 2.045883481718707E+05,      /* I =132 */
(PID.TID 0000.0001)                 2.218350349844185E+05,      /* I =133 */
(PID.TID 0000.0001)                 2.364352994647058E+05,      /* I =134 */
(PID.TID 0000.0001)                 2.490022710862746E+05,      /* I =135 */
(PID.TID 0000.0001)                 2.598919724358304E+05,      /* I =136 */
(PID.TID 0000.0001)                 2.693210245495156E+05,      /* I =137 */
(PID.TID 0000.0001)                 2.774243179696503E+05,      /* I =138 */
(PID.TID 0000.0001)                 2.842862532064524E+05,      /* I =139 */
(PID.TID 0000.0001)                 2.899590699694043E+05,      /* I =140 */
(PID.TID 0000.0001)                 2.944742915095688E+05,      /* I =141 */
(PID.TID 0000.0001)                 2.978501920522794E+05,      /* I =142 */
(PID.TID 0000.0001)                 3.000967749619962E+05,      /* I =143 */
(PID.TID 0000.0001)     2 @  3.012190981969055E+05,             /* I =144:145 */
(PID.TID 0000.0001)                 3.000967749619962E+05,      /* I =146 */
(PID.TID 0000.0001)                 2.978501920522794E+05,      /* I =147 */
(PID.TID 0000.0001)                 2.944742915095688E+05,      /* I =148 */
(PID.TID 0000.0001)                 2.899590699694043E+05,      /* I =149 */
(PID.TID 0000.0001)                 2.842862532064524E+05,      /* I =150 */
(PID.TID 0000.0001)                 2.774243179696503E+05,      /* I =151 */
(PID.TID 0000.0001)                 2.693210245495156E+05,      /* I =152 */
(PID.TID 0000.0001)                 2.598919724358304E+05,      /* I =153 */
(PID.TID 0000.0001)                 2.490022710862746E+05,      /* I =154 */
(PID.TID 0000.0001)                 2.364352994647058E+05,      /* I =155 */
(PID.TID 0000.0001)                 2.218350349844185E+05,      /* I =156 */
(PID.TID 0000.0001)                 2.045883481718707E+05,      /* I =157 */
(PID.TID 0000.0001)                 1.835530058121492E+05,      /* I =158 */
(PID.TID 0000.0001)                 1.563594089971120E+05,      /* I =159 */
(PID.TID 0000.0001)     2 @  1.202082051331828E+05,             /* I =160:161 */
(PID.TID 0000.0001)                 1.563594089971120E+05,      /* I =162 */
(PID.TID 0000.0001)                 1.835530058121492E+05,      /* I =163 */
(PID.TID 0000.0001)                 2.045883481718707E+05,      /* I =164 */
(PID.TID 0000.0001)                 2.218350349844185E+05,      /* I =165 */
(PID.TID 0000.0001)                 2.364352994647058E+05,      /* I =166 */
(PID.TID 0000.0001)                 2.490022710862746E+05,      /* I =167 */
(PID.TID 0000.0001)                 2.598919724358304E+05,      /* I =168 */
(PID.TID 0000.0001)                 2.693210245495156E+05,      /* I =169 */
(PID.TID 0000.0001)                 2.774243179696503E+05,      /* I =170 */
(PID.TID 0000.0001)                 2.842862532064524E+05,      /* I =171 */
(PID.TID 0000.0001)                 2.899590699694043E+05,      /* I =172 */
(PID.TID 0000.0001)                 2.944742915095688E+05,      /* I =173 */
(PID.TID 0000.0001)                 2.978501920522794E+05,      /* I =174 */
(PID.TID 0000.0001)                 3.000967749619962E+05,      /* I =175 */
(PID.TID 0000.0001)     2 @  3.012190981969055E+05,             /* I =176:177 */
(PID.TID 0000.0001)                 3.000967749619962E+05,      /* I =178 */
(PID.TID 0000.0001)                 2.978501920522794E+05,      /* I =179 */
(PID.TID 0000.0001)                 2.944742915095688E+05,      /* I =180 */
(PID.TID 0000.0001)                 2.899590699694043E+05,      /* I =181 */
(PID.TID 0000.0001)                 2.842862532064524E+05,      /* I =182 */
(PID.TID 0000.0001)                 2.774243179696503E+05,      /* I =183 */
(PID.TID 0000.0001)                 2.693210245495156E+05,      /* I =184 */
(PID.TID 0000.0001)                 2.598919724358304E+05,      /* I =185 */
(PID.TID 0000.0001)                 2.490022710862746E+05,      /* I =186 */
(PID.TID 0000.0001)                 2.364352994647058E+05,      /* I =187 */
(PID.TID 0000.0001)                 2.218350349844185E+05,      /* I =188 */
(PID.TID 0000.0001)                 2.045883481718707E+05,      /* I =189 */
(PID.TID 0000.0001)                 1.835530058121492E+05,      /* I =190 */
(PID.TID 0000.0001)                 1.563594089971120E+05,      /* I =191 */
(PID.TID 0000.0001)                 1.202082051331828E+05       /* I =192 */
(PID.TID 0000.0001)     ;
(PID.TID 0000.0001) dxF =  /* dxF(1,:,1,:) ( units: m ) */
(PID.TID 0000.0001)                 1.202082051331828E+05,      /* J =  1 */
(PID.TID 0000.0001)                 1.572908084538706E+05,      /* J =  2 */
(PID.TID 0000.0001)                 1.840412227747703E+05,      /* J =  3 */
(PID.TID 0000.0001)                 2.048868197919576E+05,      /* J =  4 */
(PID.TID 0000.0001)                 2.220405216043041E+05,      /* J =  5 */
(PID.TID 0000.0001)                 2.365892017348392E+05,      /* J =  6 */
(PID.TID 0000.0001)                 2.491250781852558E+05,      /* J =  7 */
(PID.TID 0000.0001)                 2.599949918261881E+05,      /* J =  8 */
(PID.TID 0000.0001)                 2.694110134598581E+05,      /* J =  9 */
(PID.TID 0000.0001)                 2.775055554645015E+05,      /* J = 10 */
(PID.TID 0000.0001)                 2.843615645344775E+05,      /* J = 11 */
(PID.TID 0000.0001)                 2.900303768613599E+05,      /* J = 12 */
(PID.TID 0000.0001)                 2.945429307892709E+05,      /* J = 13 */
(PID.TID 0000.0001)                 2.979171143158405E+05,      /* J = 14 */
(PID.TID 0000.0001)                 3.001626787528886E+05,      /* J = 15 */
(PID.TID 0000.0001)     2 @  3.012844832048790E+05,             /* J = 16: 17 */
(PID.TID 0000.0001)                 3.001626787528886E+05,      /* J = 18 */
(PID.TID 0000.0001)                 2.979171143158405E+05,      /* J = 19 */
(PID.TID 0000.0001)                 2.945429307892709E+05,      /* J = 20 */
(PID.TID 0000.0001)                 2.900303768613599E+05,      /* J = 21 */
(PID.TID 0000.0001)                 2.843615645344775E+05,      /* J = 22 */
(PID.TID 0000.0001)                 2.775055554645015E+05,      /* J = 23 */
(PID.TID 0000.0001)                 2.694110134598581E+05,      /* J = 24 */
(PID.TID 0000.0001)                 2.599949918261881E+05,      /* J = 25 */
(PID.TID 0000.0001)                 2.491250781852558E+05,      /* J = 26 */
(PID.TID 0000.0001)                 2.365892017348392E+05,      /* J = 27 */
(PID.TID 0000.0001)                 2.220405216043041E+05,      /* J = 28 */
(PID.TID 0000.0001)                 2.048868197919576E+05,      /* J = 29 */
(PID.TID 0000.0001)                 1.840412227747703E+05,      /* J = 30 */
(PID.TID 0000.0001)                 1.572908084538706E+05,      /* J = 31 */
(PID.TID 0000.0001)                 1.202082051331828E+05       /* J = 32 */
(PID.TID 0000.0001)     ;
(PID.TID 0000.0001) dyF =  /* dyF(:,1,:,1) ( units: m ) */
(PID.TID 0000.0001)                 1.202082051331828E+05,      /* I =  1 */
(PID.TID 0000.0001)                 1.572908084538706E+05,      /* I =  2 */
(PID.TID 0000.0001)                 1.840412227747703E+05,      /* I =  3 */
(PID.TID 0000.0001)                 2.048868197919576E+05,      /* I =  4 */
(PID.TID 0000.0001)                 2.220405216043041E+05,      /* I =  5 */
(PID.TID 0000.0001)                 2.365892017348392E+05,      /* I =  6 */
(PID.TID 0000.0001)                 2.491250781852558E+05,      /* I =  7 */
(PID.TID 0000.0001)                 2.599949918261881E+05,      /* I =  8 */
(PID.TID 0000.0001)                 2.694110134598581E+05,      /* I =  9 */
(PID.TID 0000.0001)                 2.775055554645015E+05,      /* I = 10 */
(PID.TID 0000.0001)                 2.843615645344775E+05,      /* I = 11 */
(PID.TID 0000.0001)                 2.900303768613599E+05,      /* I = 12 */
(PID.TID 0000.0001)                 2.945429307892709E+05,      /* I = 13 */
(PID.TID 0000.0001)                 2.979171143158405E+05,      /* I = 14 */
(PID.TID 0000.0001)                 3.001626787528886E+05,      /* I = 15 */
(PID.TID 0000.0001)     2 @  3.012844832048790E+05,             /* I = 16: 17 */
(PID.TID 0000.0001)                 3.001626787528886E+05,      /* I = 18 */
(PID.TID 0000.0001)                 2.979171143158405E+05,      /* I = 19 */
(PID.TID 0000.0001)                 2.945429307892709E+05,      /* I = 20 */
(PID.TID 0000.0001)                 2.900303768613599E+05,      /* I = 21 */
(PID.TID 0000.0001)                 2.843615645344775E+05,      /* I = 22 */
(PID.TID 0000.0001)                 2.775055554645015E+05,      /* I = 23 */
(PID.TID 0000.0001)                 2.694110134598581E+05,      /* I = 24 */
(PID.TID 0000.0001)                 2.599949918261881E+05,      /* I = 25 */
(PID.TID 0000.0001)                 2.491250781852558E+05,      /* I = 26 */
(PID.TID 0000.0001)                 2.365892017348392E+05,      /* I = 27 */
(PID.TID 0000.0001)                 2.220405216043041E+05,      /* I = 28 */
(PID.TID 0000.0001)                 2.048868197919576E+05,      /* I = 29 */
(PID.TID 0000.0001)                 1.840412227747703E+05,      /* I = 30 */
(PID.TID 0000.0001)                 1.572908084538706E+05,      /* I = 31 */
(PID.TID 0000.0001)     2 @  1.202082051331828E+05,             /* I = 32: 33 */
(PID.TID 0000.0001)                 1.572908084538706E+05,      /* I = 34 */
(PID.TID 0000.0001)                 1.840412227747703E+05,      /* I = 35 */
(PID.TID 0000.0001)                 2.048868197919576E+05,      /* I = 36 */
(PID.TID 0000.0001)                 2.220405216043041E+05,      /* I = 37 */
(PID.TID 0000.0001)                 2.365892017348392E+05,      /* I = 38 */
(PID.TID 0000.0001)                 2.491250781852558E+05,      /* I = 39 */
(PID.TID 0000.0001)                 2.599949918261881E+05,      /* I = 40 */
(PID.TID 0000.0001)                 2.694110134598581E+05,      /* I = 41 */
(PID.TID 0000.0001)                 2.775055554645015E+05,      /* I = 42 */
(PID.TID 0000.0001)                 2.843615645344775E+05,      /* I = 43 */
(PID.TID 0000.0001)                 2.900303768613599E+05,      /* I = 44 */
(PID.TID 0000.0001)                 2.945429307892709E+05,      /* I = 45 */
(PID.TID 0000.0001)                 2.979171143158405E+05,      /* I = 46 */
(PID.TID 0000.0001)                 3.001626787528886E+05,      /* I = 47 */
(PID.TID 0000.0001)     2 @  3.012844832048790E+05,             /* I = 48: 49 */
(PID.TID 0000.0001)                 3.001626787528886E+05,      /* I = 50 */
(PID.TID 0000.0001)                 2.979171143158405E+05,      /* I = 51 */
(PID.TID 0000.0001)                 2.945429307892709E+05,      /* I = 52 */
(PID.TID 0000.0001)                 2.900303768613599E+05,      /* I = 53 */
(PID.TID 0000.0001)                 2.843615645344775E+05,      /* I = 54 */
(PID.TID 0000.0001)                 2.775055554645015E+05,      /* I = 55 */
(PID.TID 0000.0001)                 2.694110134598581E+05,      /* I = 56 */
(PID.TID 0000.0001)                 2.599949918261881E+05,      /* I = 57 */
(PID.TID 0000.0001)                 2.491250781852558E+05,      /* I = 58 */
(PID.TID 0000.0001)                 2.365892017348392E+05,      /* I = 59 */
(PID.TID 0000.0001)                 2.220405216043041E+05,      /* I = 60 */
(PID.TID 0000.0001)                 2.048868197919576E+05,      /* I = 61 */
(PID.TID 0000.0001)                 1.840412227747703E+05,      /* I = 62 */
(PID.TID 0000.0001)                 1.572908084538706E+05,      /* I = 63 */
(PID.TID 0000.0001)     2 @  1.202082051331828E+05,             /* I = 64: 65 */
(PID.TID 0000.0001)                 1.572908084538706E+05,      /* I = 66 */
(PID.TID 0000.0001)                 1.840412227747703E+05,      /* I = 67 */
(PID.TID 0000.0001)                 2.048868197919576E+05,      /* I = 68 */
(PID.TID 0000.0001)                 2.220405216043041E+05,      /* I = 69 */
(PID.TID 0000.0001)                 2.365892017348392E+05,      /* I = 70 */
(PID.TID 0000.0001)                 2.491250781852558E+05,      /* I = 71 */
(PID.TID 0000.0001)                 2.599949918261881E+05,      /* I = 72 */
(PID.TID 0000.0001)                 2.694110134598581E+05,      /* I = 73 */
(PID.TID 0000.0001)                 2.775055554645015E+05,      /* I = 74 */
(PID.TID 0000.0001)                 2.843615645344775E+05,      /* I = 75 */
(PID.TID 0000.0001)                 2.900303768613599E+05,      /* I = 76 */
(PID.TID 0000.0001)                 2.945429307892709E+05,      /* I = 77 */
(PID.TID 0000.0001)                 2.979171143158405E+05,      /* I = 78 */
(PID.TID 0000.0001)                 3.001626787528886E+05,      /* I = 79 */
(PID.TID 0000.0001)     2 @  3.012844832048790E+05,             /* I = 80: 81 */
(PID.TID 0000.0001)                 3.001626787528886E+05,      /* I = 82 */
(PID.TID 0000.0001)                 2.979171143158405E+05,      /* I = 83 */
(PID.TID 0000.0001)                 2.945429307892709E+05,      /* I = 84 */
(PID.TID 0000.0001)                 2.900303768613599E+05,      /* I = 85 */
(PID.TID 0000.0001)                 2.843615645344775E+05,      /* I = 86 */
(PID.TID 0000.0001)                 2.775055554645015E+05,      /* I = 87 */
(PID.TID 0000.0001)                 2.694110134598581E+05,      /* I = 88 */
(PID.TID 0000.0001)                 2.599949918261881E+05,      /* I = 89 */
(PID.TID 0000.0001)                 2.491250781852558E+05,      /* I = 90 */
(PID.TID 0000.0001)                 2.365892017348392E+05,      /* I = 91 */
(PID.TID 0000.0001)                 2.220405216043041E+05,      /* I = 92 */
(PID.TID 0000.0001)                 2.048868197919576E+05,      /* I = 93 */
(PID.TID 0000.0001)                 1.840412227747703E+05,      /* I = 94 */
(PID.TID 0000.0001)                 1.572908084538706E+05,      /* I = 95 */
(PID.TID 0000.0001)     2 @  1.202082051331828E+05,             /* I = 96: 97 */
(PID.TID 0000.0001)                 1.572908084538706E+05,      /* I = 98 */
(PID.TID 0000.0001)                 1.840412227747703E+05,      /* I = 99 */
(PID.TID 0000.0001)                 2.048868197919576E+05,      /* I =100 */
(PID.TID 0000.0001)                 2.220405216043041E+05,      /* I =101 */
(PID.TID 0000.0001)                 2.365892017348392E+05,      /* I =102 */
(PID.TID 0000.0001)                 2.491250781852558E+05,      /* I =103 */
(PID.TID 0000.0001)                 2.599949918261881E+05,      /* I =104 */
(PID.TID 0000.0001)                 2.694110134598581E+05,      /* I =105 */
(PID.TID 0000.0001)                 2.775055554645015E+05,      /* I =106 */
(PID.TID 0000.0001)                 2.843615645344775E+05,      /* I =107 */
(PID.TID 0000.0001)                 2.900303768613599E+05,      /* I =108 */
(PID.TID 0000.0001)                 2.945429307892709E+05,      /* I =109 */
(PID.TID 0000.0001)                 2.979171143158405E+05,      /* I =110 */
(PID.TID 0000.0001)                 3.001626787528886E+05,      /* I =111 */
(PID.TID 0000.0001)     2 @  3.012844832048790E+05,             /* I =112:113 */
(PID.TID 0000.0001)                 3.001626787528886E+05,      /* I =114 */
(PID.TID 0000.0001)                 2.979171143158405E+05,      /* I =115 */
(PID.TID 0000.0001)                 2.945429307892709E+05,      /* I =116 */
(PID.TID 0000.0001)                 2.900303768613599E+05,      /* I =117 */
(PID.TID 0000.0001)                 2.843615645344775E+05,      /* I =118 */
(PID.TID 0000.0001)                 2.775055554645015E+05,      /* I =119 */
(PID.TID 0000.0001)                 2.694110134598581E+05,      /* I =120 */
(PID.TID 0000.0001)                 2.599949918261881E+05,      /* I =121 */
(PID.TID 0000.0001)                 2.491250781852558E+05,      /* I =122 */
(PID.TID 0000.0001)                 2.365892017348392E+05,      /* I =123 */
(PID.TID 0000.0001)                 2.220405216043041E+05,      /* I =124 */
(PID.TID 0000.0001)                 2.048868197919576E+05,      /* I =125 */
(PID.TID 0000.0001)                 1.840412227747703E+05,      /* I =126 */
(PID.TID 0000.0001)                 1.572908084538706E+05,      /* I =127 */
(PID.TID 0000.0001)     2 @  1.202082051331828E+05,             /* I =128:129 */
(PID.TID 0000.0001)                 1.572908084538706E+05,      /* I =130 */
(PID.TID 0000.0001)                 1.840412227747703E+05,      /* I =131 */
(PID.TID 0000.0001)                 2.048868197919576E+05,      /* I =132 */
(PID.TID 0000.0001)                 2.220405216043041E+05,      /* I =133 */
(PID.TID 0000.0001)                 2.365892017348392E+05,      /* I =134 */
(PID.TID 0000.0001)                 2.491250781852558E+05,      /* I =135 */
(PID.TID 0000.0001)                 2.599949918261881E+05,      /* I =136 */
(PID.TID 0000.0001)                 2.694110134598581E+05,      /* I =137 */
(PID.TID 0000.0001)                 2.775055554645015E+05,      /* I =138 */
(PID.TID 0000.0001)                 2.843615645344775E+05,      /* I =139 */
(PID.TID 0000.0001)                 2.900303768613599E+05,      /* I =140 */
(PID.TID 0000.0001)                 2.945429307892709E+05,      /* I =141 */
(PID.TID 0000.0001)                 2.979171143158405E+05,      /* I =142 */
(PID.TID 0000.0001)                 3.001626787528886E+05,      /* I =143 */
(PID.TID 0000.0001)     2 @  3.012844832048790E+05,             /* I =144:145 */
(PID.TID 0000.0001)                 3.001626787528886E+05,      /* I =146 */
(PID.TID 0000.0001)                 2.979171143158405E+05,      /* I =147 */
(PID.TID 0000.0001)                 2.945429307892709E+05,      /* I =148 */
(PID.TID 0000.0001)                 2.900303768613599E+05,      /* I =149 */
(PID.TID 0000.0001)                 2.843615645344775E+05,      /* I =150 */
(PID.TID 0000.0001)                 2.775055554645015E+05,      /* I =151 */
(PID.TID 0000.0001)                 2.694110134598581E+05,      /* I =152 */
(PID.TID 0000.0001)                 2.599949918261881E+05,      /* I =153 */
(PID.TID 0000.0001)                 2.491250781852558E+05,      /* I =154 */
(PID.TID 0000.0001)                 2.365892017348392E+05,      /* I =155 */
(PID.TID 0000.0001)                 2.220405216043041E+05,      /* I =156 */
(PID.TID 0000.0001)                 2.048868197919576E+05,      /* I =157 */
(PID.TID 0000.0001)                 1.840412227747703E+05,      /* I =158 */
(PID.TID 0000.0001)                 1.572908084538706E+05,      /* I =159 */
(PID.TID 0000.0001)     2 @  1.202082051331828E+05,             /* I =160:161 */
(PID.TID 0000.0001)                 1.572908084538706E+05,      /* I =162 */
(PID.TID 0000.0001)                 1.840412227747703E+05,      /* I =163 */
(PID.TID 0000.0001)                 2.048868197919576E+05,      /* I =164 */
(PID.TID 0000.0001)                 2.220405216043041E+05,      /* I =165 */
(PID.TID 0000.0001)                 2.365892017348392E+05,      /* I =166 */
(PID.TID 0000.0001)                 2.491250781852558E+05,      /* I =167 */
(PID.TID 0000.0001)                 2.599949918261881E+05,      /* I =168 */
(PID.TID 0000.0001)                 2.694110134598581E+05,      /* I =169 */
(PID.TID 0000.0001)                 2.775055554645015E+05,      /* I =170 */
(PID.TID 0000.0001)                 2.843615645344775E+05,      /* I =171 */
(PID.TID 0000.0001)                 2.900303768613599E+05,      /* I =172 */
(PID.TID 0000.0001)                 2.945429307892709E+05,      /* I =173 */
(PID.TID 0000.0001)                 2.979171143158405E+05,      /* I =174 */
(PID.TID 0000.0001)                 3.001626787528886E+05,      /* I =175 */
(PID.TID 0000.0001)     2 @  3.012844832048790E+05,             /* I =176:177 */
(PID.TID 0000.0001)                 3.001626787528886E+05,      /* I =178 */
(PID.TID 0000.0001)                 2.979171143158405E+05,      /* I =179 */
(PID.TID 0000.0001)                 2.945429307892709E+05,      /* I =180 */
(PID.TID 0000.0001)                 2.900303768613599E+05,      /* I =181 */
(PID.TID 0000.0001)                 2.843615645344775E+05,      /* I =182 */
(PID.TID 0000.0001)                 2.775055554645015E+05,      /* I =183 */
(PID.TID 0000.0001)                 2.694110134598581E+05,      /* I =184 */
(PID.TID 0000.0001)                 2.599949918261881E+05,      /* I =185 */
(PID.TID 0000.0001)                 2.491250781852558E+05,      /* I =186 */
(PID.TID 0000.0001)                 2.365892017348392E+05,      /* I =187 */
(PID.TID 0000.0001)                 2.220405216043041E+05,      /* I =188 */
(PID.TID 0000.0001)                 2.048868197919576E+05,      /* I =189 */
(PID.TID 0000.0001)                 1.840412227747703E+05,      /* I =190 */
(PID.TID 0000.0001)                 1.572908084538706E+05,      /* I =191 */
(PID.TID 0000.0001)                 1.202082051331828E+05       /* I =192 */
(PID.TID 0000.0001)     ;
(PID.TID 0000.0001) dyF =  /* dyF(1,:,1,:) ( units: m ) */
(PID.TID 0000.0001)                 1.202082051331828E+05,      /* J =  1 */
(PID.TID 0000.0001)                 1.563594089971120E+05,      /* J =  2 */
(PID.TID 0000.0001)                 1.835530058121492E+05,      /* J =  3 */
(PID.TID 0000.0001)                 2.045883481718707E+05,      /* J =  4 */
(PID.TID 0000.0001)                 2.218350349844185E+05,      /* J =  5 */
(PID.TID 0000.0001)                 2.364352994647058E+05,      /* J =  6 */
(PID.TID 0000.0001)                 2.490022710862746E+05,      /* J =  7 */
(PID.TID 0000.0001)                 2.598919724358304E+05,      /* J =  8 */
(PID.TID 0000.0001)                 2.693210245495156E+05,      /* J =  9 */
(PID.TID 0000.0001)                 2.774243179696503E+05,      /* J = 10 */
(PID.TID 0000.0001)                 2.842862532064524E+05,      /* J = 11 */
(PID.TID 0000.0001)                 2.899590699694043E+05,      /* J = 12 */
(PID.TID 0000.0001)                 2.944742915095688E+05,      /* J = 13 */
(PID.TID 0000.0001)                 2.978501920522794E+05,      /* J = 14 */
(PID.TID 0000.0001)                 3.000967749619962E+05,      /* J = 15 */
(PID.TID 0000.0001)     2 @  3.012190981969055E+05,             /* J = 16: 17 */
(PID.TID 0000.0001)                 3.000967749619962E+05,      /* J = 18 */
(PID.TID 0000.0001)                 2.978501920522794E+05,      /* J = 19 */
(PID.TID 0000.0001)                 2.944742915095688E+05,      /* J = 20 */
(PID.TID 0000.0001)                 2.899590699694043E+05,      /* J = 21 */
(PID.TID 0000.0001)                 2.842862532064524E+05,      /* J = 22 */
(PID.TID 0000.0001)                 2.774243179696503E+05,      /* J = 23 */
(PID.TID 0000.0001)                 2.693210245495156E+05,      /* J = 24 */
(PID.TID 0000.0001)                 2.598919724358304E+05,      /* J = 25 */
(PID.TID 0000.0001)                 2.490022710862746E+05,      /* J = 26 */
(PID.TID 0000.0001)                 2.364352994647058E+05,      /* J = 27 */
(PID.TID 0000.0001)                 2.218350349844185E+05,      /* J = 28 */
(PID.TID 0000.0001)                 2.045883481718707E+05,      /* J = 29 */
(PID.TID 0000.0001)                 1.835530058121492E+05,      /* J = 30 */
(PID.TID 0000.0001)                 1.563594089971120E+05,      /* J = 31 */
(PID.TID 0000.0001)                 1.202082051331828E+05       /* J = 32 */
(PID.TID 0000.0001)     ;
(PID.TID 0000.0001) dxG =  /* dxG(:,1,:,1) ( units: m ) */
(PID.TID 0000.0001)                 1.009837800879055E+05,      /* I =  1 */
(PID.TID 0000.0001)                 1.534505834330338E+05,      /* I =  2 */
(PID.TID 0000.0001)                 1.823321598773926E+05,      /* I =  3 */
(PID.TID 0000.0001)                 2.038999045536999E+05,      /* I =  4 */
(PID.TID 0000.0001)                 2.213884732245467E+05,      /* I =  5 */
(PID.TID 0000.0001)                 2.361211699596122E+05,      /* I =  6 */
(PID.TID 0000.0001)                 2.487693460283865E+05,      /* I =  7 */
(PID.TID 0000.0001)                 2.597126963772147E+05,      /* I =  8 */
(PID.TID 0000.0001)                 2.691790288994575E+05,      /* I =  9 */
(PID.TID 0000.0001)                 2.773091043277394E+05,      /* I = 10 */
(PID.TID 0000.0001)                 2.841906470085516E+05,      /* I = 11 */
(PID.TID 0000.0001)                 2.898778860929753E+05,      /* I = 12 */
(PID.TID 0000.0001)                 2.944035815526416E+05,      /* I = 13 */
(PID.TID 0000.0001)                 2.977867909042096E+05,      /* I = 14 */
(PID.TID 0000.0001)                 3.000380090330854E+05,      /* I = 15 */
(PID.TID 0000.0001)     2 @  3.011625828699101E+05,             /* I = 16: 17 */
(PID.TID 0000.0001)                 3.000380090330854E+05,      /* I = 18 */
(PID.TID 0000.0001)                 2.977867909042096E+05,      /* I = 19 */
(PID.TID 0000.0001)                 2.944035815526416E+05,      /* I = 20 */
(PID.TID 0000.0001)                 2.898778860929753E+05,      /* I = 21 */
(PID.TID 0000.0001)                 2.841906470085516E+05,      /* I = 22 */
(PID.TID 0000.0001)                 2.773091043277394E+05,      /* I = 23 */
(PID.TID 0000.0001)                 2.691790288994575E+05,      /* I = 24 */
(PID.TID 0000.0001)                 2.597126963772147E+05,      /* I = 25 */
(PID.TID 0000.0001)                 2.487693460283865E+05,      /* I = 26 */
(PID.TID 0000.0001)                 2.361211699596122E+05,      /* I = 27 */
(PID.TID 0000.0001)                 2.213884732245467E+05,      /* I = 28 */
(PID.TID 0000.0001)                 2.038999045536999E+05,      /* I = 29 */
(PID.TID 0000.0001)                 1.823321598773926E+05,      /* I = 30 */
(PID.TID 0000.0001)                 1.534505834330338E+05,      /* I = 31 */
(PID.TID 0000.0001)     2 @  1.009837800879055E+05,             /* I = 32: 33 */
(PID.TID 0000.0001)                 1.534505834330338E+05,      /* I = 34 */
(PID.TID 0000.0001)                 1.823321598773926E+05,      /* I = 35 */
(PID.TID 0000.0001)                 2.038999045536999E+05,      /* I = 36 */
(PID.TID 0000.0001)                 2.213884732245467E+05,      /* I = 37 */
(PID.TID 0000.0001)                 2.361211699596122E+05,      /* I = 38 */
(PID.TID 0000.0001)                 2.487693460283865E+05,      /* I = 39 */
(PID.TID 0000.0001)                 2.597126963772147E+05,      /* I = 40 */
(PID.TID 0000.0001)                 2.691790288994575E+05,      /* I = 41 */
(PID.TID 0000.0001)                 2.773091043277394E+05,      /* I = 42 */
(PID.TID 0000.0001)                 2.841906470085516E+05,      /* I = 43 */
(PID.TID 0000.0001)                 2.898778860929753E+05,      /* I = 44 */
(PID.TID 0000.0001)                 2.944035815526416E+05,      /* I = 45 */
(PID.TID 0000.0001)                 2.977867909042096E+05,      /* I = 46 */
(PID.TID 0000.0001)                 3.000380090330854E+05,      /* I = 47 */
(PID.TID 0000.0001)     2 @  3.011625828699101E+05,             /* I = 48: 49 */
(PID.TID 0000.0001)                 3.000380090330854E+05,      /* I = 50 */
(PID.TID 0000.0001)                 2.977867909042096E+05,      /* I = 51 */
(PID.TID 0000.0001)                 2.944035815526416E+05,      /* I = 52 */
(PID.TID 0000.0001)                 2.898778860929753E+05,      /* I = 53 */
(PID.TID 0000.0001)                 2.841906470085516E+05,      /* I = 54 */
(PID.TID 0000.0001)                 2.773091043277394E+05,      /* I = 55 */
(PID.TID 0000.0001)                 2.691790288994575E+05,      /* I = 56 */
(PID.TID 0000.0001)                 2.597126963772147E+05,      /* I = 57 */
(PID.TID 0000.0001)                 2.487693460283865E+05,      /* I = 58 */
(PID.TID 0000.0001)                 2.361211699596122E+05,      /* I = 59 */
(PID.TID 0000.0001)                 2.213884732245467E+05,      /* I = 60 */
(PID.TID 0000.0001)                 2.038999045536999E+05,      /* I = 61 */
(PID.TID 0000.0001)                 1.823321598773926E+05,      /* I = 62 */
(PID.TID 0000.0001)                 1.534505834330338E+05,      /* I = 63 */
(PID.TID 0000.0001)     2 @  1.009837800879055E+05,             /* I = 64: 65 */
(PID.TID 0000.0001)                 1.534505834330338E+05,      /* I = 66 */
(PID.TID 0000.0001)                 1.823321598773926E+05,      /* I = 67 */
(PID.TID 0000.0001)                 2.038999045536999E+05,      /* I = 68 */
(PID.TID 0000.0001)                 2.213884732245467E+05,      /* I = 69 */
(PID.TID 0000.0001)                 2.361211699596122E+05,      /* I = 70 */
(PID.TID 0000.0001)                 2.487693460283865E+05,      /* I = 71 */
(PID.TID 0000.0001)                 2.597126963772147E+05,      /* I = 72 */
(PID.TID 0000.0001)                 2.691790288994575E+05,      /* I = 73 */
(PID.TID 0000.0001)                 2.773091043277394E+05,      /* I = 74 */
(PID.TID 0000.0001)                 2.841906470085516E+05,      /* I = 75 */
(PID.TID 0000.0001)                 2.898778860929753E+05,      /* I = 76 */
(PID.TID 0000.0001)                 2.944035815526416E+05,      /* I = 77 */
(PID.TID 0000.0001)                 2.977867909042096E+05,      /* I = 78 */
(PID.TID 0000.0001)                 3.000380090330854E+05,      /* I = 79 */
(PID.TID 0000.0001)     2 @  3.011625828699101E+05,             /* I = 80: 81 */
(PID.TID 0000.0001)                 3.000380090330854E+05,      /* I = 82 */
(PID.TID 0000.0001)                 2.977867909042096E+05,      /* I = 83 */
(PID.TID 0000.0001)                 2.944035815526416E+05,      /* I = 84 */
(PID.TID 0000.0001)                 2.898778860929753E+05,      /* I = 85 */
(PID.TID 0000.0001)                 2.841906470085516E+05,      /* I = 86 */
(PID.TID 0000.0001)                 2.773091043277394E+05,      /* I = 87 */
(PID.TID 0000.0001)                 2.691790288994575E+05,      /* I = 88 */
(PID.TID 0000.0001)                 2.597126963772147E+05,      /* I = 89 */
(PID.TID 0000.0001)                 2.487693460283865E+05,      /* I = 90 */
(PID.TID 0000.0001)                 2.361211699596122E+05,      /* I = 91 */
(PID.TID 0000.0001)                 2.213884732245467E+05,      /* I = 92 */
(PID.TID 0000.0001)                 2.038999045536999E+05,      /* I = 93 */
(PID.TID 0000.0001)                 1.823321598773926E+05,      /* I = 94 */
(PID.TID 0000.0001)                 1.534505834330338E+05,      /* I = 95 */
(PID.TID 0000.0001)     2 @  1.009837800879055E+05,             /* I = 96: 97 */
(PID.TID 0000.0001)                 1.534505834330338E+05,      /* I = 98 */
(PID.TID 0000.0001)                 1.823321598773926E+05,      /* I = 99 */
(PID.TID 0000.0001)                 2.038999045536999E+05,      /* I =100 */
(PID.TID 0000.0001)                 2.213884732245467E+05,      /* I =101 */
(PID.TID 0000.0001)                 2.361211699596122E+05,      /* I =102 */
(PID.TID 0000.0001)                 2.487693460283865E+05,      /* I =103 */
(PID.TID 0000.0001)                 2.597126963772147E+05,      /* I =104 */
(PID.TID 0000.0001)                 2.691790288994575E+05,      /* I =105 */
(PID.TID 0000.0001)                 2.773091043277394E+05,      /* I =106 */
(PID.TID 0000.0001)                 2.841906470085516E+05,      /* I =107 */
(PID.TID 0000.0001)                 2.898778860929753E+05,      /* I =108 */
(PID.TID 0000.0001)                 2.944035815526416E+05,      /* I =109 */
(PID.TID 0000.0001)                 2.977867909042096E+05,      /* I =110 */
(PID.TID 0000.0001)                 3.000380090330854E+05,      /* I =111 */
(PID.TID 0000.0001)     2 @  3.011625828699101E+05,             /* I =112:113 */
(PID.TID 0000.0001)                 3.000380090330854E+05,      /* I =114 */
(PID.TID 0000.0001)                 2.977867909042096E+05,      /* I =115 */
(PID.TID 0000.0001)                 2.944035815526416E+05,      /* I =116 */
(PID.TID 0000.0001)                 2.898778860929753E+05,      /* I =117 */
(PID.TID 0000.0001)                 2.841906470085516E+05,      /* I =118 */
(PID.TID 0000.0001)                 2.773091043277394E+05,      /* I =119 */
(PID.TID 0000.0001)                 2.691790288994575E+05,      /* I =120 */
(PID.TID 0000.0001)                 2.597126963772147E+05,      /* I =121 */
(PID.TID 0000.0001)                 2.487693460283865E+05,      /* I =122 */
(PID.TID 0000.0001)                 2.361211699596122E+05,      /* I =123 */
(PID.TID 0000.0001)                 2.213884732245467E+05,      /* I =124 */
(PID.TID 0000.0001)                 2.038999045536999E+05,      /* I =125 */
(PID.TID 0000.0001)                 1.823321598773926E+05,      /* I =126 */
(PID.TID 0000.0001)                 1.534505834330338E+05,      /* I =127 */
(PID.TID 0000.0001)     2 @  1.009837800879055E+05,             /* I =128:129 */
(PID.TID 0000.0001)                 1.534505834330338E+05,      /* I =130 */
(PID.TID 0000.0001)                 1.823321598773926E+05,      /* I =131 */
(PID.TID 0000.0001)                 2.038999045536999E+05,      /* I =132 */
(PID.TID 0000.0001)                 2.213884732245467E+05,      /* I =133 */
(PID.TID 0000.0001)                 2.361211699596122E+05,      /* I =134 */
(PID.TID 0000.0001)                 2.487693460283865E+05,      /* I =135 */
(PID.TID 0000.0001)                 2.597126963772147E+05,      /* I =136 */
(PID.TID 0000.0001)                 2.691790288994575E+05,      /* I =137 */
(PID.TID 0000.0001)                 2.773091043277394E+05,      /* I =138 */
(PID.TID 0000.0001)                 2.841906470085516E+05,      /* I =139 */
(PID.TID 0000.0001)                 2.898778860929753E+05,      /* I =140 */
(PID.TID 0000.0001)                 2.944035815526416E+05,      /* I =141 */
(PID.TID 0000.0001)                 2.977867909042096E+05,      /* I =142 */
(PID.TID 0000.0001)                 3.000380090330854E+05,      /* I =143 */
(PID.TID 0000.0001)     2 @  3.011625828699101E+05,             /* I =144:145 */
(PID.TID 0000.0001)                 3.000380090330854E+05,      /* I =146 */
(PID.TID 0000.0001)                 2.977867909042096E+05,      /* I =147 */
(PID.TID 0000.0001)                 2.944035815526416E+05,      /* I =148 */
(PID.TID 0000.0001)                 2.898778860929753E+05,      /* I =149 */
(PID.TID 0000.0001)                 2.841906470085516E+05,      /* I =150 */
(PID.TID 0000.0001)                 2.773091043277394E+05,      /* I =151 */
(PID.TID 0000.0001)                 2.691790288994575E+05,      /* I =152 */
(PID.TID 0000.0001)                 2.597126963772147E+05,      /* I =153 */
(PID.TID 0000.0001)                 2.487693460283865E+05,      /* I =154 */
(PID.TID 0000.0001)                 2.361211699596122E+05,      /* I =155 */
(PID.TID 0000.0001)                 2.213884732245467E+05,      /* I =156 */
(PID.TID 0000.0001)                 2.038999045536999E+05,      /* I =157 */
(PID.TID 0000.0001)                 1.823321598773926E+05,      /* I =158 */
(PID.TID 0000.0001)                 1.534505834330338E+05,      /* I =159 */
(PID.TID 0000.0001)     2 @  1.009837800879055E+05,             /* I =160:161 */
(PID.TID 0000.0001)                 1.534505834330338E+05,      /* I =162 */
(PID.TID 0000.0001)                 1.823321598773926E+05,      /* I =163 */
(PID.TID 0000.0001)                 2.038999045536999E+05,      /* I =164 */
(PID.TID 0000.0001)                 2.213884732245467E+05,      /* I =165 */
(PID.TID 0000.0001)                 2.361211699596122E+05,      /* I =166 */
(PID.TID 0000.0001)                 2.487693460283865E+05,      /* I =167 */
(PID.TID 0000.0001)                 2.597126963772147E+05,      /* I =168 */
(PID.TID 0000.0001)                 2.691790288994575E+05,      /* I =169 */
(PID.TID 0000.0001)                 2.773091043277394E+05,      /* I =170 */
(PID.TID 0000.0001)                 2.841906470085516E+05,      /* I =171 */
(PID.TID 0000.0001)                 2.898778860929753E+05,      /* I =172 */
(PID.TID 0000.0001)                 2.944035815526416E+05,      /* I =173 */
(PID.TID 0000.0001)                 2.977867909042096E+05,      /* I =174 */
(PID.TID 0000.0001)                 3.000380090330854E+05,      /* I =175 */
(PID.TID 0000.0001)     2 @  3.011625828699101E+05,             /* I =176:177 */
(PID.TID 0000.0001)                 3.000380090330854E+05,      /* I =178 */
(PID.TID 0000.0001)                 2.977867909042096E+05,      /* I =179 */
(PID.TID 0000.0001)                 2.944035815526416E+05,      /* I =180 */
(PID.TID 0000.0001)                 2.898778860929753E+05,      /* I =181 */
(PID.TID 0000.0001)                 2.841906470085516E+05,      /* I =182 */
(PID.TID 0000.0001)                 2.773091043277394E+05,      /* I =183 */
(PID.TID 0000.0001)                 2.691790288994575E+05,      /* I =184 */
(PID.TID 0000.0001)                 2.597126963772147E+05,      /* I =185 */
(PID.TID 0000.0001)                 2.487693460283865E+05,      /* I =186 */
(PID.TID 0000.0001)                 2.361211699596122E+05,      /* I =187 */
(PID.TID 0000.0001)                 2.213884732245467E+05,      /* I =188 */
(PID.TID 0000.0001)                 2.038999045536999E+05,      /* I =189 */
(PID.TID 0000.0001)                 1.823321598773926E+05,      /* I =190 */
(PID.TID 0000.0001)                 1.534505834330338E+05,      /* I =191 */
(PID.TID 0000.0001)                 1.009837800879055E+05       /* I =192 */
(PID.TID 0000.0001)     ;
(PID.TID 0000.0001) dxG =  /* dxG(1,:,1,:) ( units: m ) */
(PID.TID 0000.0001)                 1.009837800879055E+05,      /* J =  1 */
(PID.TID 0000.0001)                 1.403701524205398E+05,      /* J =  2 */
(PID.TID 0000.0001)                 1.716197227386011E+05,      /* J =  3 */
(PID.TID 0000.0001)                 1.950254041626018E+05,      /* J =  4 */
(PID.TID 0000.0001)                 2.138410773065497E+05,      /* J =  5 */
(PID.TID 0000.0001)                 2.295958105911512E+05,      /* J =  6 */
(PID.TID 0000.0001)                 2.430829951739083E+05,      /* J =  7 */
(PID.TID 0000.0001)                 2.547526806712889E+05,      /* J =  8 */
(PID.TID 0000.0001)                 2.648750305193301E+05,      /* J =  9 */
(PID.TID 0000.0001)                 2.736173771018112E+05,      /* J = 10 */
(PID.TID 0000.0001)                 2.810845823202647E+05,      /* J = 11 */
(PID.TID 0000.0001)                 2.873420591008078E+05,      /* J = 12 */
(PID.TID 0000.0001)                 2.924298293668651E+05,      /* J = 13 */
(PID.TID 0000.0001)                 2.963715635865306E+05,      /* J = 14 */
(PID.TID 0000.0001)                 2.991805843171258E+05,      /* J = 15 */
(PID.TID 0000.0001)                 3.008638765647886E+05,      /* J = 16 */
(PID.TID 0000.0001)                 3.014246674484008E+05,      /* J = 17 */
(PID.TID 0000.0001)                 3.008638765647886E+05,      /* J = 18 */
(PID.TID 0000.0001)                 2.991805843171258E+05,      /* J = 19 */
(PID.TID 0000.0001)                 2.963715635865306E+05,      /* J = 20 */
(PID.TID 0000.0001)                 2.924298293668651E+05,      /* J = 21 */
(PID.TID 0000.0001)                 2.873420591008078E+05,      /* J = 22 */
(PID.TID 0000.0001)                 2.810845823202647E+05,      /* J = 23 */
(PID.TID 0000.0001)                 2.736173771018112E+05,      /* J = 24 */
(PID.TID 0000.0001)                 2.648750305193301E+05,      /* J = 25 */
(PID.TID 0000.0001)                 2.547526806712889E+05,      /* J = 26 */
(PID.TID 0000.0001)                 2.430829951739083E+05,      /* J = 27 */
(PID.TID 0000.0001)                 2.295958105911512E+05,      /* J = 28 */
(PID.TID 0000.0001)                 2.138410773065497E+05,      /* J = 29 */
(PID.TID 0000.0001)                 1.950254041626018E+05,      /* J = 30 */
(PID.TID 0000.0001)                 1.716197227386011E+05,      /* J = 31 */
(PID.TID 0000.0001)                 1.403701524205398E+05       /* J = 32 */
(PID.TID 0000.0001)     ;
(PID.TID 0000.0001) dyG =  /* dyG(:,1,:,1) ( units: m ) */
(PID.TID 0000.0001)                 1.009837800879055E+05,      /* I =  1 */
(PID.TID 0000.0001)                 1.403701524205398E+05,      /* I =  2 */
(PID.TID 0000.0001)                 1.716197227386011E+05,      /* I =  3 */
(PID.TID 0000.0001)                 1.950254041626018E+05,      /* I =  4 */
(PID.TID 0000.0001)                 2.138410773065497E+05,      /* I =  5 */
(PID.TID 0000.0001)                 2.295958105911512E+05,      /* I =  6 */
(PID.TID 0000.0001)                 2.430829951739083E+05,      /* I =  7 */
(PID.TID 0000.0001)                 2.547526806712889E+05,      /* I =  8 */
(PID.TID 0000.0001)                 2.648750305193301E+05,      /* I =  9 */
(PID.TID 0000.0001)                 2.736173771018112E+05,      /* I = 10 */
(PID.TID 0000.0001)                 2.810845823202647E+05,      /* I = 11 */
(PID.TID 0000.0001)                 2.873420591008078E+05,      /* I = 12 */
(PID.TID 0000.0001)                 2.924298293668651E+05,      /* I = 13 */
(PID.TID 0000.0001)                 2.963715635865306E+05,      /* I = 14 */
(PID.TID 0000.0001)                 2.991805843171258E+05,      /* I = 15 */
(PID.TID 0000.0001)                 3.008638765647886E+05,      /* I = 16 */
(PID.TID 0000.0001)                 3.014246674484008E+05,      /* I = 17 */
(PID.TID 0000.0001)                 3.008638765647886E+05,      /* I = 18 */
(PID.TID 0000.0001)                 2.991805843171258E+05,      /* I = 19 */
(PID.TID 0000.0001)                 2.963715635865306E+05,      /* I = 20 */
(PID.TID 0000.0001)                 2.924298293668651E+05,      /* I = 21 */
(PID.TID 0000.0001)                 2.873420591008078E+05,      /* I = 22 */
(PID.TID 0000.0001)                 2.810845823202647E+05,      /* I = 23 */
(PID.TID 0000.0001)                 2.736173771018112E+05,      /* I = 24 */
(PID.TID 0000.0001)                 2.648750305193301E+05,      /* I = 25 */
(PID.TID 0000.0001)                 2.547526806712889E+05,      /* I = 26 */
(PID.TID 0000.0001)                 2.430829951739083E+05,      /* I = 27 */
(PID.TID 0000.0001)                 2.295958105911512E+05,      /* I = 28 */
(PID.TID 0000.0001)                 2.138410773065497E+05,      /* I = 29 */
(PID.TID 0000.0001)                 1.950254041626018E+05,      /* I = 30 */
(PID.TID 0000.0001)                 1.716197227386011E+05,      /* I = 31 */
(PID.TID 0000.0001)                 1.403701524205398E+05,      /* I = 32 */
(PID.TID 0000.0001)                 1.009837800879055E+05,      /* I = 33 */
(PID.TID 0000.0001)                 1.403701524205398E+05,      /* I = 34 */
(PID.TID 0000.0001)                 1.716197227386011E+05,      /* I = 35 */
(PID.TID 0000.0001)                 1.950254041626018E+05,      /* I = 36 */
(PID.TID 0000.0001)                 2.138410773065497E+05,      /* I = 37 */
(PID.TID 0000.0001)                 2.295958105911512E+05,      /* I = 38 */
(PID.TID 0000.0001)                 2.430829951739083E+05,      /* I = 39 */
(PID.TID 0000.0001)                 2.547526806712889E+05,      /* I = 40 */
(PID.TID 0000.0001)                 2.648750305193301E+05,      /* I = 41 */
(PID.TID 0000.0001)                 2.736173771018112E+05,      /* I = 42 */
(PID.TID 0000.0001)                 2.810845823202647E+05,      /* I = 43 */
(PID.TID 0000.0001)                 2.873420591008078E+05,      /* I = 44 */
(PID.TID 0000.0001)                 2.924298293668651E+05,      /* I = 45 */
(PID.TID 0000.0001)                 2.963715635865306E+05,      /* I = 46 */
(PID.TID 0000.0001)                 2.991805843171258E+05,      /* I = 47 */
(PID.TID 0000.0001)                 3.008638765647886E+05,      /* I = 48 */
(PID.TID 0000.0001)                 3.014246674484008E+05,      /* I = 49 */
(PID.TID 0000.0001)                 3.008638765647886E+05,      /* I = 50 */
(PID.TID 0000.0001)                 2.991805843171258E+05,      /* I = 51 */
(PID.TID 0000.0001)                 2.963715635865306E+05,      /* I = 52 */
(PID.TID 0000.0001)                 2.924298293668651E+05,      /* I = 53 */
(PID.TID 0000.0001)                 2.873420591008078E+05,      /* I = 54 */
(PID.TID 0000.0001)                 2.810845823202647E+05,      /* I = 55 */
(PID.TID 0000.0001)                 2.736173771018112E+05,      /* I = 56 */
(PID.TID 0000.0001)                 2.648750305193301E+05,      /* I = 57 */
(PID.TID 0000.0001)                 2.547526806712889E+05,      /* I = 58 */
(PID.TID 0000.0001)                 2.430829951739083E+05,      /* I = 59 */
(PID.TID 0000.0001)                 2.295958105911512E+05,      /* I = 60 */
(PID.TID 0000.0001)                 2.138410773065497E+05,      /* I = 61 */
(PID.TID 0000.0001)                 1.950254041626018E+05,      /* I = 62 */
(PID.TID 0000.0001)                 1.716197227386011E+05,      /* I = 63 */
(PID.TID 0000.0001)                 1.403701524205398E+05,      /* I = 64 */
(PID.TID 0000.0001)                 1.009837800879055E+05,      /* I = 65 */
(PID.TID 0000.0001)                 1.403701524205398E+05,      /* I = 66 */
(PID.TID 0000.0001)                 1.716197227386011E+05,      /* I = 67 */
(PID.TID 0000.0001)                 1.950254041626018E+05,      /* I = 68 */
(PID.TID 0000.0001)                 2.138410773065497E+05,      /* I = 69 */
(PID.TID 0000.0001)                 2.295958105911512E+05,      /* I = 70 */
(PID.TID 0000.0001)                 2.430829951739083E+05,      /* I = 71 */
(PID.TID 0000.0001)                 2.547526806712889E+05,      /* I = 72 */
(PID.TID 0000.0001)                 2.648750305193301E+05,      /* I = 73 */
(PID.TID 0000.0001)                 2.736173771018112E+05,      /* I = 74 */
(PID.TID 0000.0001)                 2.810845823202647E+05,      /* I = 75 */
(PID.TID 0000.0001)                 2.873420591008078E+05,      /* I = 76 */
(PID.TID 0000.0001)                 2.924298293668651E+05,      /* I = 77 */
(PID.TID 0000.0001)                 2.963715635865306E+05,      /* I = 78 */
(PID.TID 0000.0001)                 2.991805843171258E+05,      /* I = 79 */
(PID.TID 0000.0001)                 3.008638765647886E+05,      /* I = 80 */
(PID.TID 0000.0001)                 3.014246674484008E+05,      /* I = 81 */
(PID.TID 0000.0001)                 3.008638765647886E+05,      /* I = 82 */
(PID.TID 0000.0001)                 2.991805843171258E+05,      /* I = 83 */
(PID.TID 0000.0001)                 2.963715635865306E+05,      /* I = 84 */
(PID.TID 0000.0001)                 2.924298293668651E+05,      /* I = 85 */
(PID.TID 0000.0001)                 2.873420591008078E+05,      /* I = 86 */
(PID.TID 0000.0001)                 2.810845823202647E+05,      /* I = 87 */
(PID.TID 0000.0001)                 2.736173771018112E+05,      /* I = 88 */
(PID.TID 0000.0001)                 2.648750305193301E+05,      /* I = 89 */
(PID.TID 0000.0001)                 2.547526806712889E+05,      /* I = 90 */
(PID.TID 0000.0001)                 2.430829951739083E+05,      /* I = 91 */
(PID.TID 0000.0001)                 2.295958105911512E+05,      /* I = 92 */
(PID.TID 0000.0001)                 2.138410773065497E+05,      /* I = 93 */
(PID.TID 0000.0001)                 1.950254041626018E+05,      /* I = 94 */
(PID.TID 0000.0001)                 1.716197227386011E+05,      /* I = 95 */
(PID.TID 0000.0001)                 1.403701524205398E+05,      /* I = 96 */
(PID.TID 0000.0001)                 1.009837800879055E+05,      /* I = 97 */
(PID.TID 0000.0001)                 1.403701524205398E+05,      /* I = 98 */
(PID.TID 0000.0001)                 1.716197227386011E+05,      /* I = 99 */
(PID.TID 0000.0001)                 1.950254041626018E+05,      /* I =100 */
(PID.TID 0000.0001)                 2.138410773065497E+05,      /* I =101 */
(PID.TID 0000.0001)                 2.295958105911512E+05,      /* I =102 */
(PID.TID 0000.0001)                 2.430829951739083E+05,      /* I =103 */
(PID.TID 0000.0001)                 2.547526806712889E+05,      /* I =104 */
(PID.TID 0000.0001)                 2.648750305193301E+05,      /* I =105 */
(PID.TID 0000.0001)                 2.736173771018112E+05,      /* I =106 */
(PID.TID 0000.0001)                 2.810845823202647E+05,      /* I =107 */
(PID.TID 0000.0001)                 2.873420591008078E+05,      /* I =108 */
(PID.TID 0000.0001)                 2.924298293668651E+05,      /* I =109 */
(PID.TID 0000.0001)                 2.963715635865306E+05,      /* I =110 */
(PID.TID 0000.0001)                 2.991805843171258E+05,      /* I =111 */
(PID.TID 0000.0001)                 3.008638765647886E+05,      /* I =112 */
(PID.TID 0000.0001)                 3.014246674484008E+05,      /* I =113 */
(PID.TID 0000.0001)                 3.008638765647886E+05,      /* I =114 */
(PID.TID 0000.0001)                 2.991805843171258E+05,      /* I =115 */
(PID.TID 0000.0001)                 2.963715635865306E+05,      /* I =116 */
(PID.TID 0000.0001)                 2.924298293668651E+05,      /* I =117 */
(PID.TID 0000.0001)                 2.873420591008078E+05,      /* I =118 */
(PID.TID 0000.0001)                 2.810845823202647E+05,      /* I =119 */
(PID.TID 0000.0001)                 2.736173771018112E+05,      /* I =120 */
(PID.TID 0000.0001)                 2.648750305193301E+05,      /* I =121 */
(PID.TID 0000.0001)                 2.547526806712889E+05,      /* I =122 */
(PID.TID 0000.0001)                 2.430829951739083E+05,      /* I =123 */
(PID.TID 0000.0001)                 2.295958105911512E+05,      /* I =124 */
(PID.TID 0000.0001)                 2.138410773065497E+05,      /* I =125 */
(PID.TID 0000.0001)                 1.950254041626018E+05,      /* I =126 */
(PID.TID 0000.0001)                 1.716197227386011E+05,      /* I =127 */
(PID.TID 0000.0001)                 1.403701524205398E+05,      /* I =128 */
(PID.TID 0000.0001)                 1.009837800879055E+05,      /* I =129 */
(PID.TID 0000.0001)                 1.403701524205398E+05,      /* I =130 */
(PID.TID 0000.0001)                 1.716197227386011E+05,      /* I =131 */
(PID.TID 0000.0001)                 1.950254041626018E+05,      /* I =132 */
(PID.TID 0000.0001)                 2.138410773065497E+05,      /* I =133 */
(PID.TID 0000.0001)                 2.295958105911512E+05,      /* I =134 */
(PID.TID 0000.0001)                 2.430829951739083E+05,      /* I =135 */
(PID.TID 0000.0001)                 2.547526806712889E+05,      /* I =136 */
(PID.TID 0000.0001)                 2.648750305193301E+05,      /* I =137 */
(PID.TID 0000.0001)                 2.736173771018112E+05,      /* I =138 */
(PID.TID 0000.0001)                 2.810845823202647E+05,      /* I =139 */
(PID.TID 0000.0001)                 2.873420591008078E+05,      /* I =140 */
(PID.TID 0000.0001)                 2.924298293668651E+05,      /* I =141 */
(PID.TID 0000.0001)                 2.963715635865306E+05,      /* I =142 */
(PID.TID 0000.0001)                 2.991805843171258E+05,      /* I =143 */
(PID.TID 0000.0001)                 3.008638765647886E+05,      /* I =144 */
(PID.TID 0000.0001)                 3.014246674484008E+05,      /* I =145 */
(PID.TID 0000.0001)                 3.008638765647886E+05,      /* I =146 */
(PID.TID 0000.0001)                 2.991805843171258E+05,      /* I =147 */
(PID.TID 0000.0001)                 2.963715635865306E+05,      /* I =148 */
(PID.TID 0000.0001)                 2.924298293668651E+05,      /* I =149 */
(PID.TID 0000.0001)                 2.873420591008078E+05,      /* I =150 */
(PID.TID 0000.0001)                 2.810845823202647E+05,      /* I =151 */
(PID.TID 0000.0001)                 2.736173771018112E+05,      /* I =152 */
(PID.TID 0000.0001)                 2.648750305193301E+05,      /* I =153 */
(PID.TID 0000.0001)                 2.547526806712889E+05,      /* I =154 */
(PID.TID 0000.0001)                 2.430829951739083E+05,      /* I =155 */
(PID.TID 0000.0001)                 2.295958105911512E+05,      /* I =156 */
(PID.TID 0000.0001)                 2.138410773065497E+05,      /* I =157 */
(PID.TID 0000.0001)                 1.950254041626018E+05,      /* I =158 */
(PID.TID 0000.0001)                 1.716197227386011E+05,      /* I =159 */
(PID.TID 0000.0001)                 1.403701524205398E+05,      /* I =160 */
(PID.TID 0000.0001)                 1.009837800879055E+05,      /* I =161 */
(PID.TID 0000.0001)                 1.403701524205398E+05,      /* I =162 */
(PID.TID 0000.0001)                 1.716197227386011E+05,      /* I =163 */
(PID.TID 0000.0001)                 1.950254041626018E+05,      /* I =164 */
(PID.TID 0000.0001)                 2.138410773065497E+05,      /* I =165 */
(PID.TID 0000.0001)                 2.295958105911512E+05,      /* I =166 */
(PID.TID 0000.0001)                 2.430829951739083E+05,      /* I =167 */
(PID.TID 0000.0001)                 2.547526806712889E+05,      /* I =168 */
(PID.TID 0000.0001)                 2.648750305193301E+05,      /* I =169 */
(PID.TID 0000.0001)                 2.736173771018112E+05,      /* I =170 */
(PID.TID 0000.0001)                 2.810845823202647E+05,      /* I =171 */
(PID.TID 0000.0001)                 2.873420591008078E+05,      /* I =172 */
(PID.TID 0000.0001)                 2.924298293668651E+05,      /* I =173 */
(PID.TID 0000.0001)                 2.963715635865306E+05,      /* I =174 */
(PID.TID 0000.0001)                 2.991805843171258E+05,      /* I =175 */
(PID.TID 0000.0001)                 3.008638765647886E+05,      /* I =176 */
(PID.TID 0000.0001)                 3.014246674484008E+05,      /* I =177 */
(PID.TID 0000.0001)                 3.008638765647886E+05,      /* I =178 */
(PID.TID 0000.0001)                 2.991805843171258E+05,      /* I =179 */
(PID.TID 0000.0001)                 2.963715635865306E+05,      /* I =180 */
(PID.TID 0000.0001)                 2.924298293668651E+05,      /* I =181 */
(PID.TID 0000.0001)                 2.873420591008078E+05,      /* I =182 */
(PID.TID 0000.0001)                 2.810845823202647E+05,      /* I =183 */
(PID.TID 0000.0001)                 2.736173771018112E+05,      /* I =184 */
(PID.TID 0000.0001)                 2.648750305193301E+05,      /* I =185 */
(PID.TID 0000.0001)                 2.547526806712889E+05,      /* I =186 */
(PID.TID 0000.0001)                 2.430829951739083E+05,      /* I =187 */
(PID.TID 0000.0001)                 2.295958105911512E+05,      /* I =188 */
(PID.TID 0000.0001)                 2.138410773065497E+05,      /* I =189 */
(PID.TID 0000.0001)                 1.950254041626018E+05,      /* I =190 */
(PID.TID 0000.0001)                 1.716197227386011E+05,      /* I =191 */
(PID.TID 0000.0001)                 1.403701524205398E+05       /* I =192 */
(PID.TID 0000.0001)     ;
(PID.TID 0000.0001) dyG =  /* dyG(1,:,1,:) ( units: m ) */
(PID.TID 0000.0001)                 1.009837800879055E+05,      /* J =  1 */
(PID.TID 0000.0001)                 1.534505834330338E+05,      /* J =  2 */
(PID.TID 0000.0001)                 1.823321598773926E+05,      /* J =  3 */
(PID.TID 0000.0001)                 2.038999045536999E+05,      /* J =  4 */
(PID.TID 0000.0001)                 2.213884732245467E+05,      /* J =  5 */
(PID.TID 0000.0001)                 2.361211699596122E+05,      /* J =  6 */
(PID.TID 0000.0001)                 2.487693460283865E+05,      /* J =  7 */
(PID.TID 0000.0001)                 2.597126963772147E+05,      /* J =  8 */
(PID.TID 0000.0001)                 2.691790288994575E+05,      /* J =  9 */
(PID.TID 0000.0001)                 2.773091043277394E+05,      /* J = 10 */
(PID.TID 0000.0001)                 2.841906470085516E+05,      /* J = 11 */
(PID.TID 0000.0001)                 2.898778860929753E+05,      /* J = 12 */
(PID.TID 0000.0001)                 2.944035815526416E+05,      /* J = 13 */
(PID.TID 0000.0001)                 2.977867909042096E+05,      /* J = 14 */
(PID.TID 0000.0001)                 3.000380090330854E+05,      /* J = 15 */
(PID.TID 0000.0001)     2 @  3.011625828699101E+05,             /* J = 16: 17 */
(PID.TID 0000.0001)                 3.000380090330854E+05,      /* J = 18 */
(PID.TID 0000.0001)                 2.977867909042096E+05,      /* J = 19 */
(PID.TID 0000.0001)                 2.944035815526416E+05,      /* J = 20 */
(PID.TID 0000.0001)                 2.898778860929753E+05,      /* J = 21 */
(PID.TID 0000.0001)                 2.841906470085516E+05,      /* J = 22 */
(PID.TID 0000.0001)                 2.773091043277394E+05,      /* J = 23 */
(PID.TID 0000.0001)                 2.691790288994575E+05,      /* J = 24 */
(PID.TID 0000.0001)                 2.597126963772147E+05,      /* J = 25 */
(PID.TID 0000.0001)                 2.487693460283865E+05,      /* J = 26 */
(PID.TID 0000.0001)                 2.361211699596122E+05,      /* J = 27 */
(PID.TID 0000.0001)                 2.213884732245467E+05,      /* J = 28 */
(PID.TID 0000.0001)                 2.038999045536999E+05,      /* J = 29 */
(PID.TID 0000.0001)                 1.823321598773926E+05,      /* J = 30 */
(PID.TID 0000.0001)                 1.534505834330338E+05,      /* J = 31 */
(PID.TID 0000.0001)                 1.009837800879055E+05       /* J = 32 */
(PID.TID 0000.0001)     ;
(PID.TID 0000.0001) dxC =  /* dxC(:,1,:,1) ( units: m ) */
(PID.TID 0000.0001)                 1.114203141013064E+05,      /* I =  1 */
(PID.TID 0000.0001)                 1.391343389937106E+05,      /* I =  2 */
(PID.TID 0000.0001)                 1.709574999026266E+05,      /* I =  3 */
(PID.TID 0000.0001)                 1.946503699269892E+05,      /* I =  4 */
(PID.TID 0000.0001)                 2.135964483342134E+05,      /* I =  5 */
(PID.TID 0000.0001)                 2.294195678257306E+05,      /* I =  6 */
(PID.TID 0000.0001)                 2.429464709770498E+05,      /* I =  7 */
(PID.TID 0000.0001)                 2.546408290696998E+05,      /* I =  8 */
(PID.TID 0000.0001)                 2.647791839299727E+05,      /* I =  9 */
(PID.TID 0000.0001)                 2.735321911346108E+05,      /* I = 10 */
(PID.TID 0000.0001)                 2.810065951609633E+05,      /* I = 11 */
(PID.TID 0000.0001)                 2.872689479506990E+05,      /* I = 12 */
(PID.TID 0000.0001)                 2.923599955312932E+05,      /* I = 13 */
(PID.TID 0000.0001)                 2.963038832565530E+05,      /* I = 14 */
(PID.TID 0000.0001)                 2.991142470004740E+05,      /* I = 15 */
(PID.TID 0000.0001)                 3.007982711627968E+05,      /* I = 16 */
(PID.TID 0000.0001)                 3.013593857228136E+05,      /* I = 17 */
(PID.TID 0000.0001)                 3.007982711627968E+05,      /* I = 18 */
(PID.TID 0000.0001)                 2.991142470004740E+05,      /* I = 19 */
(PID.TID 0000.0001)                 2.963038832565530E+05,      /* I = 20 */
(PID.TID 0000.0001)                 2.923599955312932E+05,      /* I = 21 */
(PID.TID 0000.0001)                 2.872689479506990E+05,      /* I = 22 */
(PID.TID 0000.0001)                 2.810065951609633E+05,      /* I = 23 */
(PID.TID 0000.0001)                 2.735321911346108E+05,      /* I = 24 */
(PID.TID 0000.0001)                 2.647791839299727E+05,      /* I = 25 */
(PID.TID 0000.0001)                 2.546408290696998E+05,      /* I = 26 */
(PID.TID 0000.0001)                 2.429464709770498E+05,      /* I = 27 */
(PID.TID 0000.0001)                 2.294195678257306E+05,      /* I = 28 */
(PID.TID 0000.0001)                 2.135964483342134E+05,      /* I = 29 */
(PID.TID 0000.0001)                 1.946503699269892E+05,      /* I = 30 */
(PID.TID 0000.0001)                 1.709574999026266E+05,      /* I = 31 */
(PID.TID 0000.0001)                 1.391343389937106E+05,      /* I = 32 */
(PID.TID 0000.0001)                 1.114203141013064E+05,      /* I = 33 */
(PID.TID 0000.0001)                 1.391343389937106E+05,      /* I = 34 */
(PID.TID 0000.0001)                 1.709574999026266E+05,      /* I = 35 */
(PID.TID 0000.0001)                 1.946503699269892E+05,      /* I = 36 */
(PID.TID 0000.0001)                 2.135964483342134E+05,      /* I = 37 */
(PID.TID 0000.0001)                 2.294195678257306E+05,      /* I = 38 */
(PID.TID 0000.0001)                 2.429464709770498E+05,      /* I = 39 */
(PID.TID 0000.0001)                 2.546408290696998E+05,      /* I = 40 */
(PID.TID 0000.0001)                 2.647791839299727E+05,      /* I = 41 */
(PID.TID 0000.0001)                 2.735321911346108E+05,      /* I = 42 */
(PID.TID 0000.0001)                 2.810065951609633E+05,      /* I = 43 */
(PID.TID 0000.0001)                 2.872689479506990E+05,      /* I = 44 */
(PID.TID 0000.0001)                 2.923599955312932E+05,      /* I = 45 */
(PID.TID 0000.0001)                 2.963038832565530E+05,      /* I = 46 */
(PID.TID 0000.0001)                 2.991142470004740E+05,      /* I = 47 */
(PID.TID 0000.0001)                 3.007982711627968E+05,      /* I = 48 */
(PID.TID 0000.0001)                 3.013593857228136E+05,      /* I = 49 */
(PID.TID 0000.0001)                 3.007982711627968E+05,      /* I = 50 */
(PID.TID 0000.0001)                 2.991142470004740E+05,      /* I = 51 */
(PID.TID 0000.0001)                 2.963038832565530E+05,      /* I = 52 */
(PID.TID 0000.0001)                 2.923599955312932E+05,      /* I = 53 */
(PID.TID 0000.0001)                 2.872689479506990E+05,      /* I = 54 */
(PID.TID 0000.0001)                 2.810065951609633E+05,      /* I = 55 */
(PID.TID 0000.0001)                 2.735321911346108E+05,      /* I = 56 */
(PID.TID 0000.0001)                 2.647791839299727E+05,      /* I = 57 */
(PID.TID 0000.0001)                 2.546408290696998E+05,      /* I = 58 */
(PID.TID 0000.0001)                 2.429464709770498E+05,      /* I = 59 */
(PID.TID 0000.0001)                 2.294195678257306E+05,      /* I = 60 */
(PID.TID 0000.0001)                 2.135964483342134E+05,      /* I = 61 */
(PID.TID 0000.0001)                 1.946503699269892E+05,      /* I = 62 */
(PID.TID 0000.0001)                 1.709574999026266E+05,      /* I = 63 */
(PID.TID 0000.0001)                 1.391343389937106E+05,      /* I = 64 */
(PID.TID 0000.0001)                 1.114203141013064E+05,      /* I = 65 */
(PID.TID 0000.0001)                 1.391343389937106E+05,      /* I = 66 */
(PID.TID 0000.0001)                 1.709574999026266E+05,      /* I = 67 */
(PID.TID 0000.0001)                 1.946503699269892E+05,      /* I = 68 */
(PID.TID 0000.0001)                 2.135964483342134E+05,      /* I = 69 */
(PID.TID 0000.0001)                 2.294195678257306E+05,      /* I = 70 */
(PID.TID 0000.0001)                 2.429464709770498E+05,      /* I = 71 */
(PID.TID 0000.0001)                 2.546408290696998E+05,      /* I = 72 */
(PID.TID 0000.0001)                 2.647791839299727E+05,      /* I = 73 */
(PID.TID 0000.0001)                 2.735321911346108E+05,      /* I = 74 */
(PID.TID 0000.0001)                 2.810065951609633E+05,      /* I = 75 */
(PID.TID 0000.0001)                 2.872689479506990E+05,      /* I = 76 */
(PID.TID 0000.0001)                 2.923599955312932E+05,      /* I = 77 */
(PID.TID 0000.0001)                 2.963038832565530E+05,      /* I = 78 */
(PID.TID 0000.0001)                 2.991142470004740E+05,      /* I = 79 */
(PID.TID 0000.0001)                 3.007982711627968E+05,      /* I = 80 */
(PID.TID 0000.0001)                 3.013593857228136E+05,      /* I = 81 */
(PID.TID 0000.0001)                 3.007982711627968E+05,      /* I = 82 */
(PID.TID 0000.0001)                 2.991142470004740E+05,      /* I = 83 */
(PID.TID 0000.0001)                 2.963038832565530E+05,      /* I = 84 */
(PID.TID 0000.0001)                 2.923599955312932E+05,      /* I = 85 */
(PID.TID 0000.0001)                 2.872689479506990E+05,      /* I = 86 */
(PID.TID 0000.0001)                 2.810065951609633E+05,      /* I = 87 */
(PID.TID 0000.0001)                 2.735321911346108E+05,      /* I = 88 */
(PID.TID 0000.0001)                 2.647791839299727E+05,      /* I = 89 */
(PID.TID 0000.0001)                 2.546408290696998E+05,      /* I = 90 */
(PID.TID 0000.0001)                 2.429464709770498E+05,      /* I = 91 */
(PID.TID 0000.0001)                 2.294195678257306E+05,      /* I = 92 */
(PID.TID 0000.0001)                 2.135964483342134E+05,      /* I = 93 */
(PID.TID 0000.0001)                 1.946503699269892E+05,      /* I = 94 */
(PID.TID 0000.0001)                 1.709574999026266E+05,      /* I = 95 */
(PID.TID 0000.0001)                 1.391343389937106E+05,      /* I = 96 */
(PID.TID 0000.0001)                 1.114203141013064E+05,      /* I = 97 */
(PID.TID 0000.0001)                 1.391343389937106E+05,      /* I = 98 */
(PID.TID 0000.0001)                 1.709574999026266E+05,      /* I = 99 */
(PID.TID 0000.0001)                 1.946503699269892E+05,      /* I =100 */
(PID.TID 0000.0001)                 2.135964483342134E+05,      /* I =101 */
(PID.TID 0000.0001)                 2.294195678257306E+05,      /* I =102 */
(PID.TID 0000.0001)                 2.429464709770498E+05,      /* I =103 */
(PID.TID 0000.0001)                 2.546408290696998E+05,      /* I =104 */
(PID.TID 0000.0001)                 2.647791839299727E+05,      /* I =105 */
(PID.TID 0000.0001)                 2.735321911346108E+05,      /* I =106 */
(PID.TID 0000.0001)                 2.810065951609633E+05,      /* I =107 */
(PID.TID 0000.0001)                 2.872689479506990E+05,      /* I =108 */
(PID.TID 0000.0001)                 2.923599955312932E+05,      /* I =109 */
(PID.TID 0000.0001)                 2.963038832565530E+05,      /* I =110 */
(PID.TID 0000.0001)                 2.991142470004740E+05,      /* I =111 */
(PID.TID 0000.0001)                 3.007982711627968E+05,      /* I =112 */
(PID.TID 0000.0001)                 3.013593857228136E+05,      /* I =113 */
(PID.TID 0000.0001)                 3.007982711627968E+05,      /* I =114 */
(PID.TID 0000.0001)                 2.991142470004740E+05,      /* I =115 */
(PID.TID 0000.0001)                 2.963038832565530E+05,      /* I =116 */
(PID.TID 0000.0001)                 2.923599955312932E+05,      /* I =117 */
(PID.TID 0000.0001)                 2.872689479506990E+05,      /* I =118 */
(PID.TID 0000.0001)                 2.810065951609633E+05,      /* I =119 */
(PID.TID 0000.0001)                 2.735321911346108E+05,      /* I =120 */
(PID.TID 0000.0001)                 2.647791839299727E+05,      /* I =121 */
(PID.TID 0000.0001)                 2.546408290696998E+05,      /* I =122 */
(PID.TID 0000.0001)                 2.429464709770498E+05,      /* I =123 */
(PID.TID 0000.0001)                 2.294195678257306E+05,      /* I =124 */
(PID.TID 0000.0001)                 2.135964483342134E+05,      /* I =125 */
(PID.TID 0000.0001)                 1.946503699269892E+05,      /* I =126 */
(PID.TID 0000.0001)                 1.709574999026266E+05,      /* I =127 */
(PID.TID 0000.0001)                 1.391343389937106E+05,      /* I =128 */
(PID.TID 0000.0001)                 1.114203141013064E+05,      /* I =129 */
(PID.TID 0000.0001)                 1.391343389937106E+05,      /* I =130 */
(PID.TID 0000.0001)                 1.709574999026266E+05,      /* I =131 */
(PID.TID 0000.0001)                 1.946503699269892E+05,      /* I =132 */
(PID.TID 0000.0001)                 2.135964483342134E+05,      /* I =133 */
(PID.TID 0000.0001)                 2.294195678257306E+05,      /* I =134 */
(PID.TID 0000.0001)                 2.429464709770498E+05,      /* I =135 */
(PID.TID 0000.0001)                 2.546408290696998E+05,      /* I =136 */
(PID.TID 0000.0001)                 2.647791839299727E+05,      /* I =137 */
(PID.TID 0000.0001)                 2.735321911346108E+05,      /* I =138 */
(PID.TID 0000.0001)                 2.810065951609633E+05,      /* I =139 */
(PID.TID 0000.0001)                 2.872689479506990E+05,      /* I =140 */
(PID.TID 0000.0001)                 2.923599955312932E+05,      /* I =141 */
(PID.TID 0000.0001)                 2.963038832565530E+05,      /* I =142 */
(PID.TID 0000.0001)                 2.991142470004740E+05,      /* I =143 */
(PID.TID 0000.0001)                 3.007982711627968E+05,      /* I =144 */
(PID.TID 0000.0001)                 3.013593857228136E+05,      /* I =145 */
(PID.TID 0000.0001)                 3.007982711627968E+05,      /* I =146 */
(PID.TID 0000.0001)                 2.991142470004740E+05,      /* I =147 */
(PID.TID 0000.0001)                 2.963038832565530E+05,      /* I =148 */
(PID.TID 0000.0001)                 2.923599955312932E+05,      /* I =149 */
(PID.TID 0000.0001)                 2.872689479506990E+05,      /* I =150 */
(PID.TID 0000.0001)                 2.810065951609633E+05,      /* I =151 */
(PID.TID 0000.0001)                 2.735321911346108E+05,      /* I =152 */
(PID.TID 0000.0001)                 2.647791839299727E+05,      /* I =153 */
(PID.TID 0000.0001)                 2.546408290696998E+05,      /* I =154 */
(PID.TID 0000.0001)                 2.429464709770498E+05,      /* I =155 */
(PID.TID 0000.0001)                 2.294195678257306E+05,      /* I =156 */
(PID.TID 0000.0001)                 2.135964483342134E+05,      /* I =157 */
(PID.TID 0000.0001)                 1.946503699269892E+05,      /* I =158 */
(PID.TID 0000.0001)                 1.709574999026266E+05,      /* I =159 */
(PID.TID 0000.0001)                 1.391343389937106E+05,      /* I =160 */
(PID.TID 0000.0001)                 1.114203141013064E+05,      /* I =161 */
(PID.TID 0000.0001)                 1.391343389937106E+05,      /* I =162 */
(PID.TID 0000.0001)                 1.709574999026266E+05,      /* I =163 */
(PID.TID 0000.0001)                 1.946503699269892E+05,      /* I =164 */
(PID.TID 0000.0001)                 2.135964483342134E+05,      /* I =165 */
(PID.TID 0000.0001)                 2.294195678257306E+05,      /* I =166 */
(PID.TID 0000.0001)                 2.429464709770498E+05,      /* I =167 */
(PID.TID 0000.0001)                 2.546408290696998E+05,      /* I =168 */
(PID.TID 0000.0001)                 2.647791839299727E+05,      /* I =169 */
(PID.TID 0000.0001)                 2.735321911346108E+05,      /* I =170 */
(PID.TID 0000.0001)                 2.810065951609633E+05,      /* I =171 */
(PID.TID 0000.0001)                 2.872689479506990E+05,      /* I =172 */
(PID.TID 0000.0001)                 2.923599955312932E+05,      /* I =173 */
(PID.TID 0000.0001)                 2.963038832565530E+05,      /* I =174 */
(PID.TID 0000.0001)                 2.991142470004740E+05,      /* I =175 */
(PID.TID 0000.0001)                 3.007982711627968E+05,      /* I =176 */
(PID.TID 0000.0001)                 3.013593857228136E+05,      /* I =177 */
(PID.TID 0000.0001)                 3.007982711627968E+05,      /* I =178 */
(PID.TID 0000.0001)                 2.991142470004740E+05,      /* I =179 */
(PID.TID 0000.0001)                 2.963038832565530E+05,      /* I =180 */
(PID.TID 0000.0001)                 2.923599955312932E+05,      /* I =181 */
(PID.TID 0000.0001)                 2.872689479506990E+05,      /* I =182 */
(PID.TID 0000.0001)                 2.810065951609633E+05,      /* I =183 */
(PID.TID 0000.0001)                 2.735321911346108E+05,      /* I =184 */
(PID.TID 0000.0001)                 2.647791839299727E+05,      /* I =185 */
(PID.TID 0000.0001)                 2.546408290696998E+05,      /* I =186 */
(PID.TID 0000.0001)                 2.429464709770498E+05,      /* I =187 */
(PID.TID 0000.0001)                 2.294195678257306E+05,      /* I =188 */
(PID.TID 0000.0001)                 2.135964483342134E+05,      /* I =189 */
(PID.TID 0000.0001)                 1.946503699269892E+05,      /* I =190 */
(PID.TID 0000.0001)                 1.709574999026266E+05,      /* I =191 */
(PID.TID 0000.0001)                 1.391343389937106E+05       /* I =192 */
(PID.TID 0000.0001)     ;
(PID.TID 0000.0001) dxC =  /* dxC(1,:,1,:) ( units: m ) */
(PID.TID 0000.0001)                 1.114203141013064E+05,      /* J =  1 */
(PID.TID 0000.0001)                 1.549545757850771E+05,      /* J =  2 */
(PID.TID 0000.0001)                 1.829777599966776E+05,      /* J =  3 */
(PID.TID 0000.0001)                 2.042717761866506E+05,      /* J =  4 */
(PID.TID 0000.0001)                 2.216367828252819E+05,      /* J =  5 */
(PID.TID 0000.0001)                 2.363029564123586E+05,      /* J =  6 */
(PID.TID 0000.0001)                 2.489113743322025E+05,      /* J =  7 */
(PID.TID 0000.0001)                 2.598293319150326E+05,      /* J =  8 */
(PID.TID 0000.0001)                 2.692787333338535E+05,      /* J =  9 */
(PID.TID 0000.0001)                 2.773972106720365E+05,      /* J = 10 */
(PID.TID 0000.0001)                 2.842706922224557E+05,      /* J = 11 */
(PID.TID 0000.0001)                 2.899523122489403E+05,      /* J = 12 */
(PID.TID 0000.0001)                 2.944741346384699E+05,      /* J = 13 */
(PID.TID 0000.0001)                 2.978547649292580E+05,      /* J = 14 */
(PID.TID 0000.0001)                 3.001044073506459E+05,      /* J = 15 */
(PID.TID 0000.0001)     2 @  3.012281885409289E+05,             /* J = 16: 17 */
(PID.TID 0000.0001)                 3.001044073506459E+05,      /* J = 18 */
(PID.TID 0000.0001)                 2.978547649292580E+05,      /* J = 19 */
(PID.TID 0000.0001)                 2.944741346384699E+05,      /* J = 20 */
(PID.TID 0000.0001)                 2.899523122489403E+05,      /* J = 21 */
(PID.TID 0000.0001)                 2.842706922224557E+05,      /* J = 22 */
(PID.TID 0000.0001)                 2.773972106720365E+05,      /* J = 23 */
(PID.TID 0000.0001)                 2.692787333338535E+05,      /* J = 24 */
(PID.TID 0000.0001)                 2.598293319150326E+05,      /* J = 25 */
(PID.TID 0000.0001)                 2.489113743322025E+05,      /* J = 26 */
(PID.TID 0000.0001)                 2.363029564123586E+05,      /* J = 27 */
(PID.TID 0000.0001)                 2.216367828252819E+05,      /* J = 28 */
(PID.TID 0000.0001)                 2.042717761866506E+05,      /* J = 29 */
(PID.TID 0000.0001)                 1.829777599966776E+05,      /* J = 30 */
(PID.TID 0000.0001)                 1.549545757850771E+05,      /* J = 31 */
(PID.TID 0000.0001)                 1.114203141013064E+05       /* J = 32 */
(PID.TID 0000.0001)     ;
(PID.TID 0000.0001) dyC =  /* dyC(:,1,:,1) ( units: m ) */
(PID.TID 0000.0001)                 1.114203141013064E+05,      /* I =  1 */
(PID.TID 0000.0001)                 1.549545757850771E+05,      /* I =  2 */
(PID.TID 0000.0001)                 1.829777599966776E+05,      /* I =  3 */
(PID.TID 0000.0001)                 2.042717761866506E+05,      /* I =  4 */
(PID.TID 0000.0001)                 2.216367828252819E+05,      /* I =  5 */
(PID.TID 0000.0001)                 2.363029564123586E+05,      /* I =  6 */
(PID.TID 0000.0001)                 2.489113743322025E+05,      /* I =  7 */
(PID.TID 0000.0001)                 2.598293319150326E+05,      /* I =  8 */
(PID.TID 0000.0001)                 2.692787333338535E+05,      /* I =  9 */
(PID.TID 0000.0001)                 2.773972106720365E+05,      /* I = 10 */
(PID.TID 0000.0001)                 2.842706922224557E+05,      /* I = 11 */
(PID.TID 0000.0001)                 2.899523122489403E+05,      /* I = 12 */
(PID.TID 0000.0001)                 2.944741346384699E+05,      /* I = 13 */
(PID.TID 0000.0001)                 2.978547649292580E+05,      /* I = 14 */
(PID.TID 0000.0001)                 3.001044073506459E+05,      /* I = 15 */
(PID.TID 0000.0001)     2 @  3.012281885409289E+05,             /* I = 16: 17 */
(PID.TID 0000.0001)                 3.001044073506459E+05,      /* I = 18 */
(PID.TID 0000.0001)                 2.978547649292580E+05,      /* I = 19 */
(PID.TID 0000.0001)                 2.944741346384699E+05,      /* I = 20 */
(PID.TID 0000.0001)                 2.899523122489403E+05,      /* I = 21 */
(PID.TID 0000.0001)                 2.842706922224557E+05,      /* I = 22 */
(PID.TID 0000.0001)                 2.773972106720365E+05,      /* I = 23 */
(PID.TID 0000.0001)                 2.692787333338535E+05,      /* I = 24 */
(PID.TID 0000.0001)                 2.598293319150326E+05,      /* I = 25 */
(PID.TID 0000.0001)                 2.489113743322025E+05,      /* I = 26 */
(PID.TID 0000.0001)                 2.363029564123586E+05,      /* I = 27 */
(PID.TID 0000.0001)                 2.216367828252819E+05,      /* I = 28 */
(PID.TID 0000.0001)                 2.042717761866506E+05,      /* I = 29 */
(PID.TID 0000.0001)                 1.829777599966776E+05,      /* I = 30 */
(PID.TID 0000.0001)                 1.549545757850771E+05,      /* I = 31 */
(PID.TID 0000.0001)     2 @  1.114203141013064E+05,             /* I = 32: 33 */
(PID.TID 0000.0001)                 1.549545757850771E+05,      /* I = 34 */
(PID.TID 0000.0001)                 1.829777599966776E+05,      /* I = 35 */
(PID.TID 0000.0001)                 2.042717761866506E+05,      /* I = 36 */
(PID.TID 0000.0001)                 2.216367828252819E+05,      /* I = 37 */
(PID.TID 0000.0001)                 2.363029564123586E+05,      /* I = 38 */
(PID.TID 0000.0001)                 2.489113743322025E+05,      /* I = 39 */
(PID.TID 0000.0001)                 2.598293319150326E+05,      /* I = 40 */
(PID.TID 0000.0001)                 2.692787333338535E+05,      /* I = 41 */
(PID.TID 0000.0001)                 2.773972106720365E+05,      /* I = 42 */
(PID.TID 0000.0001)                 2.842706922224557E+05,      /* I = 43 */
(PID.TID 0000.0001)                 2.899523122489403E+05,      /* I = 44 */
(PID.TID 0000.0001)                 2.944741346384699E+05,      /* I = 45 */
(PID.TID 0000.0001)                 2.978547649292580E+05,      /* I = 46 */
(PID.TID 0000.0001)                 3.001044073506459E+05,      /* I = 47 */
(PID.TID 0000.0001)     2 @  3.012281885409289E+05,             /* I = 48: 49 */
(PID.TID 0000.0001)                 3.001044073506459E+05,      /* I = 50 */
(PID.TID 0000.0001)                 2.978547649292580E+05,      /* I = 51 */
(PID.TID 0000.0001)                 2.944741346384699E+05,      /* I = 52 */
(PID.TID 0000.0001)                 2.899523122489403E+05,      /* I = 53 */
(PID.TID 0000.0001)                 2.842706922224557E+05,      /* I = 54 */
(PID.TID 0000.0001)                 2.773972106720365E+05,      /* I = 55 */
(PID.TID 0000.0001)                 2.692787333338535E+05,      /* I = 56 */
(PID.TID 0000.0001)                 2.598293319150326E+05,      /* I = 57 */
(PID.TID 0000.0001)                 2.489113743322025E+05,      /* I = 58 */
(PID.TID 0000.0001)                 2.363029564123586E+05,      /* I = 59 */
(PID.TID 0000.0001)                 2.216367828252819E+05,      /* I = 60 */
(PID.TID 0000.0001)                 2.042717761866506E+05,      /* I = 61 */
(PID.TID 0000.0001)                 1.829777599966776E+05,      /* I = 62 */
(PID.TID 0000.0001)                 1.549545757850771E+05,      /* I = 63 */
(PID.TID 0000.0001)     2 @  1.114203141013064E+05,             /* I = 64: 65 */
(PID.TID 0000.0001)                 1.549545757850771E+05,      /* I = 66 */
(PID.TID 0000.0001)                 1.829777599966776E+05,      /* I = 67 */
(PID.TID 0000.0001)                 2.042717761866506E+05,      /* I = 68 */
(PID.TID 0000.0001)                 2.216367828252819E+05,      /* I = 69 */
(PID.TID 0000.0001)                 2.363029564123586E+05,      /* I = 70 */
(PID.TID 0000.0001)                 2.489113743322025E+05,      /* I = 71 */
(PID.TID 0000.0001)                 2.598293319150326E+05,      /* I = 72 */
(PID.TID 0000.0001)                 2.692787333338535E+05,      /* I = 73 */
(PID.TID 0000.0001)                 2.773972106720365E+05,      /* I = 74 */
(PID.TID 0000.0001)                 2.842706922224557E+05,      /* I = 75 */
(PID.TID 0000.0001)                 2.899523122489403E+05,      /* I = 76 */
(PID.TID 0000.0001)                 2.944741346384699E+05,      /* I = 77 */
(PID.TID 0000.0001)                 2.978547649292580E+05,      /* I = 78 */
(PID.TID 0000.0001)                 3.001044073506459E+05,      /* I = 79 */
(PID.TID 0000.0001)     2 @  3.012281885409289E+05,             /* I = 80: 81 */
(PID.TID 0000.0001)                 3.001044073506459E+05,      /* I = 82 */
(PID.TID 0000.0001)                 2.978547649292580E+05,      /* I = 83 */
(PID.TID 0000.0001)                 2.944741346384699E+05,      /* I = 84 */
(PID.TID 0000.0001)                 2.899523122489403E+05,      /* I = 85 */
(PID.TID 0000.0001)                 2.842706922224557E+05,      /* I = 86 */
(PID.TID 0000.0001)                 2.773972106720365E+05,      /* I = 87 */
(PID.TID 0000.0001)                 2.692787333338535E+05,      /* I = 88 */
(PID.TID 0000.0001)                 2.598293319150326E+05,      /* I = 89 */
(PID.TID 0000.0001)                 2.489113743322025E+05,      /* I = 90 */
(PID.TID 0000.0001)                 2.363029564123586E+05,      /* I = 91 */
(PID.TID 0000.0001)                 2.216367828252819E+05,      /* I = 92 */
(PID.TID 0000.0001)                 2.042717761866506E+05,      /* I = 93 */
(PID.TID 0000.0001)                 1.829777599966776E+05,      /* I = 94 */
(PID.TID 0000.0001)                 1.549545757850771E+05,      /* I = 95 */
(PID.TID 0000.0001)     2 @  1.114203141013064E+05,             /* I = 96: 97 */
(PID.TID 0000.0001)                 1.549545757850771E+05,      /* I = 98 */
(PID.TID 0000.0001)                 1.829777599966776E+05,      /* I = 99 */
(PID.TID 0000.0001)                 2.042717761866506E+05,      /* I =100 */
(PID.TID 0000.0001)                 2.216367828252819E+05,      /* I =101 */
(PID.TID 0000.0001)                 2.363029564123586E+05,      /* I =102 */
(PID.TID 0000.0001)                 2.489113743322025E+05,      /* I =103 */
(PID.TID 0000.0001)                 2.598293319150326E+05,      /* I =104 */
(PID.TID 0000.0001)                 2.692787333338535E+05,      /* I =105 */
(PID.TID 0000.0001)                 2.773972106720365E+05,      /* I =106 */
(PID.TID 0000.0001)                 2.842706922224557E+05,      /* I =107 */
(PID.TID 0000.0001)                 2.899523122489403E+05,      /* I =108 */
(PID.TID 0000.0001)                 2.944741346384699E+05,      /* I =109 */
(PID.TID 0000.0001)                 2.978547649292580E+05,      /* I =110 */
(PID.TID 0000.0001)                 3.001044073506459E+05,      /* I =111 */
(PID.TID 0000.0001)     2 @  3.012281885409289E+05,             /* I =112:113 */
(PID.TID 0000.0001)                 3.001044073506459E+05,      /* I =114 */
(PID.TID 0000.0001)                 2.978547649292580E+05,      /* I =115 */
(PID.TID 0000.0001)                 2.944741346384699E+05,      /* I =116 */
(PID.TID 0000.0001)                 2.899523122489403E+05,      /* I =117 */
(PID.TID 0000.0001)                 2.842706922224557E+05,      /* I =118 */
(PID.TID 0000.0001)                 2.773972106720365E+05,      /* I =119 */
(PID.TID 0000.0001)                 2.692787333338535E+05,      /* I =120 */
(PID.TID 0000.0001)                 2.598293319150326E+05,      /* I =121 */
(PID.TID 0000.0001)                 2.489113743322025E+05,      /* I =122 */
(PID.TID 0000.0001)                 2.363029564123586E+05,      /* I =123 */
(PID.TID 0000.0001)                 2.216367828252819E+05,      /* I =124 */
(PID.TID 0000.0001)                 2.042717761866506E+05,      /* I =125 */
(PID.TID 0000.0001)                 1.829777599966776E+05,      /* I =126 */
(PID.TID 0000.0001)                 1.549545757850771E+05,      /* I =127 */
(PID.TID 0000.0001)     2 @  1.114203141013064E+05,             /* I =128:129 */
(PID.TID 0000.0001)                 1.549545757850771E+05,      /* I =130 */
(PID.TID 0000.0001)                 1.829777599966776E+05,      /* I =131 */
(PID.TID 0000.0001)                 2.042717761866506E+05,      /* I =132 */
(PID.TID 0000.0001)                 2.216367828252819E+05,      /* I =133 */
(PID.TID 0000.0001)                 2.363029564123586E+05,      /* I =134 */
(PID.TID 0000.0001)                 2.489113743322025E+05,      /* I =135 */
(PID.TID 0000.0001)                 2.598293319150326E+05,      /* I =136 */
(PID.TID 0000.0001)                 2.692787333338535E+05,      /* I =137 */
(PID.TID 0000.0001)                 2.773972106720365E+05,      /* I =138 */
(PID.TID 0000.0001)                 2.842706922224557E+05,      /* I =139 */
(PID.TID 0000.0001)                 2.899523122489403E+05,      /* I =140 */
(PID.TID 0000.0001)                 2.944741346384699E+05,      /* I =141 */
(PID.TID 0000.0001)                 2.978547649292580E+05,      /* I =142 */
(PID.TID 0000.0001)                 3.001044073506459E+05,      /* I =143 */
(PID.TID 0000.0001)     2 @  3.012281885409289E+05,             /* I =144:145 */
(PID.TID 0000.0001)                 3.001044073506459E+05,      /* I =146 */
(PID.TID 0000.0001)                 2.978547649292580E+05,      /* I =147 */
(PID.TID 0000.0001)                 2.944741346384699E+05,      /* I =148 */
(PID.TID 0000.0001)                 2.899523122489403E+05,      /* I =149 */
(PID.TID 0000.0001)                 2.842706922224557E+05,      /* I =150 */
(PID.TID 0000.0001)                 2.773972106720365E+05,      /* I =151 */
(PID.TID 0000.0001)                 2.692787333338535E+05,      /* I =152 */
(PID.TID 0000.0001)                 2.598293319150326E+05,      /* I =153 */
(PID.TID 0000.0001)                 2.489113743322025E+05,      /* I =154 */
(PID.TID 0000.0001)                 2.363029564123586E+05,      /* I =155 */
(PID.TID 0000.0001)                 2.216367828252819E+05,      /* I =156 */
(PID.TID 0000.0001)                 2.042717761866506E+05,      /* I =157 */
(PID.TID 0000.0001)                 1.829777599966776E+05,      /* I =158 */
(PID.TID 0000.0001)                 1.549545757850771E+05,      /* I =159 */
(PID.TID 0000.0001)     2 @  1.114203141013064E+05,             /* I =160:161 */
(PID.TID 0000.0001)                 1.549545757850771E+05,      /* I =162 */
(PID.TID 0000.0001)                 1.829777599966776E+05,      /* I =163 */
(PID.TID 0000.0001)                 2.042717761866506E+05,      /* I =164 */
(PID.TID 0000.0001)                 2.216367828252819E+05,      /* I =165 */
(PID.TID 0000.0001)                 2.363029564123586E+05,      /* I =166 */
(PID.TID 0000.0001)                 2.489113743322025E+05,      /* I =167 */
(PID.TID 0000.0001)                 2.598293319150326E+05,      /* I =168 */
(PID.TID 0000.0001)                 2.692787333338535E+05,      /* I =169 */
(PID.TID 0000.0001)                 2.773972106720365E+05,      /* I =170 */
(PID.TID 0000.0001)                 2.842706922224557E+05,      /* I =171 */
(PID.TID 0000.0001)                 2.899523122489403E+05,      /* I =172 */
(PID.TID 0000.0001)                 2.944741346384699E+05,      /* I =173 */
(PID.TID 0000.0001)                 2.978547649292580E+05,      /* I =174 */
(PID.TID 0000.0001)                 3.001044073506459E+05,      /* I =175 */
(PID.TID 0000.0001)     2 @  3.012281885409289E+05,             /* I =176:177 */
(PID.TID 0000.0001)                 3.001044073506459E+05,      /* I =178 */
(PID.TID 0000.0001)                 2.978547649292580E+05,      /* I =179 */
(PID.TID 0000.0001)                 2.944741346384699E+05,      /* I =180 */
(PID.TID 0000.0001)                 2.899523122489403E+05,      /* I =181 */
(PID.TID 0000.0001)                 2.842706922224557E+05,      /* I =182 */
(PID.TID 0000.0001)                 2.773972106720365E+05,      /* I =183 */
(PID.TID 0000.0001)                 2.692787333338535E+05,      /* I =184 */
(PID.TID 0000.0001)                 2.598293319150326E+05,      /* I =185 */
(PID.TID 0000.0001)                 2.489113743322025E+05,      /* I =186 */
(PID.TID 0000.0001)                 2.363029564123586E+05,      /* I =187 */
(PID.TID 0000.0001)                 2.216367828252819E+05,      /* I =188 */
(PID.TID 0000.0001)                 2.042717761866506E+05,      /* I =189 */
(PID.TID 0000.0001)                 1.829777599966776E+05,      /* I =190 */
(PID.TID 0000.0001)                 1.549545757850771E+05,      /* I =191 */
(PID.TID 0000.0001)                 1.114203141013064E+05       /* I =192 */
(PID.TID 0000.0001)     ;
(PID.TID 0000.0001) dyC =  /* dyC(1,:,1,:) ( units: m ) */
(PID.TID 0000.0001)                 1.114203141013064E+05,      /* J =  1 */
(PID.TID 0000.0001)                 1.391343389937106E+05,      /* J =  2 */
(PID.TID 0000.0001)                 1.709574999026266E+05,      /* J =  3 */
(PID.TID 0000.0001)                 1.946503699269892E+05,      /* J =  4 */
(PID.TID 0000.0001)                 2.135964483342134E+05,      /* J =  5 */
(PID.TID 0000.0001)                 2.294195678257306E+05,      /* J =  6 */
(PID.TID 0000.0001)                 2.429464709770498E+05,      /* J =  7 */
(PID.TID 0000.0001)                 2.546408290696998E+05,      /* J =  8 */
(PID.TID 0000.0001)                 2.647791839299727E+05,      /* J =  9 */
(PID.TID 0000.0001)                 2.735321911346108E+05,      /* J = 10 */
(PID.TID 0000.0001)                 2.810065951609633E+05,      /* J = 11 */
(PID.TID 0000.0001)                 2.872689479506990E+05,      /* J = 12 */
(PID.TID 0000.0001)                 2.923599955312932E+05,      /* J = 13 */
(PID.TID 0000.0001)                 2.963038832565530E+05,      /* J = 14 */
(PID.TID 0000.0001)                 2.991142470004740E+05,      /* J = 15 */
(PID.TID 0000.0001)                 3.007982711627968E+05,      /* J = 16 */
(PID.TID 0000.0001)                 3.013593857228136E+05,      /* J = 17 */
(PID.TID 0000.0001)                 3.007982711627968E+05,      /* J = 18 */
(PID.TID 0000.0001)                 2.991142470004740E+05,      /* J = 19 */
(PID.TID 0000.0001)                 2.963038832565530E+05,      /* J = 20 */
(PID.TID 0000.0001)                 2.923599955312932E+05,      /* J = 21 */
(PID.TID 0000.0001)                 2.872689479506990E+05,      /* J = 22 */
(PID.TID 0000.0001)                 2.810065951609633E+05,      /* J = 23 */
(PID.TID 0000.0001)                 2.735321911346108E+05,      /* J = 24 */
(PID.TID 0000.0001)                 2.647791839299727E+05,      /* J = 25 */
(PID.TID 0000.0001)                 2.546408290696998E+05,      /* J = 26 */
(PID.TID 0000.0001)                 2.429464709770498E+05,      /* J = 27 */
(PID.TID 0000.0001)                 2.294195678257306E+05,      /* J = 28 */
(PID.TID 0000.0001)                 2.135964483342134E+05,      /* J = 29 */
(PID.TID 0000.0001)                 1.946503699269892E+05,      /* J = 30 */
(PID.TID 0000.0001)                 1.709574999026266E+05,      /* J = 31 */
(PID.TID 0000.0001)                 1.391343389937106E+05       /* J = 32 */
(PID.TID 0000.0001)     ;
(PID.TID 0000.0001) dxV =  /* dxV(:,1,:,1) ( units: m ) */
(PID.TID 0000.0001)                 8.015229982413632E+04,      /* I =  1 */
(PID.TID 0000.0001)                 1.333130744933864E+05,      /* I =  2 */
(PID.TID 0000.0001)                 1.691744868129062E+05,      /* I =  3 */
(PID.TID 0000.0001)                 1.937548202849060E+05,      /* I =  4 */
(PID.TID 0000.0001)                 2.130490056267208E+05,      /* I =  5 */
(PID.TID 0000.0001)                 2.290479919481738E+05,      /* I =  6 */
(PID.TID 0000.0001)                 2.426774358027003E+05,      /* I =  7 */
(PID.TID 0000.0001)                 2.544372984215561E+05,      /* I =  8 */
(PID.TID 0000.0001)                 2.646201463834826E+05,      /* I =  9 */
(PID.TID 0000.0001)                 2.734046499619031E+05,      /* I = 10 */
(PID.TID 0000.0001)                 2.809019351693761E+05,      /* I = 11 */
(PID.TID 0000.0001)                 2.871811105274442E+05,      /* I = 12 */
(PID.TID 0000.0001)                 2.922844849381675E+05,      /* I = 13 */
(PID.TID 0000.0001)                 2.962371870847826E+05,      /* I = 14 */
(PID.TID 0000.0001)                 2.990534755671296E+05,      /* I = 15 */
(PID.TID 0000.0001)                 3.007409169495504E+05,      /* I = 16 */
(PID.TID 0000.0001)                 3.013031486919771E+05,      /* I = 17 */
(PID.TID 0000.0001)                 3.007409169495504E+05,      /* I = 18 */
(PID.TID 0000.0001)                 2.990534755671296E+05,      /* I = 19 */
(PID.TID 0000.0001)                 2.962371870847826E+05,      /* I = 20 */
(PID.TID 0000.0001)                 2.922844849381675E+05,      /* I = 21 */
(PID.TID 0000.0001)                 2.871811105274442E+05,      /* I = 22 */
(PID.TID 0000.0001)                 2.809019351693761E+05,      /* I = 23 */
(PID.TID 0000.0001)                 2.734046499619031E+05,      /* I = 24 */
(PID.TID 0000.0001)                 2.646201463834826E+05,      /* I = 25 */
(PID.TID 0000.0001)                 2.544372984215561E+05,      /* I = 26 */
(PID.TID 0000.0001)                 2.426774358027003E+05,      /* I = 27 */
(PID.TID 0000.0001)                 2.290479919481738E+05,      /* I = 28 */
(PID.TID 0000.0001)                 2.130490056267208E+05,      /* I = 29 */
(PID.TID 0000.0001)                 1.937548202849060E+05,      /* I = 30 */
(PID.TID 0000.0001)                 1.691744868129062E+05,      /* I = 31 */
(PID.TID 0000.0001)                 1.333130744933864E+05,      /* I = 32 */
(PID.TID 0000.0001)                 8.015229982413632E+04,      /* I = 33 */
(PID.TID 0000.0001)                 1.333130744933864E+05,      /* I = 34 */
(PID.TID 0000.0001)                 1.691744868129062E+05,      /* I = 35 */
(PID.TID 0000.0001)                 1.937548202849060E+05,      /* I = 36 */
(PID.TID 0000.0001)                 2.130490056267208E+05,      /* I = 37 */
(PID.TID 0000.0001)                 2.290479919481738E+05,      /* I = 38 */
(PID.TID 0000.0001)                 2.426774358027003E+05,      /* I = 39 */
(PID.TID 0000.0001)                 2.544372984215561E+05,      /* I = 40 */
(PID.TID 0000.0001)                 2.646201463834826E+05,      /* I = 41 */
(PID.TID 0000.0001)                 2.734046499619031E+05,      /* I = 42 */
(PID.TID 0000.0001)                 2.809019351693761E+05,      /* I = 43 */
(PID.TID 0000.0001)                 2.871811105274442E+05,      /* I = 44 */
(PID.TID 0000.0001)                 2.922844849381675E+05,      /* I = 45 */
(PID.TID 0000.0001)                 2.962371870847826E+05,      /* I = 46 */
(PID.TID 0000.0001)                 2.990534755671296E+05,      /* I = 47 */
(PID.TID 0000.0001)                 3.007409169495504E+05,      /* I = 48 */
(PID.TID 0000.0001)                 3.013031486919771E+05,      /* I = 49 */
(PID.TID 0000.0001)                 3.007409169495504E+05,      /* I = 50 */
(PID.TID 0000.0001)                 2.990534755671296E+05,      /* I = 51 */
(PID.TID 0000.0001)                 2.962371870847826E+05,      /* I = 52 */
(PID.TID 0000.0001)                 2.922844849381675E+05,      /* I = 53 */
(PID.TID 0000.0001)                 2.871811105274442E+05,      /* I = 54 */
(PID.TID 0000.0001)                 2.809019351693761E+05,      /* I = 55 */
(PID.TID 0000.0001)                 2.734046499619031E+05,      /* I = 56 */
(PID.TID 0000.0001)                 2.646201463834826E+05,      /* I = 57 */
(PID.TID 0000.0001)                 2.544372984215561E+05,      /* I = 58 */
(PID.TID 0000.0001)                 2.426774358027003E+05,      /* I = 59 */
(PID.TID 0000.0001)                 2.290479919481738E+05,      /* I = 60 */
(PID.TID 0000.0001)                 2.130490056267208E+05,      /* I = 61 */
(PID.TID 0000.0001)                 1.937548202849060E+05,      /* I = 62 */
(PID.TID 0000.0001)                 1.691744868129062E+05,      /* I = 63 */
(PID.TID 0000.0001)                 1.333130744933864E+05,      /* I = 64 */
(PID.TID 0000.0001)                 8.015229982413632E+04,      /* I = 65 */
(PID.TID 0000.0001)                 1.333130744933864E+05,      /* I = 66 */
(PID.TID 0000.0001)                 1.691744868129062E+05,      /* I = 67 */
(PID.TID 0000.0001)                 1.937548202849060E+05,      /* I = 68 */
(PID.TID 0000.0001)                 2.130490056267208E+05,      /* I = 69 */
(PID.TID 0000.0001)                 2.290479919481738E+05,      /* I = 70 */
(PID.TID 0000.0001)                 2.426774358027003E+05,      /* I = 71 */
(PID.TID 0000.0001)                 2.544372984215561E+05,      /* I = 72 */
(PID.TID 0000.0001)                 2.646201463834826E+05,      /* I = 73 */
(PID.TID 0000.0001)                 2.734046499619031E+05,      /* I = 74 */
(PID.TID 0000.0001)                 2.809019351693761E+05,      /* I = 75 */
(PID.TID 0000.0001)                 2.871811105274442E+05,      /* I = 76 */
(PID.TID 0000.0001)                 2.922844849381675E+05,      /* I = 77 */
(PID.TID 0000.0001)                 2.962371870847826E+05,      /* I = 78 */
(PID.TID 0000.0001)                 2.990534755671296E+05,      /* I = 79 */
(PID.TID 0000.0001)                 3.007409169495504E+05,      /* I = 80 */
(PID.TID 0000.0001)                 3.013031486919771E+05,      /* I = 81 */
(PID.TID 0000.0001)                 3.007409169495504E+05,      /* I = 82 */
(PID.TID 0000.0001)                 2.990534755671296E+05,      /* I = 83 */
(PID.TID 0000.0001)                 2.962371870847826E+05,      /* I = 84 */
(PID.TID 0000.0001)                 2.922844849381675E+05,      /* I = 85 */
(PID.TID 0000.0001)                 2.871811105274442E+05,      /* I = 86 */
(PID.TID 0000.0001)                 2.809019351693761E+05,      /* I = 87 */
(PID.TID 0000.0001)                 2.734046499619031E+05,      /* I = 88 */
(PID.TID 0000.0001)                 2.646201463834826E+05,      /* I = 89 */
(PID.TID 0000.0001)                 2.544372984215561E+05,      /* I = 90 */
(PID.TID 0000.0001)                 2.426774358027003E+05,      /* I = 91 */
(PID.TID 0000.0001)                 2.290479919481738E+05,      /* I = 92 */
(PID.TID 0000.0001)                 2.130490056267208E+05,      /* I = 93 */
(PID.TID 0000.0001)                 1.937548202849060E+05,      /* I = 94 */
(PID.TID 0000.0001)                 1.691744868129062E+05,      /* I = 95 */
(PID.TID 0000.0001)                 1.333130744933864E+05,      /* I = 96 */
(PID.TID 0000.0001)                 8.015229982413632E+04,      /* I = 97 */
(PID.TID 0000.0001)                 1.333130744933864E+05,      /* I = 98 */
(PID.TID 0000.0001)                 1.691744868129062E+05,      /* I = 99 */
(PID.TID 0000.0001)                 1.937548202849060E+05,      /* I =100 */
(PID.TID 0000.0001)                 2.130490056267208E+05,      /* I =101 */
(PID.TID 0000.0001)                 2.290479919481738E+05,      /* I =102 */
(PID.TID 0000.0001)                 2.426774358027003E+05,      /* I =103 */
(PID.TID 0000.0001)                 2.544372984215561E+05,      /* I =104 */
(PID.TID 0000.0001)                 2.646201463834826E+05,      /* I =105 */
(PID.TID 0000.0001)                 2.734046499619031E+05,      /* I =106 */
(PID.TID 0000.0001)                 2.809019351693761E+05,      /* I =107 */
(PID.TID 0000.0001)                 2.871811105274442E+05,      /* I =108 */
(PID.TID 0000.0001)                 2.922844849381675E+05,      /* I =109 */
(PID.TID 0000.0001)                 2.962371870847826E+05,      /* I =110 */
(PID.TID 0000.0001)                 2.990534755671296E+05,      /* I =111 */
(PID.TID 0000.0001)                 3.007409169495504E+05,      /* I =112 */
(PID.TID 0000.0001)                 3.013031486919771E+05,      /* I =113 */
(PID.TID 0000.0001)                 3.007409169495504E+05,      /* I =114 */
(PID.TID 0000.0001)                 2.990534755671296E+05,      /* I =115 */
(PID.TID 0000.0001)                 2.962371870847826E+05,      /* I =116 */
(PID.TID 0000.0001)                 2.922844849381675E+05,      /* I =117 */
(PID.TID 0000.0001)                 2.871811105274442E+05,      /* I =118 */
(PID.TID 0000.0001)                 2.809019351693761E+05,      /* I =119 */
(PID.TID 0000.0001)                 2.734046499619031E+05,      /* I =120 */
(PID.TID 0000.0001)                 2.646201463834826E+05,      /* I =121 */
(PID.TID 0000.0001)                 2.544372984215561E+05,      /* I =122 */
(PID.TID 0000.0001)                 2.426774358027003E+05,      /* I =123 */
(PID.TID 0000.0001)                 2.290479919481738E+05,      /* I =124 */
(PID.TID 0000.0001)                 2.130490056267208E+05,      /* I =125 */
(PID.TID 0000.0001)                 1.937548202849060E+05,      /* I =126 */
(PID.TID 0000.0001)                 1.691744868129062E+05,      /* I =127 */
(PID.TID 0000.0001)                 1.333130744933864E+05,      /* I =128 */
(PID.TID 0000.0001)                 8.015229982413632E+04,      /* I =129 */
(PID.TID 0000.0001)                 1.333130744933864E+05,      /* I =130 */
(PID.TID 0000.0001)                 1.691744868129062E+05,      /* I =131 */
(PID.TID 0000.0001)                 1.937548202849060E+05,      /* I =132 */
(PID.TID 0000.0001)                 2.130490056267208E+05,      /* I =133 */
(PID.TID 0000.0001)                 2.290479919481738E+05,      /* I =134 */
(PID.TID 0000.0001)                 2.426774358027003E+05,      /* I =135 */
(PID.TID 0000.0001)                 2.544372984215561E+05,      /* I =136 */
(PID.TID 0000.0001)                 2.646201463834826E+05,      /* I =137 */
(PID.TID 0000.0001)                 2.734046499619031E+05,      /* I =138 */
(PID.TID 0000.0001)                 2.809019351693761E+05,      /* I =139 */
(PID.TID 0000.0001)                 2.871811105274442E+05,      /* I =140 */
(PID.TID 0000.0001)                 2.922844849381675E+05,      /* I =141 */
(PID.TID 0000.0001)                 2.962371870847826E+05,      /* I =142 */
(PID.TID 0000.0001)                 2.990534755671296E+05,      /* I =143 */
(PID.TID 0000.0001)                 3.007409169495504E+05,      /* I =144 */
(PID.TID 0000.0001)                 3.013031486919771E+05,      /* I =145 */
(PID.TID 0000.0001)                 3.007409169495504E+05,      /* I =146 */
(PID.TID 0000.0001)                 2.990534755671296E+05,      /* I =147 */
(PID.TID 0000.0001)                 2.962371870847826E+05,      /* I =148 */
(PID.TID 0000.0001)                 2.922844849381675E+05,      /* I =149 */
(PID.TID 0000.0001)                 2.871811105274442E+05,      /* I =150 */
(PID.TID 0000.0001)                 2.809019351693761E+05,      /* I =151 */
(PID.TID 0000.0001)                 2.734046499619031E+05,      /* I =152 */
(PID.TID 0000.0001)                 2.646201463834826E+05,      /* I =153 */
(PID.TID 0000.0001)                 2.544372984215561E+05,      /* I =154 */
(PID.TID 0000.0001)                 2.426774358027003E+05,      /* I =155 */
(PID.TID 0000.0001)                 2.290479919481738E+05,      /* I =156 */
(PID.TID 0000.0001)                 2.130490056267208E+05,      /* I =157 */
(PID.TID 0000.0001)                 1.937548202849060E+05,      /* I =158 */
(PID.TID 0000.0001)                 1.691744868129062E+05,      /* I =159 */
(PID.TID 0000.0001)                 1.333130744933864E+05,      /* I =160 */
(PID.TID 0000.0001)                 8.015229982413632E+04,      /* I =161 */
(PID.TID 0000.0001)                 1.333130744933864E+05,      /* I =162 */
(PID.TID 0000.0001)                 1.691744868129062E+05,      /* I =163 */
(PID.TID 0000.0001)                 1.937548202849060E+05,      /* I =164 */
(PID.TID 0000.0001)                 2.130490056267208E+05,      /* I =165 */
(PID.TID 0000.0001)                 2.290479919481738E+05,      /* I =166 */
(PID.TID 0000.0001)                 2.426774358027003E+05,      /* I =167 */
(PID.TID 0000.0001)                 2.544372984215561E+05,      /* I =168 */
(PID.TID 0000.0001)                 2.646201463834826E+05,      /* I =169 */
(PID.TID 0000.0001)                 2.734046499619031E+05,      /* I =170 */
(PID.TID 0000.0001)                 2.809019351693761E+05,      /* I =171 */
(PID.TID 0000.0001)                 2.871811105274442E+05,      /* I =172 */
(PID.TID 0000.0001)                 2.922844849381675E+05,      /* I =173 */
(PID.TID 0000.0001)                 2.962371870847826E+05,      /* I =174 */
(PID.TID 0000.0001)                 2.990534755671296E+05,      /* I =175 */
(PID.TID 0000.0001)                 3.007409169495504E+05,      /* I =176 */
(PID.TID 0000.0001)                 3.013031486919771E+05,      /* I =177 */
(PID.TID 0000.0001)                 3.007409169495504E+05,      /* I =178 */
(PID.TID 0000.0001)                 2.990534755671296E+05,      /* I =179 */
(PID.TID 0000.0001)                 2.962371870847826E+05,      /* I =180 */
(PID.TID 0000.0001)                 2.922844849381675E+05,      /* I =181 */
(PID.TID 0000.0001)                 2.871811105274442E+05,      /* I =182 */
(PID.TID 0000.0001)                 2.809019351693761E+05,      /* I =183 */
(PID.TID 0000.0001)                 2.734046499619031E+05,      /* I =184 */
(PID.TID 0000.0001)                 2.646201463834826E+05,      /* I =185 */
(PID.TID 0000.0001)                 2.544372984215561E+05,      /* I =186 */
(PID.TID 0000.0001)                 2.426774358027003E+05,      /* I =187 */
(PID.TID 0000.0001)                 2.290479919481738E+05,      /* I =188 */
(PID.TID 0000.0001)                 2.130490056267208E+05,      /* I =189 */
(PID.TID 0000.0001)                 1.937548202849060E+05,      /* I =190 */
(PID.TID 0000.0001)                 1.691744868129062E+05,      /* I =191 */
(PID.TID 0000.0001)                 1.333130744933864E+05       /* I =192 */
(PID.TID 0000.0001)     ;
(PID.TID 0000.0001) dxV =  /* dxV(1,:,1,:) ( units: m ) */
(PID.TID 0000.0001)                 8.015229982413632E+04,      /* J =  1 */
(PID.TID 0000.0001)                 1.362652340208229E+05,      /* J =  2 */
(PID.TID 0000.0001)                 1.701080315742101E+05,      /* J =  3 */
(PID.TID 0000.0001)                 1.942331448101592E+05,      /* J =  4 */
(PID.TID 0000.0001)                 2.133486626971531E+05,      /* J =  5 */
(PID.TID 0000.0001)                 2.292584591272880E+05,      /* J =  6 */
(PID.TID 0000.0001)                 2.428369969078989E+05,      /* J =  7 */
(PID.TID 0000.0001)                 2.545652950875683E+05,      /* J =  8 */
(PID.TID 0000.0001)                 2.647274964828301E+05,      /* J =  9 */
(PID.TID 0000.0001)                 2.734980225206389E+05,      /* J = 10 */
(PID.TID 0000.0001)                 2.809856491525217E+05,      /* J = 11 */
(PID.TID 0000.0001)                 2.872580915202295E+05,      /* J = 12 */
(PID.TID 0000.0001)                 2.923567890694162E+05,      /* J = 13 */
(PID.TID 0000.0001)                 2.963063101754721E+05,      /* J = 14 */
(PID.TID 0000.0001)                 2.991205495886625E+05,      /* J = 15 */
(PID.TID 0000.0001)                 3.008068453676764E+05,      /* J = 16 */
(PID.TID 0000.0001)                 3.013686170436881E+05,      /* J = 17 */
(PID.TID 0000.0001)                 3.008068453676764E+05,      /* J = 18 */
(PID.TID 0000.0001)                 2.991205495886625E+05,      /* J = 19 */
(PID.TID 0000.0001)                 2.963063101754721E+05,      /* J = 20 */
(PID.TID 0000.0001)                 2.923567890694162E+05,      /* J = 21 */
(PID.TID 0000.0001)                 2.872580915202295E+05,      /* J = 22 */
(PID.TID 0000.0001)                 2.809856491525217E+05,      /* J = 23 */
(PID.TID 0000.0001)                 2.734980225206389E+05,      /* J = 24 */
(PID.TID 0000.0001)                 2.647274964828301E+05,      /* J = 25 */
(PID.TID 0000.0001)                 2.545652950875683E+05,      /* J = 26 */
(PID.TID 0000.0001)                 2.428369969078989E+05,      /* J = 27 */
(PID.TID 0000.0001)                 2.292584591272880E+05,      /* J = 28 */
(PID.TID 0000.0001)                 2.133486626971531E+05,      /* J = 29 */
(PID.TID 0000.0001)                 1.942331448101592E+05,      /* J = 30 */
(PID.TID 0000.0001)                 1.701080315742101E+05,      /* J = 31 */
(PID.TID 0000.0001)                 1.362652340208229E+05       /* J = 32 */
(PID.TID 0000.0001)     ;
(PID.TID 0000.0001) dyU =  /* dyU(:,1,:,1) ( units: m ) */
(PID.TID 0000.0001)                 8.015229982413632E+04,      /* I =  1 */
(PID.TID 0000.0001)                 1.362652340208229E+05,      /* I =  2 */
(PID.TID 0000.0001)                 1.701080315742101E+05,      /* I =  3 */
(PID.TID 0000.0001)                 1.942331448101592E+05,      /* I =  4 */
(PID.TID 0000.0001)                 2.133486626971531E+05,      /* I =  5 */
(PID.TID 0000.0001)                 2.292584591272880E+05,      /* I =  6 */
(PID.TID 0000.0001)                 2.428369969078989E+05,      /* I =  7 */
(PID.TID 0000.0001)                 2.545652950875683E+05,      /* I =  8 */
(PID.TID 0000.0001)                 2.647274964828301E+05,      /* I =  9 */
(PID.TID 0000.0001)                 2.734980225206389E+05,      /* I = 10 */
(PID.TID 0000.0001)                 2.809856491525217E+05,      /* I = 11 */
(PID.TID 0000.0001)                 2.872580915202295E+05,      /* I = 12 */
(PID.TID 0000.0001)                 2.923567890694162E+05,      /* I = 13 */
(PID.TID 0000.0001)                 2.963063101754721E+05,      /* I = 14 */
(PID.TID 0000.0001)                 2.991205495886625E+05,      /* I = 15 */
(PID.TID 0000.0001)                 3.008068453676764E+05,      /* I = 16 */
(PID.TID 0000.0001)                 3.013686170436881E+05,      /* I = 17 */
(PID.TID 0000.0001)                 3.008068453676764E+05,      /* I = 18 */
(PID.TID 0000.0001)                 2.991205495886625E+05,      /* I = 19 */
(PID.TID 0000.0001)                 2.963063101754721E+05,      /* I = 20 */
(PID.TID 0000.0001)                 2.923567890694162E+05,      /* I = 21 */
(PID.TID 0000.0001)                 2.872580915202295E+05,      /* I = 22 */
(PID.TID 0000.0001)                 2.809856491525217E+05,      /* I = 23 */
(PID.TID 0000.0001)                 2.734980225206389E+05,      /* I = 24 */
(PID.TID 0000.0001)                 2.647274964828301E+05,      /* I = 25 */
(PID.TID 0000.0001)                 2.545652950875683E+05,      /* I = 26 */
(PID.TID 0000.0001)                 2.428369969078989E+05,      /* I = 27 */
(PID.TID 0000.0001)                 2.292584591272880E+05,      /* I = 28 */
(PID.TID 0000.0001)                 2.133486626971531E+05,      /* I = 29 */
(PID.TID 0000.0001)                 1.942331448101592E+05,      /* I = 30 */
(PID.TID 0000.0001)                 1.701080315742101E+05,      /* I = 31 */
(PID.TID 0000.0001)                 1.362652340208229E+05,      /* I = 32 */
(PID.TID 0000.0001)                 8.015229982413632E+04,      /* I = 33 */
(PID.TID 0000.0001)                 1.362652340208229E+05,      /* I = 34 */
(PID.TID 0000.0001)                 1.701080315742101E+05,      /* I = 35 */
(PID.TID 0000.0001)                 1.942331448101592E+05,      /* I = 36 */
(PID.TID 0000.0001)                 2.133486626971531E+05,      /* I = 37 */
(PID.TID 0000.0001)                 2.292584591272880E+05,      /* I = 38 */
(PID.TID 0000.0001)                 2.428369969078989E+05,      /* I = 39 */
(PID.TID 0000.0001)                 2.545652950875683E+05,      /* I = 40 */
(PID.TID 0000.0001)                 2.647274964828301E+05,      /* I = 41 */
(PID.TID 0000.0001)                 2.734980225206389E+05,      /* I = 42 */
(PID.TID 0000.0001)                 2.809856491525217E+05,      /* I = 43 */
(PID.TID 0000.0001)                 2.872580915202295E+05,      /* I = 44 */
(PID.TID 0000.0001)                 2.923567890694162E+05,      /* I = 45 */
(PID.TID 0000.0001)                 2.963063101754721E+05,      /* I = 46 */
(PID.TID 0000.0001)                 2.991205495886625E+05,      /* I = 47 */
(PID.TID 0000.0001)                 3.008068453676764E+05,      /* I = 48 */
(PID.TID 0000.0001)                 3.013686170436881E+05,      /* I = 49 */
(PID.TID 0000.0001)                 3.008068453676764E+05,      /* I = 50 */
(PID.TID 0000.0001)                 2.991205495886625E+05,      /* I = 51 */
(PID.TID 0000.0001)                 2.963063101754721E+05,      /* I = 52 */
(PID.TID 0000.0001)                 2.923567890694162E+05,      /* I = 53 */
(PID.TID 0000.0001)                 2.872580915202295E+05,      /* I = 54 */
(PID.TID 0000.0001)                 2.809856491525217E+05,      /* I = 55 */
(PID.TID 0000.0001)                 2.734980225206389E+05,      /* I = 56 */
(PID.TID 0000.0001)                 2.647274964828301E+05,      /* I = 57 */
(PID.TID 0000.0001)                 2.545652950875683E+05,      /* I = 58 */
(PID.TID 0000.0001)                 2.428369969078989E+05,      /* I = 59 */
(PID.TID 0000.0001)                 2.292584591272880E+05,      /* I = 60 */
(PID.TID 0000.0001)                 2.133486626971531E+05,      /* I = 61 */
(PID.TID 0000.0001)                 1.942331448101592E+05,      /* I = 62 */
(PID.TID 0000.0001)                 1.701080315742101E+05,      /* I = 63 */
(PID.TID 0000.0001)                 1.362652340208229E+05,      /* I = 64 */
(PID.TID 0000.0001)                 8.015229982413632E+04,      /* I = 65 */
(PID.TID 0000.0001)                 1.362652340208229E+05,      /* I = 66 */
(PID.TID 0000.0001)                 1.701080315742101E+05,      /* I = 67 */
(PID.TID 0000.0001)                 1.942331448101592E+05,      /* I = 68 */
(PID.TID 0000.0001)                 2.133486626971531E+05,      /* I = 69 */
(PID.TID 0000.0001)                 2.292584591272880E+05,      /* I = 70 */
(PID.TID 0000.0001)                 2.428369969078989E+05,      /* I = 71 */
(PID.TID 0000.0001)                 2.545652950875683E+05,      /* I = 72 */
(PID.TID 0000.0001)                 2.647274964828301E+05,      /* I = 73 */
(PID.TID 0000.0001)                 2.734980225206389E+05,      /* I = 74 */
(PID.TID 0000.0001)                 2.809856491525217E+05,      /* I = 75 */
(PID.TID 0000.0001)                 2.872580915202295E+05,      /* I = 76 */
(PID.TID 0000.0001)                 2.923567890694162E+05,      /* I = 77 */
(PID.TID 0000.0001)                 2.963063101754721E+05,      /* I = 78 */
(PID.TID 0000.0001)                 2.991205495886625E+05,      /* I = 79 */
(PID.TID 0000.0001)                 3.008068453676764E+05,      /* I = 80 */
(PID.TID 0000.0001)                 3.013686170436881E+05,      /* I = 81 */
(PID.TID 0000.0001)                 3.008068453676764E+05,      /* I = 82 */
(PID.TID 0000.0001)                 2.991205495886625E+05,      /* I = 83 */
(PID.TID 0000.0001)                 2.963063101754721E+05,      /* I = 84 */
(PID.TID 0000.0001)                 2.923567890694162E+05,      /* I = 85 */
(PID.TID 0000.0001)                 2.872580915202295E+05,      /* I = 86 */
(PID.TID 0000.0001)                 2.809856491525217E+05,      /* I = 87 */
(PID.TID 0000.0001)                 2.734980225206389E+05,      /* I = 88 */
(PID.TID 0000.0001)                 2.647274964828301E+05,      /* I = 89 */
(PID.TID 0000.0001)                 2.545652950875683E+05,      /* I = 90 */
(PID.TID 0000.0001)                 2.428369969078989E+05,      /* I = 91 */
(PID.TID 0000.0001)                 2.292584591272880E+05,      /* I = 92 */
(PID.TID 0000.0001)                 2.133486626971531E+05,      /* I = 93 */
(PID.TID 0000.0001)                 1.942331448101592E+05,      /* I = 94 */
(PID.TID 0000.0001)                 1.701080315742101E+05,      /* I = 95 */
(PID.TID 0000.0001)                 1.362652340208229E+05,      /* I = 96 */
(PID.TID 0000.0001)                 8.015229982413632E+04,      /* I = 97 */
(PID.TID 0000.0001)                 1.362652340208229E+05,      /* I = 98 */
(PID.TID 0000.0001)                 1.701080315742101E+05,      /* I = 99 */
(PID.TID 0000.0001)                 1.942331448101592E+05,      /* I =100 */
(PID.TID 0000.0001)                 2.133486626971531E+05,      /* I =101 */
(PID.TID 0000.0001)                 2.292584591272880E+05,      /* I =102 */
(PID.TID 0000.0001)                 2.428369969078989E+05,      /* I =103 */
(PID.TID 0000.0001)                 2.545652950875683E+05,      /* I =104 */
(PID.TID 0000.0001)                 2.647274964828301E+05,      /* I =105 */
(PID.TID 0000.0001)                 2.734980225206389E+05,      /* I =106 */
(PID.TID 0000.0001)                 2.809856491525217E+05,      /* I =107 */
(PID.TID 0000.0001)                 2.872580915202295E+05,      /* I =108 */
(PID.TID 0000.0001)                 2.923567890694162E+05,      /* I =109 */
(PID.TID 0000.0001)                 2.963063101754721E+05,      /* I =110 */
(PID.TID 0000.0001)                 2.991205495886625E+05,      /* I =111 */
(PID.TID 0000.0001)                 3.008068453676764E+05,      /* I =112 */
(PID.TID 0000.0001)                 3.013686170436881E+05,      /* I =113 */
(PID.TID 0000.0001)                 3.008068453676764E+05,      /* I =114 */
(PID.TID 0000.0001)                 2.991205495886625E+05,      /* I =115 */
(PID.TID 0000.0001)                 2.963063101754721E+05,      /* I =116 */
(PID.TID 0000.0001)                 2.923567890694162E+05,      /* I =117 */
(PID.TID 0000.0001)                 2.872580915202295E+05,      /* I =118 */
(PID.TID 0000.0001)                 2.809856491525217E+05,      /* I =119 */
(PID.TID 0000.0001)                 2.734980225206389E+05,      /* I =120 */
(PID.TID 0000.0001)                 2.647274964828301E+05,      /* I =121 */
(PID.TID 0000.0001)                 2.545652950875683E+05,      /* I =122 */
(PID.TID 0000.0001)                 2.428369969078989E+05,      /* I =123 */
(PID.TID 0000.0001)                 2.292584591272880E+05,      /* I =124 */
(PID.TID 0000.0001)                 2.133486626971531E+05,      /* I =125 */
(PID.TID 0000.0001)                 1.942331448101592E+05,      /* I =126 */
(PID.TID 0000.0001)                 1.701080315742101E+05,      /* I =127 */
(PID.TID 0000.0001)                 1.362652340208229E+05,      /* I =128 */
(PID.TID 0000.0001)                 8.015229982413632E+04,      /* I =129 */
(PID.TID 0000.0001)                 1.362652340208229E+05,      /* I =130 */
(PID.TID 0000.0001)                 1.701080315742101E+05,      /* I =131 */
(PID.TID 0000.0001)                 1.942331448101592E+05,      /* I =132 */
(PID.TID 0000.0001)                 2.133486626971531E+05,      /* I =133 */
(PID.TID 0000.0001)                 2.292584591272880E+05,      /* I =134 */
(PID.TID 0000.0001)                 2.428369969078989E+05,      /* I =135 */
(PID.TID 0000.0001)                 2.545652950875683E+05,      /* I =136 */
(PID.TID 0000.0001)                 2.647274964828301E+05,      /* I =137 */
(PID.TID 0000.0001)                 2.734980225206389E+05,      /* I =138 */
(PID.TID 0000.0001)                 2.809856491525217E+05,      /* I =139 */
(PID.TID 0000.0001)                 2.872580915202295E+05,      /* I =140 */
(PID.TID 0000.0001)                 2.923567890694162E+05,      /* I =141 */
(PID.TID 0000.0001)                 2.963063101754721E+05,      /* I =142 */
(PID.TID 0000.0001)                 2.991205495886625E+05,      /* I =143 */
(PID.TID 0000.0001)                 3.008068453676764E+05,      /* I =144 */
(PID.TID 0000.0001)                 3.013686170436881E+05,      /* I =145 */
(PID.TID 0000.0001)                 3.008068453676764E+05,      /* I =146 */
(PID.TID 0000.0001)                 2.991205495886625E+05,      /* I =147 */
(PID.TID 0000.0001)                 2.963063101754721E+05,      /* I =148 */
(PID.TID 0000.0001)                 2.923567890694162E+05,      /* I =149 */
(PID.TID 0000.0001)                 2.872580915202295E+05,      /* I =150 */
(PID.TID 0000.0001)                 2.809856491525217E+05,      /* I =151 */
(PID.TID 0000.0001)                 2.734980225206389E+05,      /* I =152 */
(PID.TID 0000.0001)                 2.647274964828301E+05,      /* I =153 */
(PID.TID 0000.0001)                 2.545652950875683E+05,      /* I =154 */
(PID.TID 0000.0001)                 2.428369969078989E+05,      /* I =155 */
(PID.TID 0000.0001)                 2.292584591272880E+05,      /* I =156 */
(PID.TID 0000.0001)                 2.133486626971531E+05,      /* I =157 */
(PID.TID 0000.0001)                 1.942331448101592E+05,      /* I =158 */
(PID.TID 0000.0001)                 1.701080315742101E+05,      /* I =159 */
(PID.TID 0000.0001)                 1.362652340208229E+05,      /* I =160 */
(PID.TID 0000.0001)                 8.015229982413632E+04,      /* I =161 */
(PID.TID 0000.0001)                 1.362652340208229E+05,      /* I =162 */
(PID.TID 0000.0001)                 1.701080315742101E+05,      /* I =163 */
(PID.TID 0000.0001)                 1.942331448101592E+05,      /* I =164 */
(PID.TID 0000.0001)                 2.133486626971531E+05,      /* I =165 */
(PID.TID 0000.0001)                 2.292584591272880E+05,      /* I =166 */
(PID.TID 0000.0001)                 2.428369969078989E+05,      /* I =167 */
(PID.TID 0000.0001)                 2.545652950875683E+05,      /* I =168 */
(PID.TID 0000.0001)                 2.647274964828301E+05,      /* I =169 */
(PID.TID 0000.0001)                 2.734980225206389E+05,      /* I =170 */
(PID.TID 0000.0001)                 2.809856491525217E+05,      /* I =171 */
(PID.TID 0000.0001)                 2.872580915202295E+05,      /* I =172 */
(PID.TID 0000.0001)                 2.923567890694162E+05,      /* I =173 */
(PID.TID 0000.0001)                 2.963063101754721E+05,      /* I =174 */
(PID.TID 0000.0001)                 2.991205495886625E+05,      /* I =175 */
(PID.TID 0000.0001)                 3.008068453676764E+05,      /* I =176 */
(PID.TID 0000.0001)                 3.013686170436881E+05,      /* I =177 */
(PID.TID 0000.0001)                 3.008068453676764E+05,      /* I =178 */
(PID.TID 0000.0001)                 2.991205495886625E+05,      /* I =179 */
(PID.TID 0000.0001)                 2.963063101754721E+05,      /* I =180 */
(PID.TID 0000.0001)                 2.923567890694162E+05,      /* I =181 */
(PID.TID 0000.0001)                 2.872580915202295E+05,      /* I =182 */
(PID.TID 0000.0001)                 2.809856491525217E+05,      /* I =183 */
(PID.TID 0000.0001)                 2.734980225206389E+05,      /* I =184 */
(PID.TID 0000.0001)                 2.647274964828301E+05,      /* I =185 */
(PID.TID 0000.0001)                 2.545652950875683E+05,      /* I =186 */
(PID.TID 0000.0001)                 2.428369969078989E+05,      /* I =187 */
(PID.TID 0000.0001)                 2.292584591272880E+05,      /* I =188 */
(PID.TID 0000.0001)                 2.133486626971531E+05,      /* I =189 */
(PID.TID 0000.0001)                 1.942331448101592E+05,      /* I =190 */
(PID.TID 0000.0001)                 1.701080315742101E+05,      /* I =191 */
(PID.TID 0000.0001)                 1.362652340208229E+05       /* I =192 */
(PID.TID 0000.0001)     ;
(PID.TID 0000.0001) dyU =  /* dyU(1,:,1,:) ( units: m ) */
(PID.TID 0000.0001)                 8.015229982413632E+04,      /* J =  1 */
(PID.TID 0000.0001)                 1.333130744933864E+05,      /* J =  2 */
(PID.TID 0000.0001)                 1.691744868129062E+05,      /* J =  3 */
(PID.TID 0000.0001)                 1.937548202849060E+05,      /* J =  4 */
(PID.TID 0000.0001)                 2.130490056267208E+05,      /* J =  5 */
(PID.TID 0000.0001)                 2.290479919481738E+05,      /* J =  6 */
(PID.TID 0000.0001)                 2.426774358027003E+05,      /* J =  7 */
(PID.TID 0000.0001)                 2.544372984215561E+05,      /* J =  8 */
(PID.TID 0000.0001)                 2.646201463834826E+05,      /* J =  9 */
(PID.TID 0000.0001)                 2.734046499619031E+05,      /* J = 10 */
(PID.TID 0000.0001)                 2.809019351693761E+05,      /* J = 11 */
(PID.TID 0000.0001)                 2.871811105274442E+05,      /* J = 12 */
(PID.TID 0000.0001)                 2.922844849381675E+05,      /* J = 13 */
(PID.TID 0000.0001)                 2.962371870847826E+05,      /* J = 14 */
(PID.TID 0000.0001)                 2.990534755671296E+05,      /* J = 15 */
(PID.TID 0000.0001)                 3.007409169495504E+05,      /* J = 16 */
(PID.TID 0000.0001)                 3.013031486919771E+05,      /* J = 17 */
(PID.TID 0000.0001)                 3.007409169495504E+05,      /* J = 18 */
(PID.TID 0000.0001)                 2.990534755671296E+05,      /* J = 19 */
(PID.TID 0000.0001)                 2.962371870847826E+05,      /* J = 20 */
(PID.TID 0000.0001)                 2.922844849381675E+05,      /* J = 21 */
(PID.TID 0000.0001)                 2.871811105274442E+05,      /* J = 22 */
(PID.TID 0000.0001)                 2.809019351693761E+05,      /* J = 23 */
(PID.TID 0000.0001)                 2.734046499619031E+05,      /* J = 24 */
(PID.TID 0000.0001)                 2.646201463834826E+05,      /* J = 25 */
(PID.TID 0000.0001)                 2.544372984215561E+05,      /* J = 26 */
(PID.TID 0000.0001)                 2.426774358027003E+05,      /* J = 27 */
(PID.TID 0000.0001)                 2.290479919481738E+05,      /* J = 28 */
(PID.TID 0000.0001)                 2.130490056267208E+05,      /* J = 29 */
(PID.TID 0000.0001)                 1.937548202849060E+05,      /* J = 30 */
(PID.TID 0000.0001)                 1.691744868129062E+05,      /* J = 31 */
(PID.TID 0000.0001)                 1.333130744933864E+05       /* J = 32 */
(PID.TID 0000.0001)     ;
(PID.TID 0000.0001) rA  =  /* rA (:,1,:,1) ( units: m^2 ) */
(PID.TID 0000.0001)                 1.401900702255611E+10,      /* I =  1 */
(PID.TID 0000.0001)                 2.459906945574446E+10,      /* I =  2 */
(PID.TID 0000.0001)                 3.378518544307869E+10,      /* I =  3 */
(PID.TID 0000.0001)                 4.192037169898667E+10,      /* I =  4 */
(PID.TID 0000.0001)                 4.925938996118163E+10,      /* I =  5 */
(PID.TID 0000.0001)                 5.594154126607553E+10,      /* I =  6 */
(PID.TID 0000.0001)                 6.203683527772523E+10,      /* I =  7 */
(PID.TID 0000.0001)                 6.757541173817516E+10,      /* I =  8 */
(PID.TID 0000.0001)                 7.256353271748119E+10,      /* I =  9 */
(PID.TID 0000.0001)                 7.699293007098555E+10,      /* I = 10 */
(PID.TID 0000.0001)                 8.084683449728902E+10,      /* I = 11 */
(PID.TID 0000.0001)                 8.410423102796223E+10,      /* I = 12 */
(PID.TID 0000.0001)                 8.674306976737517E+10,      /* I = 13 */
(PID.TID 0000.0001)                 8.874277443041928E+10,      /* I = 14 */
(PID.TID 0000.0001)                 9.008620045350865E+10,      /* I = 15 */
(PID.TID 0000.0001)                 9.076111290418457E+10,      /* I = 16 */
(PID.TID 0000.0001)                 9.076111290422060E+10,      /* I = 17 */
(PID.TID 0000.0001)                 9.008620045354469E+10,      /* I = 18 */
(PID.TID 0000.0001)                 8.874277443041928E+10,      /* I = 19 */
(PID.TID 0000.0001)                 8.674306976741121E+10,      /* I = 20 */
(PID.TID 0000.0001)                 8.410423102799828E+10,      /* I = 21 */
(PID.TID 0000.0001)                 8.084683449728902E+10,      /* I = 22 */
(PID.TID 0000.0001)                 7.699293007098555E+10,      /* I = 23 */
(PID.TID 0000.0001)                 7.256353271748119E+10,      /* I = 24 */
(PID.TID 0000.0001)                 6.757541173817516E+10,      /* I = 25 */
(PID.TID 0000.0001)                 6.203683527772523E+10,      /* I = 26 */
(PID.TID 0000.0001)                 5.594154126611156E+10,      /* I = 27 */
(PID.TID 0000.0001)                 4.925938996118163E+10,      /* I = 28 */
(PID.TID 0000.0001)                 4.192037169898667E+10,      /* I = 29 */
(PID.TID 0000.0001)                 3.378518544304265E+10,      /* I = 30 */
(PID.TID 0000.0001)                 2.459906945574446E+10,      /* I = 31 */
(PID.TID 0000.0001)                 1.401900702259215E+10,      /* I = 32 */
(PID.TID 0000.0001)                 1.401900702255611E+10,      /* I = 33 */
(PID.TID 0000.0001)                 2.459906945574446E+10,      /* I = 34 */
(PID.TID 0000.0001)                 3.378518544307869E+10,      /* I = 35 */
(PID.TID 0000.0001)                 4.192037169898667E+10,      /* I = 36 */
(PID.TID 0000.0001)                 4.925938996118163E+10,      /* I = 37 */
(PID.TID 0000.0001)                 5.594154126607553E+10,      /* I = 38 */
(PID.TID 0000.0001)                 6.203683527772523E+10,      /* I = 39 */
(PID.TID 0000.0001)                 6.757541173817516E+10,      /* I = 40 */
(PID.TID 0000.0001)                 7.256353271748119E+10,      /* I = 41 */
(PID.TID 0000.0001)                 7.699293007098555E+10,      /* I = 42 */
(PID.TID 0000.0001)                 8.084683449728902E+10,      /* I = 43 */
(PID.TID 0000.0001)                 8.410423102796223E+10,      /* I = 44 */
(PID.TID 0000.0001)                 8.674306976737517E+10,      /* I = 45 */
(PID.TID 0000.0001)                 8.874277443041928E+10,      /* I = 46 */
(PID.TID 0000.0001)                 9.008620045350865E+10,      /* I = 47 */
(PID.TID 0000.0001)                 9.076111290418457E+10,      /* I = 48 */
(PID.TID 0000.0001)                 9.076111290422060E+10,      /* I = 49 */
(PID.TID 0000.0001)                 9.008620045354469E+10,      /* I = 50 */
(PID.TID 0000.0001)                 8.874277443041928E+10,      /* I = 51 */
(PID.TID 0000.0001)                 8.674306976741121E+10,      /* I = 52 */
(PID.TID 0000.0001)                 8.410423102799828E+10,      /* I = 53 */
(PID.TID 0000.0001)                 8.084683449728902E+10,      /* I = 54 */
(PID.TID 0000.0001)                 7.699293007098555E+10,      /* I = 55 */
(PID.TID 0000.0001)                 7.256353271748119E+10,      /* I = 56 */
(PID.TID 0000.0001)                 6.757541173817516E+10,      /* I = 57 */
(PID.TID 0000.0001)                 6.203683527772523E+10,      /* I = 58 */
(PID.TID 0000.0001)                 5.594154126611156E+10,      /* I = 59 */
(PID.TID 0000.0001)                 4.925938996118163E+10,      /* I = 60 */
(PID.TID 0000.0001)                 4.192037169898667E+10,      /* I = 61 */
(PID.TID 0000.0001)                 3.378518544304265E+10,      /* I = 62 */
(PID.TID 0000.0001)                 2.459906945574446E+10,      /* I = 63 */
(PID.TID 0000.0001)                 1.401900702259215E+10,      /* I = 64 */
(PID.TID 0000.0001)                 1.401900702255611E+10,      /* I = 65 */
(PID.TID 0000.0001)                 2.459906945574446E+10,      /* I = 66 */
(PID.TID 0000.0001)                 3.378518544307869E+10,      /* I = 67 */
(PID.TID 0000.0001)                 4.192037169898667E+10,      /* I = 68 */
(PID.TID 0000.0001)                 4.925938996118163E+10,      /* I = 69 */
(PID.TID 0000.0001)                 5.594154126607553E+10,      /* I = 70 */
(PID.TID 0000.0001)                 6.203683527772523E+10,      /* I = 71 */
(PID.TID 0000.0001)                 6.757541173817516E+10,      /* I = 72 */
(PID.TID 0000.0001)                 7.256353271748119E+10,      /* I = 73 */
(PID.TID 0000.0001)                 7.699293007098555E+10,      /* I = 74 */
(PID.TID 0000.0001)                 8.084683449728902E+10,      /* I = 75 */
(PID.TID 0000.0001)                 8.410423102796223E+10,      /* I = 76 */
(PID.TID 0000.0001)                 8.674306976737517E+10,      /* I = 77 */
(PID.TID 0000.0001)                 8.874277443041928E+10,      /* I = 78 */
(PID.TID 0000.0001)                 9.008620045350865E+10,      /* I = 79 */
(PID.TID 0000.0001)                 9.076111290418457E+10,      /* I = 80 */
(PID.TID 0000.0001)                 9.076111290422060E+10,      /* I = 81 */
(PID.TID 0000.0001)                 9.008620045354469E+10,      /* I = 82 */
(PID.TID 0000.0001)                 8.874277443041928E+10,      /* I = 83 */
(PID.TID 0000.0001)                 8.674306976741121E+10,      /* I = 84 */
(PID.TID 0000.0001)                 8.410423102799828E+10,      /* I = 85 */
(PID.TID 0000.0001)                 8.084683449728902E+10,      /* I = 86 */
(PID.TID 0000.0001)                 7.699293007098555E+10,      /* I = 87 */
(PID.TID 0000.0001)                 7.256353271748119E+10,      /* I = 88 */
(PID.TID 0000.0001)                 6.757541173817516E+10,      /* I = 89 */
(PID.TID 0000.0001)                 6.203683527772523E+10,      /* I = 90 */
(PID.TID 0000.0001)                 5.594154126611156E+10,      /* I = 91 */
(PID.TID 0000.0001)                 4.925938996118163E+10,      /* I = 92 */
(PID.TID 0000.0001)                 4.192037169898667E+10,      /* I = 93 */
(PID.TID 0000.0001)                 3.378518544304265E+10,      /* I = 94 */
(PID.TID 0000.0001)                 2.459906945574446E+10,      /* I = 95 */
(PID.TID 0000.0001)                 1.401900702259215E+10,      /* I = 96 */
(PID.TID 0000.0001)                 1.401900702255611E+10,      /* I = 97 */
(PID.TID 0000.0001)                 2.459906945574446E+10,      /* I = 98 */
(PID.TID 0000.0001)                 3.378518544307869E+10,      /* I = 99 */
(PID.TID 0000.0001)                 4.192037169898667E+10,      /* I =100 */
(PID.TID 0000.0001)                 4.925938996118163E+10,      /* I =101 */
(PID.TID 0000.0001)                 5.594154126607553E+10,      /* I =102 */
(PID.TID 0000.0001)                 6.203683527772523E+10,      /* I =103 */
(PID.TID 0000.0001)                 6.757541173817516E+10,      /* I =104 */
(PID.TID 0000.0001)                 7.256353271748119E+10,      /* I =105 */
(PID.TID 0000.0001)                 7.699293007098555E+10,      /* I =106 */
(PID.TID 0000.0001)                 8.084683449728902E+10,      /* I =107 */
(PID.TID 0000.0001)                 8.410423102796223E+10,      /* I =108 */
(PID.TID 0000.0001)                 8.674306976737517E+10,      /* I =109 */
(PID.TID 0000.0001)                 8.874277443041928E+10,      /* I =110 */
(PID.TID 0000.0001)                 9.008620045350865E+10,      /* I =111 */
(PID.TID 0000.0001)                 9.076111290418457E+10,      /* I =112 */
(PID.TID 0000.0001)                 9.076111290422060E+10,      /* I =113 */
(PID.TID 0000.0001)                 9.008620045354469E+10,      /* I =114 */
(PID.TID 0000.0001)                 8.874277443041928E+10,      /* I =115 */
(PID.TID 0000.0001)                 8.674306976741121E+10,      /* I =116 */
(PID.TID 0000.0001)                 8.410423102799828E+10,      /* I =117 */
(PID.TID 0000.0001)                 8.084683449728902E+10,      /* I =118 */
(PID.TID 0000.0001)                 7.699293007098555E+10,      /* I =119 */
(PID.TID 0000.0001)                 7.256353271748119E+10,      /* I =120 */
(PID.TID 0000.0001)                 6.757541173817516E+10,      /* I =121 */
(PID.TID 0000.0001)                 6.203683527772523E+10,      /* I =122 */
(PID.TID 0000.0001)                 5.594154126611156E+10,      /* I =123 */
(PID.TID 0000.0001)                 4.925938996118163E+10,      /* I =124 */
(PID.TID 0000.0001)                 4.192037169898667E+10,      /* I =125 */
(PID.TID 0000.0001)                 3.378518544304265E+10,      /* I =126 */
(PID.TID 0000.0001)                 2.459906945574446E+10,      /* I =127 */
(PID.TID 0000.0001)                 1.401900702259215E+10,      /* I =128 */
(PID.TID 0000.0001)                 1.401900702255611E+10,      /* I =129 */
(PID.TID 0000.0001)                 2.459906945574446E+10,      /* I =130 */
(PID.TID 0000.0001)                 3.378518544307869E+10,      /* I =131 */
(PID.TID 0000.0001)                 4.192037169898667E+10,      /* I =132 */
(PID.TID 0000.0001)                 4.925938996118163E+10,      /* I =133 */
(PID.TID 0000.0001)                 5.594154126607553E+10,      /* I =134 */
(PID.TID 0000.0001)                 6.203683527772523E+10,      /* I =135 */
(PID.TID 0000.0001)                 6.757541173817516E+10,      /* I =136 */
(PID.TID 0000.0001)                 7.256353271748119E+10,      /* I =137 */
(PID.TID 0000.0001)                 7.699293007098555E+10,      /* I =138 */
(PID.TID 0000.0001)                 8.084683449728902E+10,      /* I =139 */
(PID.TID 0000.0001)                 8.410423102796223E+10,      /* I =140 */
(PID.TID 0000.0001)                 8.674306976737517E+10,      /* I =141 */
(PID.TID 0000.0001)                 8.874277443041928E+10,      /* I =142 */
(PID.TID 0000.0001)                 9.008620045350865E+10,      /* I =143 */
(PID.TID 0000.0001)                 9.076111290418457E+10,      /* I =144 */
(PID.TID 0000.0001)                 9.076111290422060E+10,      /* I =145 */
(PID.TID 0000.0001)                 9.008620045354469E+10,      /* I =146 */
(PID.TID 0000.0001)                 8.874277443041928E+10,      /* I =147 */
(PID.TID 0000.0001)                 8.674306976741121E+10,      /* I =148 */
(PID.TID 0000.0001)                 8.410423102799828E+10,      /* I =149 */
(PID.TID 0000.0001)                 8.084683449728902E+10,      /* I =150 */
(PID.TID 0000.0001)                 7.699293007098555E+10,      /* I =151 */
(PID.TID 0000.0001)                 7.256353271748119E+10,      /* I =152 */
(PID.TID 0000.0001)                 6.757541173817516E+10,      /* I =153 */
(PID.TID 0000.0001)                 6.203683527772523E+10,      /* I =154 */
(PID.TID 0000.0001)                 5.594154126611156E+10,      /* I =155 */
(PID.TID 0000.0001)                 4.925938996118163E+10,      /* I =156 */
(PID.TID 0000.0001)                 4.192037169898667E+10,      /* I =157 */
(PID.TID 0000.0001)                 3.378518544304265E+10,      /* I =158 */
(PID.TID 0000.0001)                 2.459906945574446E+10,      /* I =159 */
(PID.TID 0000.0001)                 1.401900702259215E+10,      /* I =160 */
(PID.TID 0000.0001)                 1.401900702255611E+10,      /* I =161 */
(PID.TID 0000.0001)                 2.459906945574446E+10,      /* I =162 */
(PID.TID 0000.0001)                 3.378518544307869E+10,      /* I =163 */
(PID.TID 0000.0001)                 4.192037169898667E+10,      /* I =164 */
(PID.TID 0000.0001)                 4.925938996118163E+10,      /* I =165 */
(PID.TID 0000.0001)                 5.594154126607553E+10,      /* I =166 */
(PID.TID 0000.0001)                 6.203683527772523E+10,      /* I =167 */
(PID.TID 0000.0001)                 6.757541173817516E+10,      /* I =168 */
(PID.TID 0000.0001)                 7.256353271748119E+10,      /* I =169 */
(PID.TID 0000.0001)                 7.699293007098555E+10,      /* I =170 */
(PID.TID 0000.0001)                 8.084683449728902E+10,      /* I =171 */
(PID.TID 0000.0001)                 8.410423102796223E+10,      /* I =172 */
(PID.TID 0000.0001)                 8.674306976737517E+10,      /* I =173 */
(PID.TID 0000.0001)                 8.874277443041928E+10,      /* I =174 */
(PID.TID 0000.0001)                 9.008620045350865E+10,      /* I =175 */
(PID.TID 0000.0001)                 9.076111290418457E+10,      /* I =176 */
(PID.TID 0000.0001)                 9.076111290422060E+10,      /* I =177 */
(PID.TID 0000.0001)                 9.008620045354469E+10,      /* I =178 */
(PID.TID 0000.0001)                 8.874277443041928E+10,      /* I =179 */
(PID.TID 0000.0001)                 8.674306976741121E+10,      /* I =180 */
(PID.TID 0000.0001)                 8.410423102799828E+10,      /* I =181 */
(PID.TID 0000.0001)                 8.084683449728902E+10,      /* I =182 */
(PID.TID 0000.0001)                 7.699293007098555E+10,      /* I =183 */
(PID.TID 0000.0001)                 7.256353271748119E+10,      /* I =184 */
(PID.TID 0000.0001)                 6.757541173817516E+10,      /* I =185 */
(PID.TID 0000.0001)                 6.203683527772523E+10,      /* I =186 */
(PID.TID 0000.0001)                 5.594154126611156E+10,      /* I =187 */
(PID.TID 0000.0001)                 4.925938996118163E+10,      /* I =188 */
(PID.TID 0000.0001)                 4.192037169898667E+10,      /* I =189 */
(PID.TID 0000.0001)                 3.378518544304265E+10,      /* I =190 */
(PID.TID 0000.0001)                 2.459906945574446E+10,      /* I =191 */
(PID.TID 0000.0001)                 1.401900702259215E+10       /* I =192 */
(PID.TID 0000.0001)     ;
(PID.TID 0000.0001) rA  =  /* rA (1,:,1,:) ( units: m^2 ) */
(PID.TID 0000.0001)                 1.401900702255611E+10,      /* J =  1 */
(PID.TID 0000.0001)                 2.459906945574446E+10,      /* J =  2 */
(PID.TID 0000.0001)                 3.378518544307869E+10,      /* J =  3 */
(PID.TID 0000.0001)                 4.192037169898667E+10,      /* J =  4 */
(PID.TID 0000.0001)                 4.925938996118163E+10,      /* J =  5 */
(PID.TID 0000.0001)                 5.594154126607553E+10,      /* J =  6 */
(PID.TID 0000.0001)                 6.203683527776127E+10,      /* J =  7 */
(PID.TID 0000.0001)                 6.757541173817516E+10,      /* J =  8 */
(PID.TID 0000.0001)                 7.256353271748119E+10,      /* J =  9 */
(PID.TID 0000.0001)                 7.699293007098555E+10,      /* J = 10 */
(PID.TID 0000.0001)                 8.084683449728902E+10,      /* J = 11 */
(PID.TID 0000.0001)                 8.410423102799828E+10,      /* J = 12 */
(PID.TID 0000.0001)                 8.674306976737517E+10,      /* J = 13 */
(PID.TID 0000.0001)                 8.874277443041928E+10,      /* J = 14 */
(PID.TID 0000.0001)                 9.008620045350865E+10,      /* J = 15 */
(PID.TID 0000.0001)                 9.076111290418457E+10,      /* J = 16 */
(PID.TID 0000.0001)                 9.076111290422060E+10,      /* J = 17 */
(PID.TID 0000.0001)                 9.008620045354469E+10,      /* J = 18 */
(PID.TID 0000.0001)                 8.874277443041928E+10,      /* J = 19 */
(PID.TID 0000.0001)                 8.674306976737517E+10,      /* J = 20 */
(PID.TID 0000.0001)                 8.410423102799828E+10,      /* J = 21 */
(PID.TID 0000.0001)                 8.084683449728902E+10,      /* J = 22 */
(PID.TID 0000.0001)                 7.699293007098555E+10,      /* J = 23 */
(PID.TID 0000.0001)                 7.256353271748119E+10,      /* J = 24 */
(PID.TID 0000.0001)                 6.757541173817516E+10,      /* J = 25 */
(PID.TID 0000.0001)                 6.203683527772523E+10,      /* J = 26 */
(PID.TID 0000.0001)                 5.594154126607553E+10,      /* J = 27 */
(PID.TID 0000.0001)                 4.925938996118163E+10,      /* J = 28 */
(PID.TID 0000.0001)                 4.192037169898667E+10,      /* J = 29 */
(PID.TID 0000.0001)                 3.378518544307869E+10,      /* J = 30 */
(PID.TID 0000.0001)                 2.459906945574446E+10,      /* J = 31 */
(PID.TID 0000.0001)                 1.401900702259215E+10       /* J = 32 */
(PID.TID 0000.0001)     ;
(PID.TID 0000.0001) rAw =  /* rAw(:,1,:,1) ( units: m^2 ) */
(PID.TID 0000.0001)                 1.216690346714270E+10,      /* I =  1 */
(PID.TID 0000.0001)                 1.974052138506315E+10,      /* I =  2 */
(PID.TID 0000.0001)                 2.943712825252015E+10,      /* I =  3 */
(PID.TID 0000.0001)                 3.801790263324359E+10,      /* I =  4 */
(PID.TID 0000.0001)                 4.571243814189866E+10,      /* I =  5 */
(PID.TID 0000.0001)                 5.269930713599979E+10,      /* I =  6 */
(PID.TID 0000.0001)                 5.907428494299063E+10,      /* I =  7 */
(PID.TID 0000.0001)                 6.488320895111514E+10,      /* I =  8 */
(PID.TID 0000.0001)                 7.014205907741882E+10,      /* I =  9 */
(PID.TID 0000.0001)                 7.484854821847499E+10,      /* I = 10 */
(PID.TID 0000.0001)                 7.898934631431560E+10,      /* I = 11 */
(PID.TID 0000.0001)                 8.254500894894537E+10,      /* I = 12 */
(PID.TID 0000.0001)                 8.549360686473492E+10,      /* I = 13 */
(PID.TID 0000.0001)                 8.781353403175085E+10,      /* I = 14 */
(PID.TID 0000.0001)                 8.948571540392021E+10,      /* I = 15 */
(PID.TID 0000.0001)                 9.049530583086168E+10,      /* I = 16 */
(PID.TID 0000.0001)                 9.083293515008307E+10,      /* I = 17 */
(PID.TID 0000.0001)                 9.049530583087070E+10,      /* I = 18 */
(PID.TID 0000.0001)                 8.948571540391121E+10,      /* I = 19 */
(PID.TID 0000.0001)                 8.781353403174185E+10,      /* I = 20 */
(PID.TID 0000.0001)                 8.549360686467184E+10,      /* I = 21 */
(PID.TID 0000.0001)                 8.254500894890933E+10,      /* I = 22 */
(PID.TID 0000.0001)                 7.898934631434262E+10,      /* I = 23 */
(PID.TID 0000.0001)                 7.484854821844795E+10,      /* I = 24 */
(PID.TID 0000.0001)                 7.014205907742783E+10,      /* I = 25 */
(PID.TID 0000.0001)                 6.488320895111514E+10,      /* I = 26 */
(PID.TID 0000.0001)                 5.907428494299063E+10,      /* I = 27 */
(PID.TID 0000.0001)                 5.269930713599078E+10,      /* I = 28 */
(PID.TID 0000.0001)                 4.571243814190767E+10,      /* I = 29 */
(PID.TID 0000.0001)                 3.801790263325260E+10,      /* I = 30 */
(PID.TID 0000.0001)                 2.943712825251114E+10,      /* I = 31 */
(PID.TID 0000.0001)                 1.974052138509018E+10,      /* I = 32 */
(PID.TID 0000.0001)                 1.216690346714270E+10,      /* I = 33 */
(PID.TID 0000.0001)                 1.974052138506315E+10,      /* I = 34 */
(PID.TID 0000.0001)                 2.943712825252015E+10,      /* I = 35 */
(PID.TID 0000.0001)                 3.801790263324359E+10,      /* I = 36 */
(PID.TID 0000.0001)                 4.571243814189866E+10,      /* I = 37 */
(PID.TID 0000.0001)                 5.269930713599979E+10,      /* I = 38 */
(PID.TID 0000.0001)                 5.907428494299063E+10,      /* I = 39 */
(PID.TID 0000.0001)                 6.488320895111514E+10,      /* I = 40 */
(PID.TID 0000.0001)                 7.014205907741882E+10,      /* I = 41 */
(PID.TID 0000.0001)                 7.484854821847499E+10,      /* I = 42 */
(PID.TID 0000.0001)                 7.898934631431560E+10,      /* I = 43 */
(PID.TID 0000.0001)                 8.254500894894537E+10,      /* I = 44 */
(PID.TID 0000.0001)                 8.549360686473492E+10,      /* I = 45 */
(PID.TID 0000.0001)                 8.781353403175085E+10,      /* I = 46 */
(PID.TID 0000.0001)                 8.948571540392021E+10,      /* I = 47 */
(PID.TID 0000.0001)                 9.049530583086168E+10,      /* I = 48 */
(PID.TID 0000.0001)                 9.083293515008307E+10,      /* I = 49 */
(PID.TID 0000.0001)                 9.049530583087070E+10,      /* I = 50 */
(PID.TID 0000.0001)                 8.948571540391121E+10,      /* I = 51 */
(PID.TID 0000.0001)                 8.781353403174185E+10,      /* I = 52 */
(PID.TID 0000.0001)                 8.549360686467184E+10,      /* I = 53 */
(PID.TID 0000.0001)                 8.254500894890933E+10,      /* I = 54 */
(PID.TID 0000.0001)                 7.898934631434262E+10,      /* I = 55 */
(PID.TID 0000.0001)                 7.484854821844795E+10,      /* I = 56 */
(PID.TID 0000.0001)                 7.014205907742783E+10,      /* I = 57 */
(PID.TID 0000.0001)                 6.488320895111514E+10,      /* I = 58 */
(PID.TID 0000.0001)                 5.907428494299063E+10,      /* I = 59 */
(PID.TID 0000.0001)                 5.269930713599078E+10,      /* I = 60 */
(PID.TID 0000.0001)                 4.571243814190767E+10,      /* I = 61 */
(PID.TID 0000.0001)                 3.801790263325260E+10,      /* I = 62 */
(PID.TID 0000.0001)                 2.943712825251114E+10,      /* I = 63 */
(PID.TID 0000.0001)                 1.974052138509018E+10,      /* I = 64 */
(PID.TID 0000.0001)                 1.216690346714270E+10,      /* I = 65 */
(PID.TID 0000.0001)                 1.974052138506315E+10,      /* I = 66 */
(PID.TID 0000.0001)                 2.943712825252015E+10,      /* I = 67 */
(PID.TID 0000.0001)                 3.801790263324359E+10,      /* I = 68 */
(PID.TID 0000.0001)                 4.571243814189866E+10,      /* I = 69 */
(PID.TID 0000.0001)                 5.269930713599979E+10,      /* I = 70 */
(PID.TID 0000.0001)                 5.907428494299063E+10,      /* I = 71 */
(PID.TID 0000.0001)                 6.488320895111514E+10,      /* I = 72 */
(PID.TID 0000.0001)                 7.014205907741882E+10,      /* I = 73 */
(PID.TID 0000.0001)                 7.484854821847499E+10,      /* I = 74 */
(PID.TID 0000.0001)                 7.898934631431560E+10,      /* I = 75 */
(PID.TID 0000.0001)                 8.254500894894537E+10,      /* I = 76 */
(PID.TID 0000.0001)                 8.549360686473492E+10,      /* I = 77 */
(PID.TID 0000.0001)                 8.781353403175085E+10,      /* I = 78 */
(PID.TID 0000.0001)                 8.948571540392021E+10,      /* I = 79 */
(PID.TID 0000.0001)                 9.049530583086168E+10,      /* I = 80 */
(PID.TID 0000.0001)                 9.083293515008307E+10,      /* I = 81 */
(PID.TID 0000.0001)                 9.049530583087070E+10,      /* I = 82 */
(PID.TID 0000.0001)                 8.948571540391121E+10,      /* I = 83 */
(PID.TID 0000.0001)                 8.781353403174185E+10,      /* I = 84 */
(PID.TID 0000.0001)                 8.549360686467184E+10,      /* I = 85 */
(PID.TID 0000.0001)                 8.254500894890933E+10,      /* I = 86 */
(PID.TID 0000.0001)                 7.898934631434262E+10,      /* I = 87 */
(PID.TID 0000.0001)                 7.484854821844795E+10,      /* I = 88 */
(PID.TID 0000.0001)                 7.014205907742783E+10,      /* I = 89 */
(PID.TID 0000.0001)                 6.488320895111514E+10,      /* I = 90 */
(PID.TID 0000.0001)                 5.907428494299063E+10,      /* I = 91 */
(PID.TID 0000.0001)                 5.269930713599078E+10,      /* I = 92 */
(PID.TID 0000.0001)                 4.571243814190767E+10,      /* I = 93 */
(PID.TID 0000.0001)                 3.801790263325260E+10,      /* I = 94 */
(PID.TID 0000.0001)                 2.943712825251114E+10,      /* I = 95 */
(PID.TID 0000.0001)                 1.974052138509018E+10,      /* I = 96 */
(PID.TID 0000.0001)                 1.216690346714270E+10,      /* I = 97 */
(PID.TID 0000.0001)                 1.974052138506315E+10,      /* I = 98 */
(PID.TID 0000.0001)                 2.943712825252015E+10,      /* I = 99 */
(PID.TID 0000.0001)                 3.801790263324359E+10,      /* I =100 */
(PID.TID 0000.0001)                 4.571243814189866E+10,      /* I =101 */
(PID.TID 0000.0001)                 5.269930713599979E+10,      /* I =102 */
(PID.TID 0000.0001)                 5.907428494299063E+10,      /* I =103 */
(PID.TID 0000.0001)                 6.488320895111514E+10,      /* I =104 */
(PID.TID 0000.0001)                 7.014205907741882E+10,      /* I =105 */
(PID.TID 0000.0001)                 7.484854821847499E+10,      /* I =106 */
(PID.TID 0000.0001)                 7.898934631431560E+10,      /* I =107 */
(PID.TID 0000.0001)                 8.254500894894537E+10,      /* I =108 */
(PID.TID 0000.0001)                 8.549360686473492E+10,      /* I =109 */
(PID.TID 0000.0001)                 8.781353403175085E+10,      /* I =110 */
(PID.TID 0000.0001)                 8.948571540392021E+10,      /* I =111 */
(PID.TID 0000.0001)                 9.049530583086168E+10,      /* I =112 */
(PID.TID 0000.0001)                 9.083293515008307E+10,      /* I =113 */
(PID.TID 0000.0001)                 9.049530583087070E+10,      /* I =114 */
(PID.TID 0000.0001)                 8.948571540391121E+10,      /* I =115 */
(PID.TID 0000.0001)                 8.781353403174185E+10,      /* I =116 */
(PID.TID 0000.0001)                 8.549360686467184E+10,      /* I =117 */
(PID.TID 0000.0001)                 8.254500894890933E+10,      /* I =118 */
(PID.TID 0000.0001)                 7.898934631434262E+10,      /* I =119 */
(PID.TID 0000.0001)                 7.484854821844795E+10,      /* I =120 */
(PID.TID 0000.0001)                 7.014205907742783E+10,      /* I =121 */
(PID.TID 0000.0001)                 6.488320895111514E+10,      /* I =122 */
(PID.TID 0000.0001)                 5.907428494299063E+10,      /* I =123 */
(PID.TID 0000.0001)                 5.269930713599078E+10,      /* I =124 */
(PID.TID 0000.0001)                 4.571243814190767E+10,      /* I =125 */
(PID.TID 0000.0001)                 3.801790263325260E+10,      /* I =126 */
(PID.TID 0000.0001)                 2.943712825251114E+10,      /* I =127 */
(PID.TID 0000.0001)                 1.974052138509018E+10,      /* I =128 */
(PID.TID 0000.0001)                 1.216690346714270E+10,      /* I =129 */
(PID.TID 0000.0001)                 1.974052138506315E+10,      /* I =130 */
(PID.TID 0000.0001)                 2.943712825252015E+10,      /* I =131 */
(PID.TID 0000.0001)                 3.801790263324359E+10,      /* I =132 */
(PID.TID 0000.0001)                 4.571243814189866E+10,      /* I =133 */
(PID.TID 0000.0001)                 5.269930713599979E+10,      /* I =134 */
(PID.TID 0000.0001)                 5.907428494299063E+10,      /* I =135 */
(PID.TID 0000.0001)                 6.488320895111514E+10,      /* I =136 */
(PID.TID 0000.0001)                 7.014205907741882E+10,      /* I =137 */
(PID.TID 0000.0001)                 7.484854821847499E+10,      /* I =138 */
(PID.TID 0000.0001)                 7.898934631431560E+10,      /* I =139 */
(PID.TID 0000.0001)                 8.254500894894537E+10,      /* I =140 */
(PID.TID 0000.0001)                 8.549360686473492E+10,      /* I =141 */
(PID.TID 0000.0001)                 8.781353403175085E+10,      /* I =142 */
(PID.TID 0000.0001)                 8.948571540392021E+10,      /* I =143 */
(PID.TID 0000.0001)                 9.049530583086168E+10,      /* I =144 */
(PID.TID 0000.0001)                 9.083293515008307E+10,      /* I =145 */
(PID.TID 0000.0001)                 9.049530583087070E+10,      /* I =146 */
(PID.TID 0000.0001)                 8.948571540391121E+10,      /* I =147 */
(PID.TID 0000.0001)                 8.781353403174185E+10,      /* I =148 */
(PID.TID 0000.0001)                 8.549360686467184E+10,      /* I =149 */
(PID.TID 0000.0001)                 8.254500894890933E+10,      /* I =150 */
(PID.TID 0000.0001)                 7.898934631434262E+10,      /* I =151 */
(PID.TID 0000.0001)                 7.484854821844795E+10,      /* I =152 */
(PID.TID 0000.0001)                 7.014205907742783E+10,      /* I =153 */
(PID.TID 0000.0001)                 6.488320895111514E+10,      /* I =154 */
(PID.TID 0000.0001)                 5.907428494299063E+10,      /* I =155 */
(PID.TID 0000.0001)                 5.269930713599078E+10,      /* I =156 */
(PID.TID 0000.0001)                 4.571243814190767E+10,      /* I =157 */
(PID.TID 0000.0001)                 3.801790263325260E+10,      /* I =158 */
(PID.TID 0000.0001)                 2.943712825251114E+10,      /* I =159 */
(PID.TID 0000.0001)                 1.974052138509018E+10,      /* I =160 */
(PID.TID 0000.0001)                 1.216690346714270E+10,      /* I =161 */
(PID.TID 0000.0001)                 1.974052138506315E+10,      /* I =162 */
(PID.TID 0000.0001)                 2.943712825252015E+10,      /* I =163 */
(PID.TID 0000.0001)                 3.801790263324359E+10,      /* I =164 */
(PID.TID 0000.0001)                 4.571243814189866E+10,      /* I =165 */
(PID.TID 0000.0001)                 5.269930713599979E+10,      /* I =166 */
(PID.TID 0000.0001)                 5.907428494299063E+10,      /* I =167 */
(PID.TID 0000.0001)                 6.488320895111514E+10,      /* I =168 */
(PID.TID 0000.0001)                 7.014205907741882E+10,      /* I =169 */
(PID.TID 0000.0001)                 7.484854821847499E+10,      /* I =170 */
(PID.TID 0000.0001)                 7.898934631431560E+10,      /* I =171 */
(PID.TID 0000.0001)                 8.254500894894537E+10,      /* I =172 */
(PID.TID 0000.0001)                 8.549360686473492E+10,      /* I =173 */
(PID.TID 0000.0001)                 8.781353403175085E+10,      /* I =174 */
(PID.TID 0000.0001)                 8.948571540392021E+10,      /* I =175 */
(PID.TID 0000.0001)                 9.049530583086168E+10,      /* I =176 */
(PID.TID 0000.0001)                 9.083293515008307E+10,      /* I =177 */
(PID.TID 0000.0001)                 9.049530583087070E+10,      /* I =178 */
(PID.TID 0000.0001)                 8.948571540391121E+10,      /* I =179 */
(PID.TID 0000.0001)                 8.781353403174185E+10,      /* I =180 */
(PID.TID 0000.0001)                 8.549360686467184E+10,      /* I =181 */
(PID.TID 0000.0001)                 8.254500894890933E+10,      /* I =182 */
(PID.TID 0000.0001)                 7.898934631434262E+10,      /* I =183 */
(PID.TID 0000.0001)                 7.484854821844795E+10,      /* I =184 */
(PID.TID 0000.0001)                 7.014205907742783E+10,      /* I =185 */
(PID.TID 0000.0001)                 6.488320895111514E+10,      /* I =186 */
(PID.TID 0000.0001)                 5.907428494299063E+10,      /* I =187 */
(PID.TID 0000.0001)                 5.269930713599078E+10,      /* I =188 */
(PID.TID 0000.0001)                 4.571243814190767E+10,      /* I =189 */
(PID.TID 0000.0001)                 3.801790263325260E+10,      /* I =190 */
(PID.TID 0000.0001)                 2.943712825251114E+10,      /* I =191 */
(PID.TID 0000.0001)                 1.974052138509018E+10       /* I =192 */
(PID.TID 0000.0001)     ;
(PID.TID 0000.0001) rAw =  /* rAw(1,:,1,:) ( units: m^2 ) */
(PID.TID 0000.0001)                 1.216690346714270E+10,      /* J =  1 */
(PID.TID 0000.0001)                 2.390126200743558E+10,      /* J =  2 */
(PID.TID 0000.0001)                 3.341968103208270E+10,      /* J =  3 */
(PID.TID 0000.0001)                 4.168532893152940E+10,      /* J =  4 */
(PID.TID 0000.0001)                 4.909074590409593E+10,      /* J =  5 */
(PID.TID 0000.0001)                 5.581203765722643E+10,      /* J =  6 */
(PID.TID 0000.0001)                 6.193257577506788E+10,      /* J =  7 */
(PID.TID 0000.0001)                 6.748840226738273E+10,      /* J =  8 */
(PID.TID 0000.0001)                 7.248875782324815E+10,      /* J =  9 */
(PID.TID 0000.0001)                 7.692702995909871E+10,      /* J = 10 */
(PID.TID 0000.0001)                 8.078743937057304E+10,      /* J = 11 */
(PID.TID 0000.0001)                 8.404959656062837E+10,      /* J = 12 */
(PID.TID 0000.0001)                 8.669186205742538E+10,      /* J = 13 */
(PID.TID 0000.0001)                 8.869393350723613E+10,      /* J = 14 */
(PID.TID 0000.0001)                 9.003884657168852E+10,      /* J = 15 */
(PID.TID 0000.0001)     2 @  9.071447638299399E+10,             /* J = 16: 17 */
(PID.TID 0000.0001)                 9.003884657168852E+10,      /* J = 18 */
(PID.TID 0000.0001)                 8.869393350723613E+10,      /* J = 19 */
(PID.TID 0000.0001)                 8.669186205742538E+10,      /* J = 20 */
(PID.TID 0000.0001)                 8.404959656062837E+10,      /* J = 21 */
(PID.TID 0000.0001)                 8.078743937057304E+10,      /* J = 22 */
(PID.TID 0000.0001)                 7.692702995909871E+10,      /* J = 23 */
(PID.TID 0000.0001)                 7.248875782324815E+10,      /* J = 24 */
(PID.TID 0000.0001)                 6.748840226738273E+10,      /* J = 25 */
(PID.TID 0000.0001)                 6.193257577506788E+10,      /* J = 26 */
(PID.TID 0000.0001)                 5.581203765722643E+10,      /* J = 27 */
(PID.TID 0000.0001)                 4.909074590409593E+10,      /* J = 28 */
(PID.TID 0000.0001)                 4.168532893152940E+10,      /* J = 29 */
(PID.TID 0000.0001)                 3.341968103208270E+10,      /* J = 30 */
(PID.TID 0000.0001)                 2.390126200743558E+10,      /* J = 31 */
(PID.TID 0000.0001)                 1.216690346714270E+10       /* J = 32 */
(PID.TID 0000.0001)     ;
(PID.TID 0000.0001) rAs =  /* rAs(:,1,:,1) ( units: m^2 ) */
(PID.TID 0000.0001)                 1.216690346714270E+10,      /* I =  1 */
(PID.TID 0000.0001)                 2.390126200743558E+10,      /* I =  2 */
(PID.TID 0000.0001)                 3.341968103208270E+10,      /* I =  3 */
(PID.TID 0000.0001)                 4.168532893152940E+10,      /* I =  4 */
(PID.TID 0000.0001)                 4.909074590409593E+10,      /* I =  5 */
(PID.TID 0000.0001)                 5.581203765722643E+10,      /* I =  6 */
(PID.TID 0000.0001)                 6.193257577506788E+10,      /* I =  7 */
(PID.TID 0000.0001)                 6.748840226738273E+10,      /* I =  8 */
(PID.TID 0000.0001)                 7.248875782324815E+10,      /* I =  9 */
(PID.TID 0000.0001)                 7.692702995909871E+10,      /* I = 10 */
(PID.TID 0000.0001)                 8.078743937057304E+10,      /* I = 11 */
(PID.TID 0000.0001)                 8.404959656062837E+10,      /* I = 12 */
(PID.TID 0000.0001)                 8.669186205742538E+10,      /* I = 13 */
(PID.TID 0000.0001)                 8.869393350723613E+10,      /* I = 14 */
(PID.TID 0000.0001)                 9.003884657168852E+10,      /* I = 15 */
(PID.TID 0000.0001)     2 @  9.071447638299399E+10,             /* I = 16: 17 */
(PID.TID 0000.0001)                 9.003884657168852E+10,      /* I = 18 */
(PID.TID 0000.0001)                 8.869393350723613E+10,      /* I = 19 */
(PID.TID 0000.0001)                 8.669186205742538E+10,      /* I = 20 */
(PID.TID 0000.0001)                 8.404959656062837E+10,      /* I = 21 */
(PID.TID 0000.0001)                 8.078743937057304E+10,      /* I = 22 */
(PID.TID 0000.0001)                 7.692702995909871E+10,      /* I = 23 */
(PID.TID 0000.0001)                 7.248875782324815E+10,      /* I = 24 */
(PID.TID 0000.0001)                 6.748840226738273E+10,      /* I = 25 */
(PID.TID 0000.0001)                 6.193257577506788E+10,      /* I = 26 */
(PID.TID 0000.0001)                 5.581203765722643E+10,      /* I = 27 */
(PID.TID 0000.0001)                 4.909074590409593E+10,      /* I = 28 */
(PID.TID 0000.0001)                 4.168532893152940E+10,      /* I = 29 */
(PID.TID 0000.0001)                 3.341968103208270E+10,      /* I = 30 */
(PID.TID 0000.0001)                 2.390126200743558E+10,      /* I = 31 */
(PID.TID 0000.0001)     2 @  1.216690346714270E+10,             /* I = 32: 33 */
(PID.TID 0000.0001)                 2.390126200743558E+10,      /* I = 34 */
(PID.TID 0000.0001)                 3.341968103208270E+10,      /* I = 35 */
(PID.TID 0000.0001)                 4.168532893152940E+10,      /* I = 36 */
(PID.TID 0000.0001)                 4.909074590409593E+10,      /* I = 37 */
(PID.TID 0000.0001)                 5.581203765722643E+10,      /* I = 38 */
(PID.TID 0000.0001)                 6.193257577506788E+10,      /* I = 39 */
(PID.TID 0000.0001)                 6.748840226738273E+10,      /* I = 40 */
(PID.TID 0000.0001)                 7.248875782324815E+10,      /* I = 41 */
(PID.TID 0000.0001)                 7.692702995909871E+10,      /* I = 42 */
(PID.TID 0000.0001)                 8.078743937057304E+10,      /* I = 43 */
(PID.TID 0000.0001)                 8.404959656062837E+10,      /* I = 44 */
(PID.TID 0000.0001)                 8.669186205742538E+10,      /* I = 45 */
(PID.TID 0000.0001)                 8.869393350723613E+10,      /* I = 46 */
(PID.TID 0000.0001)                 9.003884657168852E+10,      /* I = 47 */
(PID.TID 0000.0001)     2 @  9.071447638299399E+10,             /* I = 48: 49 */
(PID.TID 0000.0001)                 9.003884657168852E+10,      /* I = 50 */
(PID.TID 0000.0001)                 8.869393350723613E+10,      /* I = 51 */
(PID.TID 0000.0001)                 8.669186205742538E+10,      /* I = 52 */
(PID.TID 0000.0001)                 8.404959656062837E+10,      /* I = 53 */
(PID.TID 0000.0001)                 8.078743937057304E+10,      /* I = 54 */
(PID.TID 0000.0001)                 7.692702995909871E+10,      /* I = 55 */
(PID.TID 0000.0001)                 7.248875782324815E+10,      /* I = 56 */
(PID.TID 0000.0001)                 6.748840226738273E+10,      /* I = 57 */
(PID.TID 0000.0001)                 6.193257577506788E+10,      /* I = 58 */
(PID.TID 0000.0001)                 5.581203765722643E+10,      /* I = 59 */
(PID.TID 0000.0001)                 4.909074590409593E+10,      /* I = 60 */
(PID.TID 0000.0001)                 4.168532893152940E+10,      /* I = 61 */
(PID.TID 0000.0001)                 3.341968103208270E+10,      /* I = 62 */
(PID.TID 0000.0001)                 2.390126200743558E+10,      /* I = 63 */
(PID.TID 0000.0001)     2 @  1.216690346714270E+10,             /* I = 64: 65 */
(PID.TID 0000.0001)                 2.390126200743558E+10,      /* I = 66 */
(PID.TID 0000.0001)                 3.341968103208270E+10,      /* I = 67 */
(PID.TID 0000.0001)                 4.168532893152940E+10,      /* I = 68 */
(PID.TID 0000.0001)                 4.909074590409593E+10,      /* I = 69 */
(PID.TID 0000.0001)                 5.581203765722643E+10,      /* I = 70 */
(PID.TID 0000.0001)                 6.193257577506788E+10,      /* I = 71 */
(PID.TID 0000.0001)                 6.748840226738273E+10,      /* I = 72 */
(PID.TID 0000.0001)                 7.248875782324815E+10,      /* I = 73 */
(PID.TID 0000.0001)                 7.692702995909871E+10,      /* I = 74 */
(PID.TID 0000.0001)                 8.078743937057304E+10,      /* I = 75 */
(PID.TID 0000.0001)                 8.404959656062837E+10,      /* I = 76 */
(PID.TID 0000.0001)                 8.669186205742538E+10,      /* I = 77 */
(PID.TID 0000.0001)                 8.869393350723613E+10,      /* I = 78 */
(PID.TID 0000.0001)                 9.003884657168852E+10,      /* I = 79 */
(PID.TID 0000.0001)     2 @  9.071447638299399E+10,             /* I = 80: 81 */
(PID.TID 0000.0001)                 9.003884657168852E+10,      /* I = 82 */
(PID.TID 0000.0001)                 8.869393350723613E+10,      /* I = 83 */
(PID.TID 0000.0001)                 8.669186205742538E+10,      /* I = 84 */
(PID.TID 0000.0001)                 8.404959656062837E+10,      /* I = 85 */
(PID.TID 0000.0001)                 8.078743937057304E+10,      /* I = 86 */
(PID.TID 0000.0001)                 7.692702995909871E+10,      /* I = 87 */
(PID.TID 0000.0001)                 7.248875782324815E+10,      /* I = 88 */
(PID.TID 0000.0001)                 6.748840226738273E+10,      /* I = 89 */
(PID.TID 0000.0001)                 6.193257577506788E+10,      /* I = 90 */
(PID.TID 0000.0001)                 5.581203765722643E+10,      /* I = 91 */
(PID.TID 0000.0001)                 4.909074590409593E+10,      /* I = 92 */
(PID.TID 0000.0001)                 4.168532893152940E+10,      /* I = 93 */
(PID.TID 0000.0001)                 3.341968103208270E+10,      /* I = 94 */
(PID.TID 0000.0001)                 2.390126200743558E+10,      /* I = 95 */
(PID.TID 0000.0001)     2 @  1.216690346714270E+10,             /* I = 96: 97 */
(PID.TID 0000.0001)                 2.390126200743558E+10,      /* I = 98 */
(PID.TID 0000.0001)                 3.341968103208270E+10,      /* I = 99 */
(PID.TID 0000.0001)                 4.168532893152940E+10,      /* I =100 */
(PID.TID 0000.0001)                 4.909074590409593E+10,      /* I =101 */
(PID.TID 0000.0001)                 5.581203765722643E+10,      /* I =102 */
(PID.TID 0000.0001)                 6.193257577506788E+10,      /* I =103 */
(PID.TID 0000.0001)                 6.748840226738273E+10,      /* I =104 */
(PID.TID 0000.0001)                 7.248875782324815E+10,      /* I =105 */
(PID.TID 0000.0001)                 7.692702995909871E+10,      /* I =106 */
(PID.TID 0000.0001)                 8.078743937057304E+10,      /* I =107 */
(PID.TID 0000.0001)                 8.404959656062837E+10,      /* I =108 */
(PID.TID 0000.0001)                 8.669186205742538E+10,      /* I =109 */
(PID.TID 0000.0001)                 8.869393350723613E+10,      /* I =110 */
(PID.TID 0000.0001)                 9.003884657168852E+10,      /* I =111 */
(PID.TID 0000.0001)     2 @  9.071447638299399E+10,             /* I =112:113 */
(PID.TID 0000.0001)                 9.003884657168852E+10,      /* I =114 */
(PID.TID 0000.0001)                 8.869393350723613E+10,      /* I =115 */
(PID.TID 0000.0001)                 8.669186205742538E+10,      /* I =116 */
(PID.TID 0000.0001)                 8.404959656062837E+10,      /* I =117 */
(PID.TID 0000.0001)                 8.078743937057304E+10,      /* I =118 */
(PID.TID 0000.0001)                 7.692702995909871E+10,      /* I =119 */
(PID.TID 0000.0001)                 7.248875782324815E+10,      /* I =120 */
(PID.TID 0000.0001)                 6.748840226738273E+10,      /* I =121 */
(PID.TID 0000.0001)                 6.193257577506788E+10,      /* I =122 */
(PID.TID 0000.0001)                 5.581203765722643E+10,      /* I =123 */
(PID.TID 0000.0001)                 4.909074590409593E+10,      /* I =124 */
(PID.TID 0000.0001)                 4.168532893152940E+10,      /* I =125 */
(PID.TID 0000.0001)                 3.341968103208270E+10,      /* I =126 */
(PID.TID 0000.0001)                 2.390126200743558E+10,      /* I =127 */
(PID.TID 0000.0001)     2 @  1.216690346714270E+10,             /* I =128:129 */
(PID.TID 0000.0001)                 2.390126200743558E+10,      /* I =130 */
(PID.TID 0000.0001)                 3.341968103208270E+10,      /* I =131 */
(PID.TID 0000.0001)                 4.168532893152940E+10,      /* I =132 */
(PID.TID 0000.0001)                 4.909074590409593E+10,      /* I =133 */
(PID.TID 0000.0001)                 5.581203765722643E+10,      /* I =134 */
(PID.TID 0000.0001)                 6.193257577506788E+10,      /* I =135 */
(PID.TID 0000.0001)                 6.748840226738273E+10,      /* I =136 */
(PID.TID 0000.0001)                 7.248875782324815E+10,      /* I =137 */
(PID.TID 0000.0001)                 7.692702995909871E+10,      /* I =138 */
(PID.TID 0000.0001)                 8.078743937057304E+10,      /* I =139 */
(PID.TID 0000.0001)                 8.404959656062837E+10,      /* I =140 */
(PID.TID 0000.0001)                 8.669186205742538E+10,      /* I =141 */
(PID.TID 0000.0001)                 8.869393350723613E+10,      /* I =142 */
(PID.TID 0000.0001)                 9.003884657168852E+10,      /* I =143 */
(PID.TID 0000.0001)     2 @  9.071447638299399E+10,             /* I =144:145 */
(PID.TID 0000.0001)                 9.003884657168852E+10,      /* I =146 */
(PID.TID 0000.0001)                 8.869393350723613E+10,      /* I =147 */
(PID.TID 0000.0001)                 8.669186205742538E+10,      /* I =148 */
(PID.TID 0000.0001)                 8.404959656062837E+10,      /* I =149 */
(PID.TID 0000.0001)                 8.078743937057304E+10,      /* I =150 */
(PID.TID 0000.0001)                 7.692702995909871E+10,      /* I =151 */
(PID.TID 0000.0001)                 7.248875782324815E+10,      /* I =152 */
(PID.TID 0000.0001)                 6.748840226738273E+10,      /* I =153 */
(PID.TID 0000.0001)                 6.193257577506788E+10,      /* I =154 */
(PID.TID 0000.0001)                 5.581203765722643E+10,      /* I =155 */
(PID.TID 0000.0001)                 4.909074590409593E+10,      /* I =156 */
(PID.TID 0000.0001)                 4.168532893152940E+10,      /* I =157 */
(PID.TID 0000.0001)                 3.341968103208270E+10,      /* I =158 */
(PID.TID 0000.0001)                 2.390126200743558E+10,      /* I =159 */
(PID.TID 0000.0001)     2 @  1.216690346714270E+10,             /* I =160:161 */
(PID.TID 0000.0001)                 2.390126200743558E+10,      /* I =162 */
(PID.TID 0000.0001)                 3.341968103208270E+10,      /* I =163 */
(PID.TID 0000.0001)                 4.168532893152940E+10,      /* I =164 */
(PID.TID 0000.0001)                 4.909074590409593E+10,      /* I =165 */
(PID.TID 0000.0001)                 5.581203765722643E+10,      /* I =166 */
(PID.TID 0000.0001)                 6.193257577506788E+10,      /* I =167 */
(PID.TID 0000.0001)                 6.748840226738273E+10,      /* I =168 */
(PID.TID 0000.0001)                 7.248875782324815E+10,      /* I =169 */
(PID.TID 0000.0001)                 7.692702995909871E+10,      /* I =170 */
(PID.TID 0000.0001)                 8.078743937057304E+10,      /* I =171 */
(PID.TID 0000.0001)                 8.404959656062837E+10,      /* I =172 */
(PID.TID 0000.0001)                 8.669186205742538E+10,      /* I =173 */
(PID.TID 0000.0001)                 8.869393350723613E+10,      /* I =174 */
(PID.TID 0000.0001)                 9.003884657168852E+10,      /* I =175 */
(PID.TID 0000.0001)     2 @  9.071447638299399E+10,             /* I =176:177 */
(PID.TID 0000.0001)                 9.003884657168852E+10,      /* I =178 */
(PID.TID 0000.0001)                 8.869393350723613E+10,      /* I =179 */
(PID.TID 0000.0001)                 8.669186205742538E+10,      /* I =180 */
(PID.TID 0000.0001)                 8.404959656062837E+10,      /* I =181 */
(PID.TID 0000.0001)                 8.078743937057304E+10,      /* I =182 */
(PID.TID 0000.0001)                 7.692702995909871E+10,      /* I =183 */
(PID.TID 0000.0001)                 7.248875782324815E+10,      /* I =184 */
(PID.TID 0000.0001)                 6.748840226738273E+10,      /* I =185 */
(PID.TID 0000.0001)                 6.193257577506788E+10,      /* I =186 */
(PID.TID 0000.0001)                 5.581203765722643E+10,      /* I =187 */
(PID.TID 0000.0001)                 4.909074590409593E+10,      /* I =188 */
(PID.TID 0000.0001)                 4.168532893152940E+10,      /* I =189 */
(PID.TID 0000.0001)                 3.341968103208270E+10,      /* I =190 */
(PID.TID 0000.0001)                 2.390126200743558E+10,      /* I =191 */
(PID.TID 0000.0001)                 1.216690346714270E+10       /* I =192 */
(PID.TID 0000.0001)     ;
(PID.TID 0000.0001) rAs =  /* rAs(1,:,1,:) ( units: m^2 ) */
(PID.TID 0000.0001)                 1.216690346714270E+10,      /* J =  1 */
(PID.TID 0000.0001)                 1.974052138506315E+10,      /* J =  2 */
(PID.TID 0000.0001)                 2.943712825252015E+10,      /* J =  3 */
(PID.TID 0000.0001)                 3.801790263324359E+10,      /* J =  4 */
(PID.TID 0000.0001)                 4.571243814189866E+10,      /* J =  5 */
(PID.TID 0000.0001)                 5.269930713599979E+10,      /* J =  6 */
(PID.TID 0000.0001)                 5.907428494299063E+10,      /* J =  7 */
(PID.TID 0000.0001)                 6.488320895111514E+10,      /* J =  8 */
(PID.TID 0000.0001)                 7.014205907741882E+10,      /* J =  9 */
(PID.TID 0000.0001)                 7.484854821847499E+10,      /* J = 10 */
(PID.TID 0000.0001)                 7.898934631431560E+10,      /* J = 11 */
(PID.TID 0000.0001)                 8.254500894894537E+10,      /* J = 12 */
(PID.TID 0000.0001)                 8.549360686473492E+10,      /* J = 13 */
(PID.TID 0000.0001)                 8.781353403175085E+10,      /* J = 14 */
(PID.TID 0000.0001)                 8.948571540392021E+10,      /* J = 15 */
(PID.TID 0000.0001)                 9.049530583086168E+10,      /* J = 16 */
(PID.TID 0000.0001)                 9.083293515008307E+10,      /* J = 17 */
(PID.TID 0000.0001)                 9.049530583087070E+10,      /* J = 18 */
(PID.TID 0000.0001)                 8.948571540391121E+10,      /* J = 19 */
(PID.TID 0000.0001)                 8.781353403174185E+10,      /* J = 20 */
(PID.TID 0000.0001)                 8.549360686467184E+10,      /* J = 21 */
(PID.TID 0000.0001)                 8.254500894890933E+10,      /* J = 22 */
(PID.TID 0000.0001)                 7.898934631434262E+10,      /* J = 23 */
(PID.TID 0000.0001)                 7.484854821844795E+10,      /* J = 24 */
(PID.TID 0000.0001)                 7.014205907742783E+10,      /* J = 25 */
(PID.TID 0000.0001)                 6.488320895111514E+10,      /* J = 26 */
(PID.TID 0000.0001)                 5.907428494299063E+10,      /* J = 27 */
(PID.TID 0000.0001)                 5.269930713599078E+10,      /* J = 28 */
(PID.TID 0000.0001)                 4.571243814190767E+10,      /* J = 29 */
(PID.TID 0000.0001)                 3.801790263325260E+10,      /* J = 30 */
(PID.TID 0000.0001)                 2.943712825251114E+10,      /* J = 31 */
(PID.TID 0000.0001)                 1.974052138509018E+10       /* J = 32 */
(PID.TID 0000.0001)     ;
(PID.TID 0000.0001) globalArea = /* Integrated horizontal Area (m^2) */
(PID.TID 0000.0001)                 3.638867375081598E+14
(PID.TID 0000.0001)     ;
(PID.TID 0000.0001) // =======================================================
(PID.TID 0000.0001) // End of Model config. summary
(PID.TID 0000.0001) // =======================================================
(PID.TID 0000.0001) 
(PID.TID 0000.0001)  MDS_READ_FIELD: opening global file: pickup.0000036000
(PID.TID 0000.0001)  MDS_READ_FIELD: opening global file: pickup.0000036000
(PID.TID 0000.0001)  MDS_READ_FIELD: opening global file: pickup.0000036000
(PID.TID 0000.0001)  MDS_READ_FIELD: opening global file: pickup.0000036000
(PID.TID 0000.0001)  MDS_READ_FIELD: opening global file: pickup.0000036000
(PID.TID 0000.0001)  MDS_READ_FIELD: opening global file: pickup.0000036000
(PID.TID 0000.0001)  MDS_READ_FIELD: opening global file: pickup.0000036000
(PID.TID 0000.0001)  MDS_READ_FIELD: opening global file: pickup.0000036000
(PID.TID 0000.0001)  MDS_READ_FIELD: opening global file: pickup.0000036000
(PID.TID 0000.0001)  MDS_READ_FIELD: opening global file: pickup.0000036000
(PID.TID 0000.0001)  MDS_READ_FIELD: opening global file: pickup.0000036000
(PID.TID 0000.0001)  MDS_READ_FIELD: opening global file: trenberth_taux.bin
(PID.TID 0000.0001)  MDS_READ_FIELD: opening global file: trenberth_tauy.bin
(PID.TID 0000.0001)  MDS_READ_FIELD: opening global file: lev_surfT_cs_12m.bin
(PID.TID 0000.0001)  MDS_READ_FIELD: opening global file: lev_surfS_cs_12m.bin
(PID.TID 0000.0001)  write diagnostics summary to file ioUnit:      6
Iter.Nb:     36000 ; Time(s):  3.1104000000000E+09
------------------------------------------------------------------------
2D/3D diagnostics: Number of lists:     6
------------------------------------------------------------------------
listId=   1 ; file name: surfDiag
 nFlds, nActive,       freq     &   phase        , nLev                 
  12  |  12  |1555200000.000000         0.000000 |   1
 levels:   1
 diag#| name   | ipt  | iMate| kLev| count | mate.C|                    
   23 |ETAN    |    1 |    0 |   1 |     0 |
   24 |ETANSQ  |    2 |    0 |   1 |     0 |
   25 |DETADT2 |    3 |    0 |   1 |     0 |
   67 |PHIBOT  |    4 |    0 |   1 |     0 |
   68 |PHIBOTSQ|    5 |    0 |   1 |     0 |
   71 |oceTAUX |    6 |    0 |   1 |     0 |
   72 |oceTAUY |    7 |    0 |   1 |     0 |
   84 |TFLUX   |    8 |    0 |   1 |     0 |
   85 |SFLUX   |    9 |    0 |   1 |     0 |
   79 |oceFreez|   10 |    0 |   1 |     0 |
   80 |TRELAX  |   11 |    0 |   1 |     0 |
   81 |SRELAX  |   12 |    0 |   1 |     0 |
------------------------------------------------------------------------
listId=   2 ; file name: dynDiag
 nFlds, nActive,       freq     &   phase        , nLev                 
  15  |  15  |1555200000.000000         0.000000 |  15
 levels:   1   2   3   4   5   6   7   8   9  10  11  12  13  14  15
 diag#| name   | ipt  | iMate| kLev| count | mate.C|                    
   30 |UVEL    |   13 |   28 |  15 |     0 |     0 |
   31 |VVEL    |   28 |   13 |  15 |     0 |     0 |
   32 |WVEL    |   43 |    0 |  15 |     0 |
   65 |PHIHYD  |   58 |    0 |  15 |     0 |
   44 |VVELMASS|   73 |   88 |  15 |     0 |     0 |
   43 |UVELMASS|   88 |   73 |  15 |     0 |     0 |
   38 |WVELSQ  |  103 |    0 |  15 |     0 |
   26 |THETA   |  118 |    0 |  15 |     0 |
   46 |UTHMASS |  133 |  148 |  15 |     0 |     0 |
   47 |VTHMASS |  148 |  133 |  15 |     0 |     0 |
   48 |WTHMASS |  163 |    0 |  15 |     0 |
   27 |SALT    |  178 |    0 |  15 |     0 |
   49 |USLTMASS|  193 |  208 |  15 |     0 |     0 |
   50 |VSLTMASS|  208 |  193 |  15 |     0 |     0 |
   51 |WSLTMASS|  223 |    0 |  15 |     0 |
------------------------------------------------------------------------
listId=   3 ; file name: thSIceDiag
 nFlds, nActive,       freq     &   phase        , nLev                 
  16  |  17  |1555200000.000000         0.000000 |   1
 levels:   1
 diag#| name   | ipt  | iMate| kLev| count | mate.C|                    
  183 |SI_Fract|  238 |    0 |   1 |    0(x12) |
  184 |SI_Thick|  250 |  238 |   1 |    0(x12) |
  185 |SI_SnowH|  262 |  238 |   1 |    0(x12) |
  186 |SI_Tsrf |  274 |  238 |   1 |    0(x12) |
  187 |SI_Tice1|  286 |  238 |   1 |    0(x12) |
  188 |SI_Tice2|  298 |  238 |   1 |    0(x12) |
  189 |SI_Qice1|  310 |  250 |   1 |    0(x12) |
  190 |SI_Qice2|  322 |  250 |   1 |    0(x12) |
  191 |SIsnwAge|  334 |    0 |   1 |    0(x12) |
  194 |SIsnwPrc|  346 |  358 |   1 |    0(x12) |
  193 |SIalbedo|  370 |  358 |   1 |    0(x12) |
  197 |SIflx2oc|  382 |    0 |   1 |    0(x12) |
  198 |SIfrw2oc|  394 |    0 |   1 |    0(x12) |
  199 |SIsaltFx|  406 |    0 |   1 |    0(x12) |
  195 |SIflxAtm|  418 |    0 |   1 |    0(x12) |
  196 |SIfrwAtm|  430 |    0 |   1 |    0(x12) |
  192 |SI_FrcFx|  358 |    0 |   1 |    0(x12) |
------------------------------------------------------------------------
listId=   4 ; file name: surfInst
 nFlds, nActive,       freq     &   phase        , nLev                 
   2  |   2  |   -777600.000000         0.000000 |   1
 levels:   1
 diag#| name   | ipt  | iMate| kLev| count | mate.C|                    
   23 |ETAN    |  442 |    0 |   1 |     0 |
   75 |oceFWflx|  443 |    0 |   1 |     0 |
------------------------------------------------------------------------
listId=   5 ; file name: etaInst
 nFlds, nActive,       freq     &   phase        , nLev                 
   1  |   1  |   -777600.000000     86400.000000 |   1
 levels:   1
 diag#| name   | ipt  | iMate| kLev| count | mate.C|                    
   23 |ETAN    |  444 |    0 |   1 |     0 |
------------------------------------------------------------------------
listId=   6 ; file name: dynInst
 nFlds, nActive,       freq     &   phase        , nLev                 
   2  |   2  |   -777600.000000         0.000000 |  15
 levels:   1   2   3   4   5   6   7   8   9  10  11  12  13  14  15
 diag#| name   | ipt  | iMate| kLev| count | mate.C|                    
   26 |THETA   |  445 |    0 |  15 |     0 |
   27 |SALT    |  460 |    0 |  15 |     0 |
------------------------------------------------------------------------
Global & Regional Statistics diagnostics: Number of lists:     4
------------------------------------------------------------------------
listId=   1 ; file name: dynStDiag
 nFlds, nActive,       freq     &   phase        |                      
   6  |   6  |    864000.000000         0.000000 |
 Regions:   0
 diag#| name   | ipt  | iMate|    Volume   |   mate-Vol. |              
   23 |ETAN    |    1 |    0 | 0.00000E+00 |
   24 |ETANSQ  |    2 |    0 | 0.00000E+00 |
   25 |DETADT2 |    3 |    0 | 0.00000E+00 |
   26 |THETA   |    4 |    0 | 0.00000E+00 |
   27 |SALT    |   19 |    0 | 0.00000E+00 |
   70 |CONVADJ |   34 |    0 | 0.00000E+00 |
------------------------------------------------------------------------
listId=   2 ; file name: surfStDiag
 nFlds, nActive,       freq     &   phase        |                      
  11  |  11  |    777600.000000     86400.000000 |
 Regions:   0
 diag#| name   | ipt  | iMate|    Volume   |   mate-Vol. |              
   71 |oceTAUX |   49 |    0 | 0.00000E+00 |
   72 |oceTAUY |   50 |    0 | 0.00000E+00 |
   80 |TRELAX  |   51 |    0 | 0.00000E+00 |
   81 |SRELAX  |   52 |    0 | 0.00000E+00 |
   82 |surForcT|   53 |    0 | 0.00000E+00 |
   83 |surForcS|   54 |    0 | 0.00000E+00 |
   84 |TFLUX   |   55 |    0 | 0.00000E+00 |
   85 |SFLUX   |   56 |    0 | 0.00000E+00 |
   77 |oceQnet |   57 |    0 | 0.00000E+00 |
   76 |oceSflux|   58 |    0 | 0.00000E+00 |
   75 |oceFWflx|   59 |    0 | 0.00000E+00 |
------------------------------------------------------------------------
listId=   3 ; file name: instStDiag
 nFlds, nActive,       freq     &   phase        |                      
   3  |   3  |   -777600.000000     86400.000000 |
 Regions:   0
 diag#| name   | ipt  | iMate|    Volume   |   mate-Vol. |              
   23 |ETAN    |   60 |    0 | 0.00000E+00 |
   26 |THETA   |   61 |    0 | 0.00000E+00 |
   27 |SALT    |   76 |    0 | 0.00000E+00 |
------------------------------------------------------------------------
listId=   4 ; file name: thSIceStDiag
 nFlds, nActive,       freq     &   phase        |                      
  16  |  17  |    864000.000000         0.000000 |
 Regions:   0  1  3
 diag#| name   | ipt  | iMate|    Volume   |   mate-Vol. |              
  183 |SI_Fract|   91 |    0 | 0.00000E+00 |
  184 |SI_Thick|   92 |   91 | 0.00000E+00 | 0.00000E+00 |
  185 |SI_SnowH|   93 |   91 | 0.00000E+00 | 0.00000E+00 |
  186 |SI_Tsrf |   94 |   91 | 0.00000E+00 | 0.00000E+00 |
  187 |SI_Tice1|   95 |   91 | 0.00000E+00 | 0.00000E+00 |
  188 |SI_Tice2|   96 |   91 | 0.00000E+00 | 0.00000E+00 |
  189 |SI_Qice1|   97 |   92 | 0.00000E+00 | 0.00000E+00 |
  190 |SI_Qice2|   98 |   92 | 0.00000E+00 | 0.00000E+00 |
  194 |SIsnwPrc|   99 |  100 | 0.00000E+00 | 0.00000E+00 |
  193 |SIalbedo|  101 |  100 | 0.00000E+00 | 0.00000E+00 |
  191 |SIsnwAge|  102 |    0 | 0.00000E+00 |
  197 |SIflx2oc|  103 |    0 | 0.00000E+00 |
  198 |SIfrw2oc|  104 |    0 | 0.00000E+00 |
  199 |SIsaltFx|  105 |    0 | 0.00000E+00 |
  195 |SIflxAtm|  106 |    0 | 0.00000E+00 |
  196 |SIfrwAtm|  107 |    0 | 0.00000E+00 |
  192 |SI_FrcFx|  100 |    0 | 0.00000E+00 |
------------------------------------------------------------------------
(PID.TID 0000.0001)  MDS_READ_FIELD: opening global file: pickup_ic.0000036000
(PID.TID 0000.0001)  MDS_READ_FIELD: opening global file: pickup_ic.0000036000
(PID.TID 0000.0001)  MDS_READ_FIELD: opening global file: pickup_ic.0000036000
(PID.TID 0000.0001)  MDS_READ_FIELD: opening global file: pickup_ic.0000036000
(PID.TID 0000.0001)  MDS_READ_FIELD: opening global file: pickup_ic.0000036000
(PID.TID 0000.0001)  MDS_READ_FIELD: opening global file: pickup_ic.0000036000
(PID.TID 0000.0001)  MDS_READ_FIELD: opening global file: pickup_ic.0000036000
(PID.TID 0000.0001)  MDS_READ_FIELD: opening global file: pickup_ic.0000036000
(PID.TID 0000.0001)  MDS_READ_FIELD: opening global file: pickup_ic.0000036000
(PID.TID 0000.0001) // =======================================================
(PID.TID 0000.0001) // Model current state
(PID.TID 0000.0001) // =======================================================
(PID.TID 0000.0001) 
(PID.TID 0000.0001) // =======================================================
(PID.TID 0000.0001) // Begin MONITOR dynamic field statistics
(PID.TID 0000.0001) // =======================================================
(PID.TID 0000.0001) %MON time_tsnumber                =                 36000
(PID.TID 0000.0001) %MON time_secondsf                =   3.1104000000000E+09
(PID.TID 0000.0001) %MON dynstat_eta_max              =   7.3500434503471E-01
(PID.TID 0000.0001) %MON dynstat_eta_min              =  -1.1986891348601E+01
(PID.TID 0000.0001) %MON dynstat_eta_mean             =  -5.8045564487853E-01
(PID.TID 0000.0001) %MON dynstat_eta_sd               =   1.6994311255501E+00
(PID.TID 0000.0001) %MON dynstat_eta_del2             =   9.6453306471101E-02
(PID.TID 0000.0001) %MON dynstat_uvel_max             =   1.7235154042170E-01
(PID.TID 0000.0001) %MON dynstat_uvel_min             =  -2.7145887709522E-01
(PID.TID 0000.0001) %MON dynstat_uvel_mean            =  -5.2887824837157E-04
(PID.TID 0000.0001) %MON dynstat_uvel_sd              =   1.2989468965472E-02
(PID.TID 0000.0001) %MON dynstat_uvel_del2            =   1.7920186340225E-03
(PID.TID 0000.0001) %MON dynstat_vvel_max             =   1.9306786753954E-01
(PID.TID 0000.0001) %MON dynstat_vvel_min             =  -2.1050631286072E-01
(PID.TID 0000.0001) %MON dynstat_vvel_mean            =  -4.2470116939793E-04
(PID.TID 0000.0001) %MON dynstat_vvel_sd              =   1.3472945317820E-02
(PID.TID 0000.0001) %MON dynstat_vvel_del2            =   1.8319026986974E-03
(PID.TID 0000.0001) %MON dynstat_wvel_max             =   8.3888727589247E-05
(PID.TID 0000.0001) %MON dynstat_wvel_min             =  -1.7681850941337E-04
(PID.TID 0000.0001) %MON dynstat_wvel_mean            =  -1.2631701181818E-09
(PID.TID 0000.0001) %MON dynstat_wvel_sd              =   4.6274614748344E-06
(PID.TID 0000.0001) %MON dynstat_wvel_del2            =   1.1378775396729E-06
(PID.TID 0000.0001) %MON dynstat_theta_max            =   3.0162021109834E+01
(PID.TID 0000.0001) %MON dynstat_theta_min            =  -5.5087736803077E+00
(PID.TID 0000.0001) %MON dynstat_theta_mean           =   3.5027154873320E+00
(PID.TID 0000.0001) %MON dynstat_theta_sd             =   4.7490175075967E+00
(PID.TID 0000.0001) %MON dynstat_theta_del2           =   9.5106365389722E-02
(PID.TID 0000.0001) %MON dynstat_salt_max             =   4.0815425249776E+01
(PID.TID 0000.0001) %MON dynstat_salt_min             =   1.8030178312691E+01
(PID.TID 0000.0001) %MON dynstat_salt_mean            =   3.4756092396968E+01
(PID.TID 0000.0001) %MON dynstat_salt_sd              =   5.1193688315107E-01
(PID.TID 0000.0001) %MON dynstat_salt_del2            =   2.0020089713970E-02
(PID.TID 0000.0001) %MON extforcing_qnet_max          =   0.0000000000000E+00
(PID.TID 0000.0001) %MON extforcing_qnet_min          =   0.0000000000000E+00
(PID.TID 0000.0001) %MON extforcing_qnet_mean         =   0.0000000000000E+00
(PID.TID 0000.0001) %MON extforcing_qnet_sd           =   0.0000000000000E+00
(PID.TID 0000.0001) %MON extforcing_qnet_del2         =   0.0000000000000E+00
(PID.TID 0000.0001) %MON extforcing_qsw_max           =   0.0000000000000E+00
(PID.TID 0000.0001) %MON extforcing_qsw_min           =   0.0000000000000E+00
(PID.TID 0000.0001) %MON extforcing_qsw_mean          =   0.0000000000000E+00
(PID.TID 0000.0001) %MON extforcing_qsw_sd            =   0.0000000000000E+00
(PID.TID 0000.0001) %MON extforcing_qsw_del2          =   0.0000000000000E+00
(PID.TID 0000.0001) %MON extforcing_empmr_max         =   0.0000000000000E+00
(PID.TID 0000.0001) %MON extforcing_empmr_min         =   0.0000000000000E+00
(PID.TID 0000.0001) %MON extforcing_empmr_mean        =   0.0000000000000E+00
(PID.TID 0000.0001) %MON extforcing_empmr_sd          =   0.0000000000000E+00
(PID.TID 0000.0001) %MON extforcing_empmr_del2        =   0.0000000000000E+00
(PID.TID 0000.0001) %MON extforcing_fu_max            =   2.4892781143428E-01
(PID.TID 0000.0001) %MON extforcing_fu_min            =  -2.1535754027523E-01
(PID.TID 0000.0001) %MON extforcing_fu_mean           =  -1.5044401616678E-03
(PID.TID 0000.0001) %MON extforcing_fu_sd             =   6.2251894339929E-02
(PID.TID 0000.0001) %MON extforcing_fu_del2           =   3.5863906188079E-03
(PID.TID 0000.0001) %MON extforcing_fv_max            =   2.9305960402537E-01
(PID.TID 0000.0001) %MON extforcing_fv_min            =  -3.3950131228473E-01
(PID.TID 0000.0001) %MON extforcing_fv_mean           =  -5.6789986032871E-03
(PID.TID 0000.0001) %MON extforcing_fv_sd             =   7.0480050409315E-02
(PID.TID 0000.0001) %MON extforcing_fv_del2           =   3.5172812437129E-03
(PID.TID 0000.0001) %MON advcfl_uvel_max              =   7.6990886762546E-02
(PID.TID 0000.0001) %MON advcfl_vvel_max              =   8.4155563479013E-02
(PID.TID 0000.0001) %MON advcfl_wvel_max              =   5.7649506465342E-02
(PID.TID 0000.0001) %MON advcfl_W_hf_max              =   1.3178433447991E-01
(PID.TID 0000.0001) %MON pe_b_mean                    =   4.2969665467446E-03
(PID.TID 0000.0001) %MON ke_max                       =   3.6920742855791E-02
(PID.TID 0000.0001) %MON ke_mean                      =   1.6194090277160E-04
(PID.TID 0000.0001) %MON ke_vol                       =   1.3395912415612E+18
(PID.TID 0000.0001) %MON vort_r_min                   =  -1.2103928619458E-06
(PID.TID 0000.0001) %MON vort_r_max                   =   1.3658356323918E-06
(PID.TID 0000.0001) %MON vort_a_mean                  =  -2.0493733748264E-05
(PID.TID 0000.0001) %MON vort_a_sd                    =   7.5054014221264E-05
(PID.TID 0000.0001) %MON vort_p_mean                  =  -2.4719485005016E-05
(PID.TID 0000.0001) %MON vort_p_sd                    =   1.2782267184684E-04
(PID.TID 0000.0001) %MON surfExpan_theta_mean         =   8.4664546923379E-08
(PID.TID 0000.0001) %MON surfExpan_salt_mean          =   2.0573162615946E-08
(PID.TID 0000.0001) // =======================================================
(PID.TID 0000.0001) // End MONITOR dynamic field statistics
(PID.TID 0000.0001) // =======================================================
(PID.TID 0000.0001) // =======================================================
(PID.TID 0000.0001) // Begin MONITOR Therm.SeaIce statistics
(PID.TID 0000.0001) // =======================================================
(PID.TID 0000.0001) %MON thSI_time_sec                =   3.1104000000000E+09
(PID.TID 0000.0001) %MON thSI_Ice_Area_G              =   2.4716044426698E+13
(PID.TID 0000.0001) %MON thSI_Ice_Area_S              =   1.2123515471256E+13
(PID.TID 0000.0001) %MON thSI_Ice_Area_N              =   1.2592528955442E+13
(PID.TID 0000.0001) %MON thSI_IceH_ave_G              =   4.5665991101486E+00
(PID.TID 0000.0001) %MON thSI_IceH_ave_S              =   5.6548113929333E+00
(PID.TID 0000.0001) %MON thSI_IceH_ave_N              =   3.5189177037341E+00
(PID.TID 0000.0001) %MON thSI_IceH_max_S              =   1.0000000000000E+01
(PID.TID 0000.0001) %MON thSI_IceH_max_N              =   1.0000000000000E+01
(PID.TID 0000.0001) %MON thSI_SnwH_ave_G              =   1.0642325960795E+00
(PID.TID 0000.0001) %MON thSI_SnwH_ave_S              =   1.8039252994821E+00
(PID.TID 0000.0001) %MON thSI_SnwH_ave_N              =   3.5209002603598E-01
(PID.TID 0000.0001) %MON thSI_SnwH_max_S              =   4.0920173287519E+00
(PID.TID 0000.0001) %MON thSI_SnwH_max_N              =   4.0933581672150E+00
(PID.TID 0000.0001) %MON thSI_TotEnerg_G              =  -3.7927617991529E+22
(PID.TID 0000.0001) %MON thSI_Tsrf_ave_G              =  -1.6644740861567E+01
(PID.TID 0000.0001) %MON thSI_Tsrf_ave_S              =  -1.2271804409750E-01
(PID.TID 0000.0001) %MON thSI_Tsrf_ave_N              =  -3.2551394715834E+01
(PID.TID 0000.0001) %MON thSI_Tsrf_min_S              =  -5.2879155123950E+00
(PID.TID 0000.0001) %MON thSI_Tsrf_min_N              =  -4.6099403861095E+01
(PID.TID 0000.0001) %MON thSI_Tsrf_max_S              =   0.0000000000000E+00
(PID.TID 0000.0001) %MON thSI_Tsrf_max_N              =  -1.7223298637424E+00
(PID.TID 0000.0001) %MON thSI_Tic1_ave_G              =  -8.3503593345479E+00
(PID.TID 0000.0001) %MON thSI_Tic1_ave_S              =  -5.1859254669298E+00
(PID.TID 0000.0001) %MON thSI_Tic1_ave_N              =  -1.3246125323351E+01
(PID.TID 0000.0001) %MON thSI_Tic1_min_S              =  -1.7372153208148E+01
(PID.TID 0000.0001) %MON thSI_Tic1_min_N              =  -2.0584120855350E+01
(PID.TID 0000.0001) %MON thSI_Tic1_max_S              =  -1.5363024655854E-01
(PID.TID 0000.0001) %MON thSI_Tic1_max_N              =  -5.8630083767312E-01
(PID.TID 0000.0001) %MON thSI_Tic2_ave_G              =  -3.7701031784537E+00
(PID.TID 0000.0001) %MON thSI_Tic2_ave_S              =  -3.1173552909385E+00
(PID.TID 0000.0001) %MON thSI_Tic2_ave_N              =  -4.7799839472262E+00
(PID.TID 0000.0001) %MON thSI_Tic2_min_S              =  -8.8326933331569E+00
(PID.TID 0000.0001) %MON thSI_Tic2_min_N              =  -7.3985906582730E+00
(PID.TID 0000.0001) %MON thSI_Tic2_max_S              =  -1.1778332319913E+00
(PID.TID 0000.0001) %MON thSI_Tic2_max_N              =  -1.1561961802541E+00
(PID.TID 0000.0001) // =======================================================
(PID.TID 0000.0001) // End MONITOR Therm.SeaIce statistics
(PID.TID 0000.0001) // =======================================================
S/R BULKF_FIELDS_LOAD: Reading new data:   12    1     36000  3.110400000000E+09
(PID.TID 0000.0001)  MDS_READ_FIELD: opening global file: ncep_tair_cs.bin
(PID.TID 0000.0001)  MDS_READ_FIELD: opening global file: ncep_tair_cs.bin
(PID.TID 0000.0001)  MDS_READ_FIELD: opening global file: ncep_qair_cs.bin
(PID.TID 0000.0001)  MDS_READ_FIELD: opening global file: ncep_qair_cs.bin
(PID.TID 0000.0001)  MDS_READ_FIELD: opening global file: ncep_downsolar_cs.bin
(PID.TID 0000.0001)  MDS_READ_FIELD: opening global file: ncep_downsolar_cs.bin
(PID.TID 0000.0001)  MDS_READ_FIELD: opening global file: ncep_downlw_cs.bin
(PID.TID 0000.0001)  MDS_READ_FIELD: opening global file: ncep_downlw_cs.bin
(PID.TID 0000.0001)  MDS_READ_FIELD: opening global file: ncep_windspeed_cs.bin
(PID.TID 0000.0001)  MDS_READ_FIELD: opening global file: ncep_windspeed_cs.bin
(PID.TID 0000.0001)  MDS_READ_FIELD: opening global file: ncep_pr_scal_cs.bin
(PID.TID 0000.0001)  MDS_READ_FIELD: opening global file: ncep_pr_scal_cs.bin
S/R EXTERNAL_FIELDS_LOAD: Reading new data:   12    1     36000  3.110400000000E+09
(PID.TID 0000.0001)  MDS_READ_FIELD: opening global file: trenberth_taux.bin
(PID.TID 0000.0001)  MDS_READ_FIELD: opening global file: trenberth_taux.bin
(PID.TID 0000.0001)  MDS_READ_FIELD: opening global file: trenberth_tauy.bin
(PID.TID 0000.0001)  MDS_READ_FIELD: opening global file: trenberth_tauy.bin
(PID.TID 0000.0001)  MDS_READ_FIELD: opening global file: lev_surfT_cs_12m.bin
(PID.TID 0000.0001)  MDS_READ_FIELD: opening global file: lev_surfT_cs_12m.bin
(PID.TID 0000.0001)  MDS_READ_FIELD: opening global file: lev_surfS_cs_12m.bin
(PID.TID 0000.0001)  MDS_READ_FIELD: opening global file: lev_surfS_cs_12m.bin
 cg2d: Sum(rhs),rhsMax =   3.91125628487465E+02  2.29216072944605E+02
(PID.TID 0000.0001)                    cg2d_init_res =    1.95247790702277E+01
(PID.TID 0000.0001)                       cg2d_iters =    73
(PID.TID 0000.0001)                         cg2d_res =    5.23131968283886E-07
(PID.TID 0000.0001) // =======================================================
(PID.TID 0000.0001) // Begin MONITOR dynamic field statistics
(PID.TID 0000.0001) // =======================================================
(PID.TID 0000.0001) %MON time_tsnumber                =                 36001
(PID.TID 0000.0001) %MON time_secondsf                =   3.1104864000000E+09
(PID.TID 0000.0001) %MON dynstat_eta_max              =   7.3364165344678E-01
(PID.TID 0000.0001) %MON dynstat_eta_min              =  -1.1985262895515E+01
(PID.TID 0000.0001) %MON dynstat_eta_mean             =  -5.8173797775803E-01
(PID.TID 0000.0001) %MON dynstat_eta_sd               =   1.7025656009906E+00
(PID.TID 0000.0001) %MON dynstat_eta_del2             =   9.7518393151594E-02
(PID.TID 0000.0001) %MON dynstat_uvel_max             =   1.7283785318513E-01
(PID.TID 0000.0001) %MON dynstat_uvel_min             =  -2.7114247820232E-01
(PID.TID 0000.0001) %MON dynstat_uvel_mean            =  -5.2855026361025E-04
(PID.TID 0000.0001) %MON dynstat_uvel_sd              =   1.2989432141376E-02
(PID.TID 0000.0001) %MON dynstat_uvel_del2            =   1.7920769732282E-03
(PID.TID 0000.0001) %MON dynstat_vvel_max             =   1.9354675235039E-01
(PID.TID 0000.0001) %MON dynstat_vvel_min             =  -2.1061392969841E-01
(PID.TID 0000.0001) %MON dynstat_vvel_mean            =  -4.2479012907651E-04
(PID.TID 0000.0001) %MON dynstat_vvel_sd              =   1.3474904197682E-02
(PID.TID 0000.0001) %MON dynstat_vvel_del2            =   1.8307943717560E-03
(PID.TID 0000.0001) %MON dynstat_wvel_max             =   8.3986354702968E-05
(PID.TID 0000.0001) %MON dynstat_wvel_min             =  -1.7706104098024E-04
(PID.TID 0000.0001) %MON dynstat_wvel_mean            =   1.8069048007340E-09
(PID.TID 0000.0001) %MON dynstat_wvel_sd              =   4.6313300453662E-06
(PID.TID 0000.0001) %MON dynstat_wvel_del2            =   1.1408362510521E-06
(PID.TID 0000.0001) %MON dynstat_theta_max            =   3.0146913789444E+01
(PID.TID 0000.0001) %MON dynstat_theta_min            =  -4.0277854238069E+00
(PID.TID 0000.0001) %MON dynstat_theta_mean           =   3.5028311609509E+00
(PID.TID 0000.0001) %MON dynstat_theta_sd             =   4.7489946445448E+00
(PID.TID 0000.0001) %MON dynstat_theta_del2           =   9.5139785813269E-02
(PID.TID 0000.0001) %MON dynstat_salt_max             =   4.0818099758806E+01
(PID.TID 0000.0001) %MON dynstat_salt_min             =   1.8030808752363E+01
(PID.TID 0000.0001) %MON dynstat_salt_mean            =   3.4756104216540E+01
(PID.TID 0000.0001) %MON dynstat_salt_sd              =   5.1189171890332E-01
(PID.TID 0000.0001) %MON dynstat_salt_del2            =   2.0064722791271E-02
(PID.TID 0000.0001) %MON extforcing_qnet_max          =   7.7549616936275E+02
(PID.TID 0000.0001) %MON extforcing_qnet_min          =  -8.9676147940171E+03
(PID.TID 0000.0001) %MON extforcing_qnet_mean         =  -1.4541762662225E+01
(PID.TID 0000.0001) %MON extforcing_qnet_sd           =   2.3415085870576E+02
(PID.TID 0000.0001) %MON extforcing_qnet_del2         =   2.2006447539641E+01
(PID.TID 0000.0001) %MON extforcing_qsw_max           =   0.0000000000000E+00
(PID.TID 0000.0001) %MON extforcing_qsw_min           =   0.0000000000000E+00
(PID.TID 0000.0001) %MON extforcing_qsw_mean          =   0.0000000000000E+00
(PID.TID 0000.0001) %MON extforcing_qsw_sd            =   0.0000000000000E+00
(PID.TID 0000.0001) %MON extforcing_qsw_del2          =   0.0000000000000E+00
(PID.TID 0000.0001) %MON extforcing_empmr_max         =   2.6554484665544E-05
(PID.TID 0000.0001) %MON extforcing_empmr_min         =  -4.0448513424106E-07
(PID.TID 0000.0001) %MON extforcing_empmr_mean        =   1.5361279285669E-08
(PID.TID 0000.0001) %MON extforcing_empmr_sd          =   5.1033177038309E-07
(PID.TID 0000.0001) %MON extforcing_empmr_del2        =   2.5800836633048E-08
(PID.TID 0000.0001) %MON extforcing_fu_max            =   2.4760613571392E-01
(PID.TID 0000.0001) %MON extforcing_fu_min            =  -1.9244755495625E-01
(PID.TID 0000.0001) %MON extforcing_fu_mean           =  -1.4713067633654E-03
(PID.TID 0000.0001) %MON extforcing_fu_sd             =   6.1390754177136E-02
(PID.TID 0000.0001) %MON extforcing_fu_del2           =   3.3540311124505E-03
(PID.TID 0000.0001) %MON extforcing_fv_max            =   2.5281098043587E-01
(PID.TID 0000.0001) %MON extforcing_fv_min            =  -3.2691992401999E-01
(PID.TID 0000.0001) %MON extforcing_fv_mean           =  -4.7616642545506E-03
(PID.TID 0000.0001) %MON extforcing_fv_sd             =   6.7215108136440E-02
(PID.TID 0000.0001) %MON extforcing_fv_del2           =   3.3046708266940E-03
(PID.TID 0000.0001) %MON advcfl_uvel_max              =   7.6901150034847E-02
(PID.TID 0000.0001) %MON advcfl_vvel_max              =   8.4364302621434E-02
(PID.TID 0000.0001) %MON advcfl_wvel_max              =   8.8668887926684E-02
(PID.TID 0000.0001) %MON advcfl_W_hf_max              =   1.3123583026052E-01
(PID.TID 0000.0001) %MON pe_b_mean                    =  -1.9289699891525E-03
(PID.TID 0000.0001) %MON ke_max                       =   3.6816950962887E-02
(PID.TID 0000.0001) %MON ke_mean                      =   1.6196482659889E-04
(PID.TID 0000.0001) %MON ke_vol                       =   1.3395912252519E+18
(PID.TID 0000.0001) %MON vort_r_min                   =  -1.2135055972857E-06
(PID.TID 0000.0001) %MON vort_r_max                   =   1.3680147959153E-06
(PID.TID 0000.0001) %MON vort_a_mean                  =  -2.0493733748264E-05
(PID.TID 0000.0001) %MON vort_a_sd                    =   7.5054014056509E-05
(PID.TID 0000.0001) %MON vort_p_mean                  =  -2.4719484734270E-05
(PID.TID 0000.0001) %MON vort_p_sd                    =   1.2782267838298E-04
(PID.TID 0000.0001) %MON surfExpan_theta_mean         =   3.3807382351401E-08
(PID.TID 0000.0001) %MON surfExpan_salt_mean          =   7.2594873086075E-10
(PID.TID 0000.0001) // =======================================================
(PID.TID 0000.0001) // End MONITOR dynamic field statistics
(PID.TID 0000.0001) // =======================================================
(PID.TID 0000.0001) // =======================================================
(PID.TID 0000.0001) // Begin MONITOR Therm.SeaIce statistics
(PID.TID 0000.0001) // =======================================================
(PID.TID 0000.0001) %MON thSI_time_sec                =   3.1104864000000E+09
(PID.TID 0000.0001) %MON thSI_Ice_Area_G              =   2.4721857654875E+13
(PID.TID 0000.0001) %MON thSI_Ice_Area_S              =   1.2058936423709E+13
(PID.TID 0000.0001) %MON thSI_Ice_Area_N              =   1.2662921231167E+13
(PID.TID 0000.0001) %MON thSI_IceH_ave_G              =   4.5877287515122E+00
(PID.TID 0000.0001) %MON thSI_IceH_ave_S              =   5.6828044468589E+00
(PID.TID 0000.0001) %MON thSI_IceH_ave_N              =   3.5448850073031E+00
(PID.TID 0000.0001) %MON thSI_IceH_max_S              =   1.0000000000000E+01
(PID.TID 0000.0001) %MON thSI_IceH_max_N              =   1.0000000000000E+01
(PID.TID 0000.0001) %MON thSI_SnwH_ave_G              =   1.0593140463189E+00
(PID.TID 0000.0001) %MON thSI_SnwH_ave_S              =   1.8009602067542E+00
(PID.TID 0000.0001) %MON thSI_SnwH_ave_N              =   3.5304226792669E-01
(PID.TID 0000.0001) %MON thSI_SnwH_max_S              =   4.0985942889861E+00
(PID.TID 0000.0001) %MON thSI_SnwH_max_N              =   4.1095075267918E+00
(PID.TID 0000.0001) %MON thSI_TotEnerg_G              =  -3.8086414504679E+22
(PID.TID 0000.0001) %MON thSI_Tsrf_ave_G              =  -1.6737603452585E+01
(PID.TID 0000.0001) %MON thSI_Tsrf_ave_S              =  -1.0604074778620E-01
(PID.TID 0000.0001) %MON thSI_Tsrf_ave_N              =  -3.2575888602023E+01
(PID.TID 0000.0001) %MON thSI_Tsrf_min_S              =  -5.3043441467213E+00
(PID.TID 0000.0001) %MON thSI_Tsrf_min_N              =  -4.6213990021686E+01
(PID.TID 0000.0001) %MON thSI_Tsrf_max_S              =   0.0000000000000E+00
(PID.TID 0000.0001) %MON thSI_Tsrf_max_N              =  -6.7474323125520E+00
(PID.TID 0000.0001) %MON thSI_Tic1_ave_G              =  -8.3521696114426E+00
(PID.TID 0000.0001) %MON thSI_Tic1_ave_S              =  -5.1622316466937E+00
(PID.TID 0000.0001) %MON thSI_Tic1_ave_N              =  -1.3222045548506E+01
(PID.TID 0000.0001) %MON thSI_Tic1_min_S              =  -1.7216897768510E+01
(PID.TID 0000.0001) %MON thSI_Tic1_min_N              =  -2.0666395739877E+01
(PID.TID 0000.0001) %MON thSI_Tic1_max_S              =  -2.1831092533945E-01
(PID.TID 0000.0001) %MON thSI_Tic1_max_N              =  -5.9497842414135E-01
(PID.TID 0000.0001) %MON thSI_Tic2_ave_G              =  -3.7741677061721E+00
(PID.TID 0000.0001) %MON thSI_Tic2_ave_S              =  -3.1128179622555E+00
(PID.TID 0000.0001) %MON thSI_Tic2_ave_N              =  -4.7838084074877E+00
(PID.TID 0000.0001) %MON thSI_Tic2_min_S              =  -8.8094598422842E+00
(PID.TID 0000.0001) %MON thSI_Tic2_min_N              =  -7.4380986141887E+00
(PID.TID 0000.0001) %MON thSI_Tic2_max_S              =  -1.1539915958877E+00
(PID.TID 0000.0001) %MON thSI_Tic2_max_N              =  -1.1753502729289E+00
(PID.TID 0000.0001) // =======================================================
(PID.TID 0000.0001) // End MONITOR Therm.SeaIce statistics
(PID.TID 0000.0001) // =======================================================
 Computing Diagnostic #  23  ETAN         Counter:       1   Parms: SM      M1      
 Computing Diagnostic #  75  oceFWflx     Counter:       1   Parms: SM      U1      
 Computing Diagnostic #  26  THETA        Counter:       1   Parms: SM      MR      
 Computing Diagnostic #  27  SALT         Counter:       1   Parms: SM      MR      
 Compute Stats, Diag. #  71  oceTAUX   vol(  0 ): 3.457E+14  Parms: SU      U1      
 Compute Stats, Diag. #  72  oceTAUY   vol(  0 ): 3.478E+14  Parms: SV      U1      
 Compute Stats, Diag. #  80  TRELAX    vol(  0 ): 3.639E+14  Parms: SM      U1      
 Compute Stats, Diag. #  81  SRELAX    vol(  0 ): 3.639E+14  Parms: SM      U1      
 Compute Stats, Diag. #  82  surForcT  vol(  0 ): 3.639E+14  Parms: SM      U1      
 Compute Stats, Diag. #  83  surForcS  vol(  0 ): 3.639E+14  Parms: SM      U1      
 Compute Stats, Diag. #  84  TFLUX     vol(  0 ): 3.639E+14  Parms: SM      U1      
 Compute Stats, Diag. #  85  SFLUX     vol(  0 ): 3.639E+14  Parms: SM      U1      
 Compute Stats, Diag. #  77  oceQnet   vol(  0 ): 3.639E+14  Parms: SM      U1      
 Compute Stats, Diag. #  76  oceSflux  vol(  0 ): 3.639E+14  Parms: SM      U1      
 Compute Stats, Diag. #  75  oceFWflx  vol(  0 ): 3.639E+14  Parms: SM      U1      
 cg2d: Sum(rhs),rhsMax =   3.91134326721073E+02  2.29254718987850E+02
(PID.TID 0000.0001)                    cg2d_init_res =    2.76310032409084E+00
(PID.TID 0000.0001)                       cg2d_iters =    70
(PID.TID 0000.0001)                         cg2d_res =    4.77118535134662E-07
(PID.TID 0000.0001) // =======================================================
(PID.TID 0000.0001) // Begin MONITOR dynamic field statistics
(PID.TID 0000.0001) // =======================================================
(PID.TID 0000.0001) %MON time_tsnumber                =                 36002
(PID.TID 0000.0001) %MON time_secondsf                =   3.1105728000000E+09
(PID.TID 0000.0001) %MON dynstat_eta_max              =   7.3228517916260E-01
(PID.TID 0000.0001) %MON dynstat_eta_min              =  -1.1983659713031E+01
(PID.TID 0000.0001) %MON dynstat_eta_mean             =  -5.8175091501517E-01
(PID.TID 0000.0001) %MON dynstat_eta_sd               =   1.7020048416200E+00
(PID.TID 0000.0001) %MON dynstat_eta_del2             =   9.7561533952545E-02
(PID.TID 0000.0001) %MON dynstat_uvel_max             =   1.7327221394910E-01
(PID.TID 0000.0001) %MON dynstat_uvel_min             =  -2.7081468434303E-01
(PID.TID 0000.0001) %MON dynstat_uvel_mean            =  -5.2816286521692E-04
(PID.TID 0000.0001) %MON dynstat_uvel_sd              =   1.2989176492263E-02
(PID.TID 0000.0001) %MON dynstat_uvel_del2            =   1.7920841633883E-03
(PID.TID 0000.0001) %MON dynstat_vvel_max             =   1.9396956880385E-01
(PID.TID 0000.0001) %MON dynstat_vvel_min             =  -2.1072476121468E-01
(PID.TID 0000.0001) %MON dynstat_vvel_mean            =  -4.2478454865499E-04
(PID.TID 0000.0001) %MON dynstat_vvel_sd              =   1.3476966041152E-02
(PID.TID 0000.0001) %MON dynstat_vvel_del2            =   1.8296513171416E-03
(PID.TID 0000.0001) %MON dynstat_wvel_max             =   8.3878486794746E-05
(PID.TID 0000.0001) %MON dynstat_wvel_min             =  -1.7741494747370E-04
(PID.TID 0000.0001) %MON dynstat_wvel_mean            =  -1.1851964736468E-09
(PID.TID 0000.0001) %MON dynstat_wvel_sd              =   4.6275405702594E-06
(PID.TID 0000.0001) %MON dynstat_wvel_del2            =   1.1369671853720E-06
(PID.TID 0000.0001) %MON dynstat_theta_max            =   3.0130334922485E+01
(PID.TID 0000.0001) %MON dynstat_theta_min            =  -3.3553034921021E+00
(PID.TID 0000.0001) %MON dynstat_theta_mean           =   3.5028860361083E+00
(PID.TID 0000.0001) %MON dynstat_theta_sd             =   4.7490544505198E+00
(PID.TID 0000.0001) %MON dynstat_theta_del2           =   9.5217273286887E-02
(PID.TID 0000.0001) %MON dynstat_salt_max             =   4.0820622897926E+01
(PID.TID 0000.0001) %MON dynstat_salt_min             =   1.8031424297812E+01
(PID.TID 0000.0001) %MON dynstat_salt_mean            =   3.4756104700247E+01
(PID.TID 0000.0001) %MON dynstat_salt_sd              =   5.1188369008883E-01
(PID.TID 0000.0001) %MON dynstat_salt_del2            =   2.0058994953454E-02
(PID.TID 0000.0001) %MON extforcing_qnet_max          =   7.7879844478111E+02
(PID.TID 0000.0001) %MON extforcing_qnet_min          =  -2.4011430029414E+02
(PID.TID 0000.0001) %MON extforcing_qnet_mean         =  -4.4693826136634E+00
(PID.TID 0000.0001) %MON extforcing_qnet_sd           =   1.2144259650770E+02
(PID.TID 0000.0001) %MON extforcing_qnet_del2         =   1.2307123808547E+01
(PID.TID 0000.0001) %MON extforcing_qsw_max           =   0.0000000000000E+00
(PID.TID 0000.0001) %MON extforcing_qsw_min           =   0.0000000000000E+00
(PID.TID 0000.0001) %MON extforcing_qsw_mean          =   0.0000000000000E+00
(PID.TID 0000.0001) %MON extforcing_qsw_sd            =   0.0000000000000E+00
(PID.TID 0000.0001) %MON extforcing_qsw_del2          =   0.0000000000000E+00
(PID.TID 0000.0001) %MON extforcing_empmr_max         =   5.9641914107254E-07
(PID.TID 0000.0001) %MON extforcing_empmr_min         =  -3.9953529773005E-07
(PID.TID 0000.0001) %MON extforcing_empmr_mean        =   1.5497755946579E-10
(PID.TID 0000.0001) %MON extforcing_empmr_sd          =   5.5655128937808E-08
(PID.TID 0000.0001) %MON extforcing_empmr_del2        =   8.8685019457457E-09
(PID.TID 0000.0001) %MON extforcing_fu_max            =   2.4755808644372E-01
(PID.TID 0000.0001) %MON extforcing_fu_min            =  -1.9021211852269E-01
(PID.TID 0000.0001) %MON extforcing_fu_mean           =  -1.4735151054190E-03
(PID.TID 0000.0001) %MON extforcing_fu_sd             =   6.1360460766519E-02
(PID.TID 0000.0001) %MON extforcing_fu_del2           =   3.3527300417974E-03
(PID.TID 0000.0001) %MON extforcing_fv_max            =   2.5549422200851E-01
(PID.TID 0000.0001) %MON extforcing_fv_min            =  -3.2770782795392E-01
(PID.TID 0000.0001) %MON extforcing_fv_mean           =  -4.8228167834909E-03
(PID.TID 0000.0001) %MON extforcing_fv_sd             =   6.7376925509796E-02
(PID.TID 0000.0001) %MON extforcing_fv_del2           =   3.3051312271693E-03
(PID.TID 0000.0001) %MON advcfl_uvel_max              =   7.6808181478534E-02
(PID.TID 0000.0001) %MON advcfl_vvel_max              =   8.4548602356765E-02
(PID.TID 0000.0001) %MON advcfl_wvel_max              =   5.7843967780103E-02
(PID.TID 0000.0001) %MON advcfl_W_hf_max              =   1.3061251583189E-01
(PID.TID 0000.0001) %MON pe_b_mean                    =  -1.9275893270871E-03
(PID.TID 0000.0001) %MON ke_max                       =   3.6710232204855E-02
(PID.TID 0000.0001) %MON ke_mean                      =   1.6198737888351E-04
(PID.TID 0000.0001) %MON ke_vol                       =   1.3395907586279E+18
(PID.TID 0000.0001) %MON vort_r_min                   =  -1.2169536268238E-06
(PID.TID 0000.0001) %MON vort_r_max                   =   1.3705438292403E-06
(PID.TID 0000.0001) %MON vort_a_mean                  =  -2.0493733748264E-05
(PID.TID 0000.0001) %MON vort_a_sd                    =   7.5054013914536E-05
(PID.TID 0000.0001) %MON vort_p_mean                  =  -2.4719490954444E-05
(PID.TID 0000.0001) %MON vort_p_sd                    =   1.2782282351276E-04
(PID.TID 0000.0001) %MON surfExpan_theta_mean         =   8.3701116819927E-08
(PID.TID 0000.0001) %MON surfExpan_salt_mean          =   1.8841058846897E-08
(PID.TID 0000.0001) // =======================================================
(PID.TID 0000.0001) // End MONITOR dynamic field statistics
(PID.TID 0000.0001) // =======================================================
(PID.TID 0000.0001) // =======================================================
(PID.TID 0000.0001) // Begin MONITOR Therm.SeaIce statistics
(PID.TID 0000.0001) // =======================================================
(PID.TID 0000.0001) %MON thSI_time_sec                =   3.1105728000000E+09
(PID.TID 0000.0001) %MON thSI_Ice_Area_G              =   2.4702005157119E+13
(PID.TID 0000.0001) %MON thSI_Ice_Area_S              =   1.2004605558097E+13
(PID.TID 0000.0001) %MON thSI_Ice_Area_N              =   1.2697399599022E+13
(PID.TID 0000.0001) %MON thSI_IceH_ave_G              =   4.5920998765637E+00
(PID.TID 0000.0001) %MON thSI_IceH_ave_S              =   5.7010703798820E+00
(PID.TID 0000.0001) %MON thSI_IceH_ave_N              =   3.5436368929363E+00
(PID.TID 0000.0001) %MON thSI_IceH_max_S              =   1.0000000000000E+01
(PID.TID 0000.0001) %MON thSI_IceH_max_N              =   1.0000000000000E+01
(PID.TID 0000.0001) %MON thSI_SnwH_ave_G              =   1.0555886641700E+00
(PID.TID 0000.0001) %MON thSI_SnwH_ave_S              =   1.7967686322130E+00
(PID.TID 0000.0001) %MON thSI_SnwH_ave_N              =   3.5484887138570E-01
(PID.TID 0000.0001) %MON thSI_SnwH_max_S              =   4.0952683498710E+00
(PID.TID 0000.0001) %MON thSI_SnwH_max_N              =   4.1020889037136E+00
(PID.TID 0000.0001) %MON thSI_TotEnerg_G              =  -3.8083192170441E+22
(PID.TID 0000.0001) %MON thSI_Tsrf_ave_G              =  -1.6863959117195E+01
(PID.TID 0000.0001) %MON thSI_Tsrf_ave_S              =  -1.2620844852631E-01
(PID.TID 0000.0001) %MON thSI_Tsrf_ave_N              =  -3.2688466579543E+01
(PID.TID 0000.0001) %MON thSI_Tsrf_min_S              =  -5.3207170352752E+00
(PID.TID 0000.0001) %MON thSI_Tsrf_min_N              =  -4.6355041687305E+01
(PID.TID 0000.0001) %MON thSI_Tsrf_max_S              =   0.0000000000000E+00
(PID.TID 0000.0001) %MON thSI_Tsrf_max_N              =  -7.6783593043140E+00
(PID.TID 0000.0001) %MON thSI_Tic1_ave_G              =  -8.3764034953653E+00
(PID.TID 0000.0001) %MON thSI_Tic1_ave_S              =  -5.1378498602736E+00
(PID.TID 0000.0001) %MON thSI_Tic1_ave_N              =  -1.3302369260620E+01
(PID.TID 0000.0001) %MON thSI_Tic1_min_S              =  -1.6689794567922E+01
(PID.TID 0000.0001) %MON thSI_Tic1_min_N              =  -2.0726706593009E+01
(PID.TID 0000.0001) %MON thSI_Tic1_max_S              =  -2.2651862247147E-01
(PID.TID 0000.0001) %MON thSI_Tic1_max_N              =  -6.4312968843004E-01
(PID.TID 0000.0001) %MON thSI_Tic2_ave_G              =  -3.7787914255894E+00
(PID.TID 0000.0001) %MON thSI_Tic2_ave_S              =  -3.1003918873300E+00
(PID.TID 0000.0001) %MON thSI_Tic2_ave_N              =  -4.8106634515519E+00
(PID.TID 0000.0001) %MON thSI_Tic2_min_S              =  -8.7485368036317E+00
(PID.TID 0000.0001) %MON thSI_Tic2_min_N              =  -7.4594173074705E+00
(PID.TID 0000.0001) %MON thSI_Tic2_max_S              =  -1.2642148384105E+00
(PID.TID 0000.0001) %MON thSI_Tic2_max_N              =  -1.1939219607007E+00
(PID.TID 0000.0001) // =======================================================
(PID.TID 0000.0001) // End MONITOR Therm.SeaIce statistics
(PID.TID 0000.0001) // =======================================================
 Computing Diagnostic #  23  ETAN         Counter:       1   Parms: SM      M1      
 Compute Stats, Diag. #  23  ETAN      vol(  0 ): 3.639E+14  Parms: SM      M1      
 Compute Stats, Diag. #  26  THETA     vol(  0 ): 1.340E+18  Parms: SM      MR      
 Compute Stats, Diag. #  27  SALT      vol(  0 ): 1.340E+18  Parms: SM      MR      
 cg2d: Sum(rhs),rhsMax =   3.91319246258083E+02  2.29299125345055E+02
(PID.TID 0000.0001)                    cg2d_init_res =    6.09383660729616E+00
(PID.TID 0000.0001)                       cg2d_iters =    70
(PID.TID 0000.0001)                         cg2d_res =    5.11885719895831E-07
(PID.TID 0000.0001) // =======================================================
(PID.TID 0000.0001) // Begin MONITOR dynamic field statistics
(PID.TID 0000.0001) // =======================================================
(PID.TID 0000.0001) %MON time_tsnumber                =                 36003
(PID.TID 0000.0001) %MON time_secondsf                =   3.1106592000000E+09
(PID.TID 0000.0001) %MON dynstat_eta_max              =   7.3098014292780E-01
(PID.TID 0000.0001) %MON dynstat_eta_min              =  -1.1981940937636E+01
(PID.TID 0000.0001) %MON dynstat_eta_mean             =  -5.8202595379983E-01
(PID.TID 0000.0001) %MON dynstat_eta_sd               =   1.7024267075171E+00
(PID.TID 0000.0001) %MON dynstat_eta_del2             =   9.7831085401262E-02
(PID.TID 0000.0001) %MON dynstat_uvel_max             =   1.7365120851407E-01
(PID.TID 0000.0001) %MON dynstat_uvel_min             =  -2.7047560885132E-01
(PID.TID 0000.0001) %MON dynstat_uvel_mean            =  -5.2768354324328E-04
(PID.TID 0000.0001) %MON dynstat_uvel_sd              =   1.2988686071519E-02
(PID.TID 0000.0001) %MON dynstat_uvel_del2            =   1.7920247427570E-03
(PID.TID 0000.0001) %MON dynstat_vvel_max             =   1.9433339772911E-01
(PID.TID 0000.0001) %MON dynstat_vvel_min             =  -2.1082782338605E-01
(PID.TID 0000.0001) %MON dynstat_vvel_mean            =  -4.2457687746097E-04
(PID.TID 0000.0001) %MON dynstat_vvel_sd              =   1.3479060831125E-02
(PID.TID 0000.0001) %MON dynstat_vvel_del2            =   1.8285029926755E-03
(PID.TID 0000.0001) %MON dynstat_wvel_max             =   8.3855420277258E-05
(PID.TID 0000.0001) %MON dynstat_wvel_min             =  -1.7771365501692E-04
(PID.TID 0000.0001) %MON dynstat_wvel_mean            =  -6.1383940729179E-10
(PID.TID 0000.0001) %MON dynstat_wvel_sd              =   4.6278541330430E-06
(PID.TID 0000.0001) %MON dynstat_wvel_del2            =   1.1375441640482E-06
(PID.TID 0000.0001) %MON dynstat_theta_max            =   3.0113090999203E+01
(PID.TID 0000.0001) %MON dynstat_theta_min            =  -3.3518890247444E+00
(PID.TID 0000.0001) %MON dynstat_theta_mean           =   3.5029482782157E+00
(PID.TID 0000.0001) %MON dynstat_theta_sd             =   4.7491111291303E+00
(PID.TID 0000.0001) %MON dynstat_theta_del2           =   9.5244155132161E-02
(PID.TID 0000.0001) %MON dynstat_salt_max             =   4.0822997009107E+01
(PID.TID 0000.0001) %MON dynstat_salt_min             =   1.8032025862681E+01
(PID.TID 0000.0001) %MON dynstat_salt_mean            =   3.4756107839515E+01
(PID.TID 0000.0001) %MON dynstat_salt_sd              =   5.1186995814076E-01
(PID.TID 0000.0001) %MON dynstat_salt_del2            =   2.0064855596389E-02
(PID.TID 0000.0001) %MON extforcing_qnet_max          =   7.8158937184713E+02
(PID.TID 0000.0001) %MON extforcing_qnet_min          =  -3.0899403840311E+03
(PID.TID 0000.0001) %MON extforcing_qnet_mean         =  -5.5460926666993E+00
(PID.TID 0000.0001) %MON extforcing_qnet_sd           =   1.3215364115864E+02
(PID.TID 0000.0001) %MON extforcing_qnet_del2         =   1.3471246409458E+01
(PID.TID 0000.0001) %MON extforcing_qsw_max           =   0.0000000000000E+00
(PID.TID 0000.0001) %MON extforcing_qsw_min           =   0.0000000000000E+00
(PID.TID 0000.0001) %MON extforcing_qsw_mean          =   0.0000000000000E+00
(PID.TID 0000.0001) %MON extforcing_qsw_sd            =   0.0000000000000E+00
(PID.TID 0000.0001) %MON extforcing_qsw_del2          =   0.0000000000000E+00
(PID.TID 0000.0001) %MON extforcing_empmr_max         =   9.1469285246177E-06
(PID.TID 0000.0001) %MON extforcing_empmr_min         =  -3.9326691671743E-07
(PID.TID 0000.0001) %MON extforcing_empmr_mean        =   3.2947354412372E-09
(PID.TID 0000.0001) %MON extforcing_empmr_sd          =   1.6504192721677E-07
(PID.TID 0000.0001) %MON extforcing_empmr_del2        =   1.2373741387674E-08
(PID.TID 0000.0001) %MON extforcing_fu_max            =   2.4751003717351E-01
(PID.TID 0000.0001) %MON extforcing_fu_min            =  -1.9188096691302E-01
(PID.TID 0000.0001) %MON extforcing_fu_mean           =  -1.4757232523580E-03
(PID.TID 0000.0001) %MON extforcing_fu_sd             =   6.1342749048150E-02
(PID.TID 0000.0001) %MON extforcing_fu_del2           =   3.3537349379800E-03
(PID.TID 0000.0001) %MON extforcing_fv_max            =   2.5817746358114E-01
(PID.TID 0000.0001) %MON extforcing_fv_min            =  -3.2849573188785E-01
(PID.TID 0000.0001) %MON extforcing_fv_mean           =  -4.8839697099313E-03
(PID.TID 0000.0001) %MON extforcing_fv_sd             =   6.7547018222319E-02
(PID.TID 0000.0001) %MON extforcing_fv_del2           =   3.3071746233448E-03
(PID.TID 0000.0001) %MON advcfl_uvel_max              =   7.6712013237268E-02
(PID.TID 0000.0001) %MON advcfl_vvel_max              =   8.4707190259589E-02
(PID.TID 0000.0001) %MON advcfl_wvel_max              =   5.7941357711177E-02
(PID.TID 0000.0001) %MON advcfl_W_hf_max              =   1.2991684452378E-01
(PID.TID 0000.0001) %MON pe_b_mean                    =  -1.9306584224848E-03
(PID.TID 0000.0001) %MON ke_max                       =   3.6600833445612E-02
(PID.TID 0000.0001) %MON ke_mean                      =   1.6200741147690E-04
(PID.TID 0000.0001) %MON ke_vol                       =   1.3395907539202E+18
(PID.TID 0000.0001) %MON vort_r_min                   =  -1.2207064849952E-06
(PID.TID 0000.0001) %MON vort_r_max                   =   1.3733576086075E-06
(PID.TID 0000.0001) %MON vort_a_mean                  =  -2.0493733748264E-05
(PID.TID 0000.0001) %MON vort_a_sd                    =   7.5054013783124E-05
(PID.TID 0000.0001) %MON vort_p_mean                  =  -2.4719490526606E-05
(PID.TID 0000.0001) %MON vort_p_sd                    =   1.2782282822813E-04
(PID.TID 0000.0001) %MON surfExpan_theta_mean         =   7.1221499722440E-08
(PID.TID 0000.0001) %MON surfExpan_salt_mean          =   1.4792006086261E-08
(PID.TID 0000.0001) // =======================================================
(PID.TID 0000.0001) // End MONITOR dynamic field statistics
(PID.TID 0000.0001) // =======================================================
(PID.TID 0000.0001) // =======================================================
(PID.TID 0000.0001) // Begin MONITOR Therm.SeaIce statistics
(PID.TID 0000.0001) // =======================================================
(PID.TID 0000.0001) %MON thSI_time_sec                =   3.1106592000000E+09
(PID.TID 0000.0001) %MON thSI_Ice_Area_G              =   2.4680995209500E+13
(PID.TID 0000.0001) %MON thSI_Ice_Area_S              =   1.1952602661521E+13
(PID.TID 0000.0001) %MON thSI_Ice_Area_N              =   1.2728392547979E+13
(PID.TID 0000.0001) %MON thSI_IceH_ave_G              =   4.6010477280313E+00
(PID.TID 0000.0001) %MON thSI_IceH_ave_S              =   5.7186664134768E+00
(PID.TID 0000.0001) %MON thSI_IceH_ave_N              =   3.5515474063003E+00
(PID.TID 0000.0001) %MON thSI_IceH_max_S              =   1.0000000000000E+01
(PID.TID 0000.0001) %MON thSI_IceH_max_N              =   1.0000000000000E+01
(PID.TID 0000.0001) %MON thSI_SnwH_ave_G              =   1.0521411436264E+00
(PID.TID 0000.0001) %MON thSI_SnwH_ave_S              =   1.7925888149622E+00
(PID.TID 0000.0001) %MON thSI_SnwH_ave_N              =   3.5682342980163E-01
(PID.TID 0000.0001) %MON thSI_SnwH_max_S              =   4.0939886000897E+00
(PID.TID 0000.0001) %MON thSI_SnwH_max_N              =   4.1023323071030E+00
(PID.TID 0000.0001) %MON thSI_TotEnerg_G              =  -3.8113340177162E+22
(PID.TID 0000.0001) %MON thSI_Tsrf_ave_G              =  -1.6942001723894E+01
(PID.TID 0000.0001) %MON thSI_Tsrf_ave_S              =  -1.0898631832927E-01
(PID.TID 0000.0001) %MON thSI_Tsrf_ave_N              =  -3.2749052298392E+01
(PID.TID 0000.0001) %MON thSI_Tsrf_min_S              =  -5.3370576573390E+00
(PID.TID 0000.0001) %MON thSI_Tsrf_min_N              =  -4.6469445815269E+01
(PID.TID 0000.0001) %MON thSI_Tsrf_max_S              =   0.0000000000000E+00
(PID.TID 0000.0001) %MON thSI_Tsrf_max_N              =  -1.8310281120032E+00
(PID.TID 0000.0001) %MON thSI_Tic1_ave_G              =  -8.3956740769547E+00
(PID.TID 0000.0001) %MON thSI_Tic1_ave_S              =  -5.1167947104978E+00
(PID.TID 0000.0001) %MON thSI_Tic1_ave_N              =  -1.3353502675358E+01
(PID.TID 0000.0001) %MON thSI_Tic1_min_S              =  -1.6541939737997E+01
(PID.TID 0000.0001) %MON thSI_Tic1_min_N              =  -2.0804073017119E+01
(PID.TID 0000.0001) %MON thSI_Tic1_max_S              =  -2.1750032602548E-01
(PID.TID 0000.0001) %MON thSI_Tic1_max_N              =  -6.5772142546384E-01
(PID.TID 0000.0001) %MON thSI_Tic2_ave_G              =  -3.7887849559936E+00
(PID.TID 0000.0001) %MON thSI_Tic2_ave_S              =  -3.0968540882585E+00
(PID.TID 0000.0001) %MON thSI_Tic2_ave_N              =  -4.8350188245733E+00
(PID.TID 0000.0001) %MON thSI_Tic2_min_S              =  -8.7237674264693E+00
(PID.TID 0000.0001) %MON thSI_Tic2_min_N              =  -7.4973446282919E+00
(PID.TID 0000.0001) %MON thSI_Tic2_max_S              =  -1.2267372081391E+00
(PID.TID 0000.0001) %MON thSI_Tic2_max_N              =  -1.2119327409985E+00
(PID.TID 0000.0001) // =======================================================
(PID.TID 0000.0001) // End MONITOR Therm.SeaIce statistics
(PID.TID 0000.0001) // =======================================================
 cg2d: Sum(rhs),rhsMax =   3.91432931522414E+02  2.29353778407146E+02
(PID.TID 0000.0001)                    cg2d_init_res =    4.26504581496503E+00
(PID.TID 0000.0001)                       cg2d_iters =    70
(PID.TID 0000.0001)                         cg2d_res =    4.95885371129994E-07
(PID.TID 0000.0001) // =======================================================
(PID.TID 0000.0001) // Begin MONITOR dynamic field statistics
(PID.TID 0000.0001) // =======================================================
(PID.TID 0000.0001) %MON time_tsnumber                =                 36004
(PID.TID 0000.0001) %MON time_secondsf                =   3.1107456000000E+09
(PID.TID 0000.0001) %MON dynstat_eta_max              =   7.2971435177647E-01
(PID.TID 0000.0001) %MON dynstat_eta_min              =  -1.1980155410215E+01
(PID.TID 0000.0001) %MON dynstat_eta_mean             =  -5.8219504278545E-01
(PID.TID 0000.0001) %MON dynstat_eta_sd               =   1.7024613921835E+00
(PID.TID 0000.0001) %MON dynstat_eta_del2             =   9.8026319548171E-02
(PID.TID 0000.0001) %MON dynstat_uvel_max             =   1.7397162255820E-01
(PID.TID 0000.0001) %MON dynstat_uvel_min             =  -2.7012530220740E-01
(PID.TID 0000.0001) %MON dynstat_uvel_mean            =  -5.2717768972085E-04
(PID.TID 0000.0001) %MON dynstat_uvel_sd              =   1.2988015867627E-02
(PID.TID 0000.0001) %MON dynstat_uvel_del2            =   1.7918815838198E-03
(PID.TID 0000.0001) %MON dynstat_vvel_max             =   1.9463706136658E-01
(PID.TID 0000.0001) %MON dynstat_vvel_min             =  -2.1092331718787E-01
(PID.TID 0000.0001) %MON dynstat_vvel_mean            =  -4.2424987382445E-04
(PID.TID 0000.0001) %MON dynstat_vvel_sd              =   1.3481120838796E-02
(PID.TID 0000.0001) %MON dynstat_vvel_del2            =   1.8274706679293E-03
(PID.TID 0000.0001) %MON dynstat_wvel_max             =   8.3859107471685E-05
(PID.TID 0000.0001) %MON dynstat_wvel_min             =  -1.7794582856335E-04
(PID.TID 0000.0001) %MON dynstat_wvel_mean            =  -8.0750917088841E-10
(PID.TID 0000.0001) %MON dynstat_wvel_sd              =   4.6274825622177E-06
(PID.TID 0000.0001) %MON dynstat_wvel_del2            =   1.1369171253008E-06
(PID.TID 0000.0001) %MON dynstat_theta_max            =   3.0095304081023E+01
(PID.TID 0000.0001) %MON dynstat_theta_min            =  -3.3484346561534E+00
(PID.TID 0000.0001) %MON dynstat_theta_mean           =   3.5030078168692E+00
(PID.TID 0000.0001) %MON dynstat_theta_sd             =   4.7491763297525E+00
(PID.TID 0000.0001) %MON dynstat_theta_del2           =   9.5268765515759E-02
(PID.TID 0000.0001) %MON dynstat_salt_max             =   4.0825224244735E+01
(PID.TID 0000.0001) %MON dynstat_salt_min             =   1.8032614601288E+01
(PID.TID 0000.0001) %MON dynstat_salt_mean            =   3.4756110018599E+01
(PID.TID 0000.0001) %MON dynstat_salt_sd              =   5.1185882148786E-01
(PID.TID 0000.0001) %MON dynstat_salt_del2            =   2.0070340442076E-02
(PID.TID 0000.0001) %MON extforcing_qnet_max          =   7.8348121552601E+02
(PID.TID 0000.0001) %MON extforcing_qnet_min          =  -1.7555053985323E+03
(PID.TID 0000.0001) %MON extforcing_qnet_mean         =  -5.1081858319702E+00
(PID.TID 0000.0001) %MON extforcing_qnet_sd           =   1.2467076091818E+02
(PID.TID 0000.0001) %MON extforcing_qnet_del2         =   1.3009021633867E+01
(PID.TID 0000.0001) %MON extforcing_qsw_max           =   0.0000000000000E+00
(PID.TID 0000.0001) %MON extforcing_qsw_min           =   0.0000000000000E+00
(PID.TID 0000.0001) %MON extforcing_qsw_mean          =   0.0000000000000E+00
(PID.TID 0000.0001) %MON extforcing_qsw_sd            =   0.0000000000000E+00
(PID.TID 0000.0001) %MON extforcing_qsw_del2          =   0.0000000000000E+00
(PID.TID 0000.0001) %MON extforcing_empmr_max         =   5.1962280256875E-06
(PID.TID 0000.0001) %MON extforcing_empmr_min         =  -3.8551326249620E-07
(PID.TID 0000.0001) %MON extforcing_empmr_mean        =   2.0255451402910E-09
(PID.TID 0000.0001) %MON extforcing_empmr_sd          =   1.0357408034393E-07
(PID.TID 0000.0001) %MON extforcing_empmr_del2        =   1.0802509932261E-08
(PID.TID 0000.0001) %MON extforcing_fu_max            =   2.4746198790331E-01
(PID.TID 0000.0001) %MON extforcing_fu_min            =  -1.9354981530334E-01
(PID.TID 0000.0001) %MON extforcing_fu_mean           =  -1.4779314310579E-03
(PID.TID 0000.0001) %MON extforcing_fu_sd             =   6.1337629682741E-02
(PID.TID 0000.0001) %MON extforcing_fu_del2           =   3.3576808392742E-03
(PID.TID 0000.0001) %MON extforcing_fv_max            =   2.6086070515377E-01
(PID.TID 0000.0001) %MON extforcing_fv_min            =  -3.2928363582178E-01
(PID.TID 0000.0001) %MON extforcing_fv_mean           =  -4.9451226427917E-03
(PID.TID 0000.0001) %MON extforcing_fv_sd             =   6.7725323840505E-02
(PID.TID 0000.0001) %MON extforcing_fv_del2           =   3.3110159854204E-03
(PID.TID 0000.0001) %MON advcfl_uvel_max              =   7.6612659628196E-02
(PID.TID 0000.0001) %MON advcfl_vvel_max              =   8.4839552961080E-02
(PID.TID 0000.0001) %MON advcfl_wvel_max              =   5.8017055048578E-02
(PID.TID 0000.0001) %MON advcfl_W_hf_max              =   1.2915071368074E-01
(PID.TID 0000.0001) %MON pe_b_mean                    =  -1.9320871876941E-03
(PID.TID 0000.0001) %MON ke_max                       =   3.6488853896337E-02
(PID.TID 0000.0001) %MON ke_mean                      =   1.6202481322495E-04
(PID.TID 0000.0001) %MON ke_vol                       =   1.3395906538373E+18
(PID.TID 0000.0001) %MON vort_r_min                   =  -1.2247368526220E-06
(PID.TID 0000.0001) %MON vort_r_max                   =   1.3764054456634E-06
(PID.TID 0000.0001) %MON vort_a_mean                  =  -2.0493733748264E-05
(PID.TID 0000.0001) %MON vort_a_sd                    =   7.5054013665946E-05
(PID.TID 0000.0001) %MON vort_p_mean                  =  -2.4719491485990E-05
(PID.TID 0000.0001) %MON vort_p_sd                    =   1.2782286137160E-04
(PID.TID 0000.0001) %MON surfExpan_theta_mean         =   7.7337332894197E-08
(PID.TID 0000.0001) %MON surfExpan_salt_mean          =   1.6672357535250E-08
(PID.TID 0000.0001) // =======================================================
(PID.TID 0000.0001) // End MONITOR dynamic field statistics
(PID.TID 0000.0001) // =======================================================
(PID.TID 0000.0001) // =======================================================
(PID.TID 0000.0001) // Begin MONITOR Therm.SeaIce statistics
(PID.TID 0000.0001) // =======================================================
(PID.TID 0000.0001) %MON thSI_time_sec                =   3.1107456000000E+09
(PID.TID 0000.0001) %MON thSI_Ice_Area_G              =   2.4668180652065E+13
(PID.TID 0000.0001) %MON thSI_Ice_Area_S              =   1.1903282524513E+13
(PID.TID 0000.0001) %MON thSI_Ice_Area_N              =   1.2764898127552E+13
(PID.TID 0000.0001) %MON thSI_IceH_ave_G              =   4.6066292340683E+00
(PID.TID 0000.0001) %MON thSI_IceH_ave_S              =   5.7352576083437E+00
(PID.TID 0000.0001) %MON thSI_IceH_ave_N              =   3.5541819469893E+00
(PID.TID 0000.0001) %MON thSI_IceH_max_S              =   1.0000000000000E+01
(PID.TID 0000.0001) %MON thSI_IceH_max_N              =   1.0000000000000E+01
(PID.TID 0000.0001) %MON thSI_SnwH_ave_G              =   1.0484623838388E+00
(PID.TID 0000.0001) %MON thSI_SnwH_ave_S              =   1.7882113958189E+00
(PID.TID 0000.0001) %MON thSI_SnwH_ave_N              =   3.5864555969794E-01
(PID.TID 0000.0001) %MON thSI_SnwH_max_S              =   4.0939942673002E+00
(PID.TID 0000.0001) %MON thSI_SnwH_max_N              =   4.1021903942990E+00
(PID.TID 0000.0001) %MON thSI_TotEnerg_G              =  -3.8129187414442E+22
(PID.TID 0000.0001) %MON thSI_Tsrf_ave_G              =  -1.7033852871925E+01
(PID.TID 0000.0001) %MON thSI_Tsrf_ave_S              =  -1.2959177080144E-01
(PID.TID 0000.0001) %MON thSI_Tsrf_ave_N              =  -3.2797096240121E+01
(PID.TID 0000.0001) %MON thSI_Tsrf_min_S              =  -5.3533619613956E+00
(PID.TID 0000.0001) %MON thSI_Tsrf_min_N              =  -4.6583877731654E+01
(PID.TID 0000.0001) %MON thSI_Tsrf_max_S              =   0.0000000000000E+00
(PID.TID 0000.0001) %MON thSI_Tsrf_max_N              =  -5.8028464106235E+00
(PID.TID 0000.0001) %MON thSI_Tic1_ave_G              =  -8.4149107969067E+00
(PID.TID 0000.0001) %MON thSI_Tic1_ave_S              =  -5.0900261939510E+00
(PID.TID 0000.0001) %MON thSI_Tic1_ave_N              =  -1.3418011429937E+01
(PID.TID 0000.0001) %MON thSI_Tic1_min_S              =  -1.6056754933000E+01
(PID.TID 0000.0001) %MON thSI_Tic1_min_N              =  -2.0878819474550E+01
(PID.TID 0000.0001) %MON thSI_Tic1_max_S              =  -1.9814646263806E-01
(PID.TID 0000.0001) %MON thSI_Tic1_max_N              =  -6.7292403751227E-01
(PID.TID 0000.0001) %MON thSI_Tic2_ave_G              =  -3.7998560437833E+00
(PID.TID 0000.0001) %MON thSI_Tic2_ave_S              =  -3.0932363770523E+00
(PID.TID 0000.0001) %MON thSI_Tic2_ave_N              =  -4.8631378487490E+00
(PID.TID 0000.0001) %MON thSI_Tic2_min_S              =  -8.6974972962109E+00
(PID.TID 0000.0001) %MON thSI_Tic2_min_N              =  -7.5341003027692E+00
(PID.TID 0000.0001) %MON thSI_Tic2_max_S              =  -1.2608428757315E+00
(PID.TID 0000.0001) %MON thSI_Tic2_max_N              =  -1.2300765095082E+00
(PID.TID 0000.0001) // =======================================================
(PID.TID 0000.0001) // End MONITOR Therm.SeaIce statistics
(PID.TID 0000.0001) // =======================================================
 cg2d: Sum(rhs),rhsMax =   3.91525771037067E+02  2.29417314954167E+02
(PID.TID 0000.0001)                    cg2d_init_res =    3.36284712639018E+00
(PID.TID 0000.0001)                       cg2d_iters =    69
(PID.TID 0000.0001)                         cg2d_res =    5.70871652408509E-07
(PID.TID 0000.0001) // =======================================================
(PID.TID 0000.0001) // Begin MONITOR dynamic field statistics
(PID.TID 0000.0001) // =======================================================
(PID.TID 0000.0001) %MON time_tsnumber                =                 36005
(PID.TID 0000.0001) %MON time_secondsf                =   3.1108320000000E+09
(PID.TID 0000.0001) %MON dynstat_eta_max              =   7.2845932847912E-01
(PID.TID 0000.0001) %MON dynstat_eta_min              =  -1.1978298007854E+01
(PID.TID 0000.0001) %MON dynstat_eta_mean             =  -5.8233312699057E-01
(PID.TID 0000.0001) %MON dynstat_eta_sd               =   1.7022327671547E+00
(PID.TID 0000.0001) %MON dynstat_eta_del2             =   9.8116432665671E-02
(PID.TID 0000.0001) %MON dynstat_uvel_max             =   1.7423090658335E-01
(PID.TID 0000.0001) %MON dynstat_uvel_min             =  -2.6976374281715E-01
(PID.TID 0000.0001) %MON dynstat_uvel_mean            =  -5.2668905529048E-04
(PID.TID 0000.0001) %MON dynstat_uvel_sd              =   1.2987227296805E-02
(PID.TID 0000.0001) %MON dynstat_uvel_del2            =   1.7916959990148E-03
(PID.TID 0000.0001) %MON dynstat_vvel_max             =   1.9488015170311E-01
(PID.TID 0000.0001) %MON dynstat_vvel_min             =  -2.1101142800723E-01
(PID.TID 0000.0001) %MON dynstat_vvel_mean            =  -4.2379852655251E-04
(PID.TID 0000.0001) %MON dynstat_vvel_sd              =   1.3483086856096E-02
(PID.TID 0000.0001) %MON dynstat_vvel_del2            =   1.8264831598419E-03
(PID.TID 0000.0001) %MON dynstat_wvel_max             =   8.4551168907950E-05
(PID.TID 0000.0001) %MON dynstat_wvel_min             =  -1.7811643640561E-04
(PID.TID 0000.0001) %MON dynstat_wvel_mean            =  -9.2104610256828E-10
(PID.TID 0000.0001) %MON dynstat_wvel_sd              =   4.6272394218525E-06
(PID.TID 0000.0001) %MON dynstat_wvel_del2            =   1.1364897788307E-06
(PID.TID 0000.0001) %MON dynstat_theta_max            =   3.0077061092453E+01
(PID.TID 0000.0001) %MON dynstat_theta_min            =  -3.3449468919375E+00
(PID.TID 0000.0001) %MON dynstat_theta_mean           =   3.5030667203431E+00
(PID.TID 0000.0001) %MON dynstat_theta_sd             =   4.7492473196330E+00
(PID.TID 0000.0001) %MON dynstat_theta_del2           =   9.5251148735300E-02
(PID.TID 0000.0001) %MON dynstat_salt_max             =   4.0827306771237E+01
(PID.TID 0000.0001) %MON dynstat_salt_min             =   1.8033191954634E+01
(PID.TID 0000.0001) %MON dynstat_salt_mean            =   3.4756111952297E+01
(PID.TID 0000.0001) %MON dynstat_salt_sd              =   5.1184783613474E-01
(PID.TID 0000.0001) %MON dynstat_salt_del2            =   2.0053448567948E-02
(PID.TID 0000.0001) %MON extforcing_qnet_max          =   7.8371294455151E+02
(PID.TID 0000.0001) %MON extforcing_qnet_min          =  -1.0231510933195E+03
(PID.TID 0000.0001) %MON extforcing_qnet_mean         =  -4.9904449985721E+00
(PID.TID 0000.0001) %MON extforcing_qnet_sd           =   1.2187053701636E+02
(PID.TID 0000.0001) %MON extforcing_qnet_del2         =   1.2727619349629E+01
(PID.TID 0000.0001) %MON extforcing_qsw_max           =   0.0000000000000E+00
(PID.TID 0000.0001) %MON extforcing_qsw_min           =   0.0000000000000E+00
(PID.TID 0000.0001) %MON extforcing_qsw_mean          =   0.0000000000000E+00
(PID.TID 0000.0001) %MON extforcing_qsw_sd            =   0.0000000000000E+00
(PID.TID 0000.0001) %MON extforcing_qsw_del2          =   0.0000000000000E+00
(PID.TID 0000.0001) %MON extforcing_empmr_max         =   3.0282213854291E-06
(PID.TID 0000.0001) %MON extforcing_empmr_min         =  -3.7614889646140E-07
(PID.TID 0000.0001) %MON extforcing_empmr_mean        =   1.6541337071284E-09
(PID.TID 0000.0001) %MON extforcing_empmr_sd          =   7.6683998753924E-08
(PID.TID 0000.0001) %MON extforcing_empmr_del2        =   1.0233126317789E-08
(PID.TID 0000.0001) %MON extforcing_fu_max            =   2.4741393863310E-01
(PID.TID 0000.0001) %MON extforcing_fu_min            =  -1.9521866369366E-01
(PID.TID 0000.0001) %MON extforcing_fu_mean           =  -1.4801396996718E-03
(PID.TID 0000.0001) %MON extforcing_fu_sd             =   6.1345105775737E-02
(PID.TID 0000.0001) %MON extforcing_fu_del2           =   3.3640471809518E-03
(PID.TID 0000.0001) %MON extforcing_fv_max            =   2.6354394672640E-01
(PID.TID 0000.0001) %MON extforcing_fv_min            =  -3.3007153975572E-01
(PID.TID 0000.0001) %MON extforcing_fv_mean           =  -5.0062755105216E-03
(PID.TID 0000.0001) %MON extforcing_fv_sd             =   6.7911777671530E-02
(PID.TID 0000.0001) %MON extforcing_fv_del2           =   3.3167920859268E-03
(PID.TID 0000.0001) %MON advcfl_uvel_max              =   7.6510114526815E-02
(PID.TID 0000.0001) %MON advcfl_vvel_max              =   8.4945512614067E-02
(PID.TID 0000.0001) %MON advcfl_wvel_max              =   5.8072679643186E-02
(PID.TID 0000.0001) %MON advcfl_W_hf_max              =   1.2831606031040E-01
(PID.TID 0000.0001) %MON pe_b_mean                    =  -1.9325036526029E-03
(PID.TID 0000.0001) %MON ke_max                       =   3.6374367568278E-02
(PID.TID 0000.0001) %MON ke_mean                      =   1.6203959176793E-04
(PID.TID 0000.0001) %MON ke_vol                       =   1.3395905923080E+18
(PID.TID 0000.0001) %MON vort_r_min                   =  -1.2290168604934E-06
(PID.TID 0000.0001) %MON vort_r_max                   =   1.3796425012195E-06
(PID.TID 0000.0001) %MON vort_a_mean                  =  -2.0493733748264E-05
(PID.TID 0000.0001) %MON vort_a_sd                    =   7.5054013562793E-05
(PID.TID 0000.0001) %MON vort_p_mean                  =  -2.4719491927889E-05
(PID.TID 0000.0001) %MON vort_p_sd                    =   1.2782288245320E-04
(PID.TID 0000.0001) %MON surfExpan_theta_mean         =   8.0385543439637E-08
(PID.TID 0000.0001) %MON surfExpan_salt_mean          =   1.7658993130016E-08
(PID.TID 0000.0001) // =======================================================
(PID.TID 0000.0001) // End MONITOR dynamic field statistics
(PID.TID 0000.0001) // =======================================================
(PID.TID 0000.0001) // =======================================================
(PID.TID 0000.0001) // Begin MONITOR Therm.SeaIce statistics
(PID.TID 0000.0001) // =======================================================
(PID.TID 0000.0001) %MON thSI_time_sec                =   3.1108320000000E+09
(PID.TID 0000.0001) %MON thSI_Ice_Area_G              =   2.4718559250680E+13
(PID.TID 0000.0001) %MON thSI_Ice_Area_S              =   1.1858327063273E+13
(PID.TID 0000.0001) %MON thSI_Ice_Area_N              =   1.2860232187407E+13
(PID.TID 0000.0001) %MON thSI_IceH_ave_G              =   4.5998768163336E+00
(PID.TID 0000.0001) %MON thSI_IceH_ave_S              =   5.7499695914286E+00
(PID.TID 0000.0001) %MON thSI_IceH_ave_N              =   3.5393845887098E+00
(PID.TID 0000.0001) %MON thSI_IceH_max_S              =   1.0000000000000E+01
(PID.TID 0000.0001) %MON thSI_IceH_max_N              =   1.0000000000000E+01
(PID.TID 0000.0001) %MON thSI_SnwH_ave_G              =   1.0421495381592E+00
(PID.TID 0000.0001) %MON thSI_SnwH_ave_S              =   1.7832061302200E+00
(PID.TID 0000.0001) %MON thSI_SnwH_ave_N              =   3.5882661575852E-01
(PID.TID 0000.0001) %MON thSI_SnwH_max_S              =   4.0938705627678E+00
(PID.TID 0000.0001) %MON thSI_SnwH_max_N              =   4.1023511430890E+00
(PID.TID 0000.0001) %MON thSI_TotEnerg_G              =  -3.8141277999558E+22
(PID.TID 0000.0001) %MON thSI_Tsrf_ave_G              =  -1.7066109086567E+01
(PID.TID 0000.0001) %MON thSI_Tsrf_ave_S              =  -1.1185834469455E-01
(PID.TID 0000.0001) %MON thSI_Tsrf_ave_N              =  -3.2699501040931E+01
(PID.TID 0000.0001) %MON thSI_Tsrf_min_S              =  -5.3696273358938E+00
(PID.TID 0000.0001) %MON thSI_Tsrf_min_N              =  -4.6698372978970E+01
(PID.TID 0000.0001) %MON thSI_Tsrf_max_S              =   0.0000000000000E+00
(PID.TID 0000.0001) %MON thSI_Tsrf_max_N              =  -1.6927842561225E+00
(PID.TID 0000.0001) %MON thSI_Tic1_ave_G              =  -8.4374493686198E+00
(PID.TID 0000.0001) %MON thSI_Tic1_ave_S              =  -5.0689654899826E+00
(PID.TID 0000.0001) %MON thSI_Tic1_ave_N              =  -1.3483445117311E+01
(PID.TID 0000.0001) %MON thSI_Tic1_min_S              =  -1.5909889435823E+01
(PID.TID 0000.0001) %MON thSI_Tic1_min_N              =  -2.0951035828916E+01
(PID.TID 0000.0001) %MON thSI_Tic1_max_S              =  -1.8496010735198E-01
(PID.TID 0000.0001) %MON thSI_Tic1_max_N              =  -6.8876929448443E-01
(PID.TID 0000.0001) %MON thSI_Tic2_ave_G              =  -3.8107232507211E+00
(PID.TID 0000.0001) %MON thSI_Tic2_ave_S              =  -3.0895261073417E+00
(PID.TID 0000.0001) %MON thSI_Tic2_ave_N              =  -4.8910780484805E+00
(PID.TID 0000.0001) %MON thSI_Tic2_min_S              =  -8.6709855968575E+00
(PID.TID 0000.0001) %MON thSI_Tic2_min_N              =  -7.5697098479490E+00
(PID.TID 0000.0001) %MON thSI_Tic2_max_S              =  -1.2559986425462E+00
(PID.TID 0000.0001) %MON thSI_Tic2_max_N              =  -1.2474917084872E+00
(PID.TID 0000.0001) // =======================================================
(PID.TID 0000.0001) // End MONITOR Therm.SeaIce statistics
(PID.TID 0000.0001) // =======================================================
 cg2d: Sum(rhs),rhsMax =   3.91598286133704E+02  2.29489647559310E+02
(PID.TID 0000.0001)                    cg2d_init_res =    2.97192999548930E+00
(PID.TID 0000.0001)                       cg2d_iters =    69
(PID.TID 0000.0001)                         cg2d_res =    5.60703184801553E-07
(PID.TID 0000.0001) // =======================================================
(PID.TID 0000.0001) // Begin MONITOR dynamic field statistics
(PID.TID 0000.0001) // =======================================================
(PID.TID 0000.0001) %MON time_tsnumber                =                 36006
(PID.TID 0000.0001) %MON time_secondsf                =   3.1109184000000E+09
(PID.TID 0000.0001) %MON dynstat_eta_max              =   7.2720425627150E-01
(PID.TID 0000.0001) %MON dynstat_eta_min              =  -1.1976350616860E+01
(PID.TID 0000.0001) %MON dynstat_eta_mean             =  -5.8244098181419E-01
(PID.TID 0000.0001) %MON dynstat_eta_sd               =   1.7018564593743E+00
(PID.TID 0000.0001) %MON dynstat_eta_del2             =   9.8182795521054E-02
(PID.TID 0000.0001) %MON dynstat_uvel_max             =   1.7442740745027E-01
(PID.TID 0000.0001) %MON dynstat_uvel_min             =  -2.6939075211082E-01
(PID.TID 0000.0001) %MON dynstat_uvel_mean            =  -5.2623173149555E-04
(PID.TID 0000.0001) %MON dynstat_uvel_sd              =   1.2986368504011E-02
(PID.TID 0000.0001) %MON dynstat_uvel_del2            =   1.7914541839259E-03
(PID.TID 0000.0001) %MON dynstat_vvel_max             =   1.9506263522095E-01
(PID.TID 0000.0001) %MON dynstat_vvel_min             =  -2.1109236017989E-01
(PID.TID 0000.0001) %MON dynstat_vvel_mean            =  -4.2324617976297E-04
(PID.TID 0000.0001) %MON dynstat_vvel_sd              =   1.3484894453190E-02
(PID.TID 0000.0001) %MON dynstat_vvel_del2            =   1.8254815332571E-03
(PID.TID 0000.0001) %MON dynstat_wvel_max             =   8.5274162392546E-05
(PID.TID 0000.0001) %MON dynstat_wvel_min             =  -1.7822897774692E-04
(PID.TID 0000.0001) %MON dynstat_wvel_mean            =  -9.9680359289398E-10
(PID.TID 0000.0001) %MON dynstat_wvel_sd              =   4.6270327563339E-06
(PID.TID 0000.0001) %MON dynstat_wvel_del2            =   1.1362150924844E-06
(PID.TID 0000.0001) %MON dynstat_theta_max            =   3.0058438716996E+01
(PID.TID 0000.0001) %MON dynstat_theta_min            =  -3.3414269012612E+00
(PID.TID 0000.0001) %MON dynstat_theta_mean           =   3.5031253537363E+00
(PID.TID 0000.0001) %MON dynstat_theta_sd             =   4.7493233719936E+00
(PID.TID 0000.0001) %MON dynstat_theta_del2           =   9.5275532664142E-02
(PID.TID 0000.0001) %MON dynstat_salt_max             =   4.0829246816352E+01
(PID.TID 0000.0001) %MON dynstat_salt_min             =   1.8033759810355E+01
(PID.TID 0000.0001) %MON dynstat_salt_mean            =   3.4756113680702E+01
(PID.TID 0000.0001) %MON dynstat_salt_sd              =   5.1183751169940E-01
(PID.TID 0000.0001) %MON dynstat_salt_del2            =   2.0047034310246E-02
(PID.TID 0000.0001) %MON extforcing_qnet_max          =   7.8716421525910E+02
(PID.TID 0000.0001) %MON extforcing_qnet_min          =  -6.0484445998537E+02
(PID.TID 0000.0001) %MON extforcing_qnet_mean         =  -4.9311620852492E+00
(PID.TID 0000.0001) %MON extforcing_qnet_sd           =   1.2090643913115E+02
(PID.TID 0000.0001) %MON extforcing_qnet_del2         =   1.2642831791631E+01
(PID.TID 0000.0001) %MON extforcing_qsw_max           =   0.0000000000000E+00
(PID.TID 0000.0001) %MON extforcing_qsw_min           =   0.0000000000000E+00
(PID.TID 0000.0001) %MON extforcing_qsw_mean          =   0.0000000000000E+00
(PID.TID 0000.0001) %MON extforcing_qsw_sd            =   0.0000000000000E+00
(PID.TID 0000.0001) %MON extforcing_qsw_del2          =   0.0000000000000E+00
(PID.TID 0000.0001) %MON extforcing_empmr_max         =   1.7899607620586E-06
(PID.TID 0000.0001) %MON extforcing_empmr_min         =  -3.6504169572821E-07
(PID.TID 0000.0001) %MON extforcing_empmr_mean        =   1.2920109079698E-09
(PID.TID 0000.0001) %MON extforcing_empmr_sd          =   6.4956226343249E-08
(PID.TID 0000.0001) %MON extforcing_empmr_del2        =   9.6894762715791E-09
(PID.TID 0000.0001) %MON extforcing_fu_max            =   2.4736588936290E-01
(PID.TID 0000.0001) %MON extforcing_fu_min            =  -1.9688751208399E-01
(PID.TID 0000.0001) %MON extforcing_fu_mean           =  -1.4823480114970E-03
(PID.TID 0000.0001) %MON extforcing_fu_sd             =   6.1365172760865E-02
(PID.TID 0000.0001) %MON extforcing_fu_del2           =   3.3732971611955E-03
(PID.TID 0000.0001) %MON extforcing_fv_max            =   2.6622718829904E-01
(PID.TID 0000.0001) %MON extforcing_fv_min            =  -3.3085944368965E-01
(PID.TID 0000.0001) %MON extforcing_fv_mean           =  -5.0674283414927E-03
(PID.TID 0000.0001) %MON extforcing_fv_sd             =   6.8106312777892E-02
(PID.TID 0000.0001) %MON extforcing_fv_del2           =   3.3244437858630E-03
(PID.TID 0000.0001) %MON advcfl_uvel_max              =   7.6404327287356E-02
(PID.TID 0000.0001) %MON advcfl_vvel_max              =   8.5025054608627E-02
(PID.TID 0000.0001) %MON advcfl_wvel_max              =   5.8109372367297E-02
(PID.TID 0000.0001) %MON advcfl_W_hf_max              =   1.2741523142315E-01
(PID.TID 0000.0001) %MON pe_b_mean                    =  -1.9323387207890E-03
(PID.TID 0000.0001) %MON ke_max                       =   3.6257397933766E-02
(PID.TID 0000.0001) %MON ke_mean                      =   1.6205153168358E-04
(PID.TID 0000.0001) %MON ke_vol                       =   1.3395905420610E+18
(PID.TID 0000.0001) %MON vort_r_min                   =  -1.2335179944838E-06
(PID.TID 0000.0001) %MON vort_r_max                   =   1.3830280767678E-06
(PID.TID 0000.0001) %MON vort_a_mean                  =  -2.0493733748264E-05
(PID.TID 0000.0001) %MON vort_a_sd                    =   7.5054013472686E-05
(PID.TID 0000.0001) %MON vort_p_mean                  =  -2.4719492268615E-05
(PID.TID 0000.0001) %MON vort_p_sd                    =   1.2782289814101E-04
(PID.TID 0000.0001) %MON surfExpan_theta_mean         =   8.2300742897292E-08
(PID.TID 0000.0001) %MON surfExpan_salt_mean          =   1.8257058677918E-08
(PID.TID 0000.0001) // =======================================================
(PID.TID 0000.0001) // End MONITOR dynamic field statistics
(PID.TID 0000.0001) // =======================================================
(PID.TID 0000.0001) // =======================================================
(PID.TID 0000.0001) // Begin MONITOR Therm.SeaIce statistics
(PID.TID 0000.0001) // =======================================================
(PID.TID 0000.0001) %MON thSI_time_sec                =   3.1109184000000E+09
(PID.TID 0000.0001) %MON thSI_Ice_Area_G              =   2.4716803706687E+13
(PID.TID 0000.0001) %MON thSI_Ice_Area_S              =   1.1804026331041E+13
(PID.TID 0000.0001) %MON thSI_Ice_Area_N              =   1.2912777375646E+13
(PID.TID 0000.0001) %MON thSI_IceH_ave_G              =   4.6022998674549E+00
(PID.TID 0000.0001) %MON thSI_IceH_ave_S              =   5.7694256628961E+00
(PID.TID 0000.0001) %MON thSI_IceH_ave_N              =   3.5353889140446E+00
(PID.TID 0000.0001) %MON thSI_IceH_max_S              =   1.0000000000000E+01
(PID.TID 0000.0001) %MON thSI_IceH_max_N              =   1.0000000000000E+01
(PID.TID 0000.0001) %MON thSI_SnwH_ave_G              =   1.0381275464210E+00
(PID.TID 0000.0001) %MON thSI_SnwH_ave_S              =   1.7796950189306E+00
(PID.TID 0000.0001) %MON thSI_SnwH_ave_N              =   3.6023450164072E-01
(PID.TID 0000.0001) %MON thSI_SnwH_max_S              =   4.0937737651522E+00
(PID.TID 0000.0001) %MON thSI_SnwH_max_N              =   4.1025603144074E+00
(PID.TID 0000.0001) %MON thSI_TotEnerg_G              =  -3.8149345324560E+22
(PID.TID 0000.0001) %MON thSI_Tsrf_ave_G              =  -1.7177786940730E+01
(PID.TID 0000.0001) %MON thSI_Tsrf_ave_S              =  -1.3324085192484E-01
(PID.TID 0000.0001) %MON thSI_Tsrf_ave_N              =  -3.2758809131383E+01
(PID.TID 0000.0001) %MON thSI_Tsrf_min_S              =  -5.3858531484688E+00
(PID.TID 0000.0001) %MON thSI_Tsrf_min_N              =  -4.6813004124905E+01
(PID.TID 0000.0001) %MON thSI_Tsrf_max_S              =   0.0000000000000E+00
(PID.TID 0000.0001) %MON thSI_Tsrf_max_N              =  -7.3605084671684E+00
(PID.TID 0000.0001) %MON thSI_Tic1_ave_G              =  -8.4586857564601E+00
(PID.TID 0000.0001) %MON thSI_Tic1_ave_S              =  -5.0430519981517E+00
(PID.TID 0000.0001) %MON thSI_Tic1_ave_N              =  -1.3554072929677E+01
(PID.TID 0000.0001) %MON thSI_Tic1_min_S              =  -1.5764667959604E+01
(PID.TID 0000.0001) %MON thSI_Tic1_min_N              =  -2.1020816674713E+01
(PID.TID 0000.0001) %MON thSI_Tic1_max_S              =  -1.8069815697051E-01
(PID.TID 0000.0001) %MON thSI_Tic1_max_N              =  -7.0529123820087E-01
(PID.TID 0000.0001) %MON thSI_Tic2_ave_G              =  -3.8221233424308E+00
(PID.TID 0000.0001) %MON thSI_Tic2_ave_S              =  -3.0857795321977E+00
(PID.TID 0000.0001) %MON thSI_Tic2_ave_N              =  -4.9205891239606E+00
(PID.TID 0000.0001) %MON thSI_Tic2_min_S              =  -8.6430484726391E+00
(PID.TID 0000.0001) %MON thSI_Tic2_min_N              =  -7.6042063889372E+00
(PID.TID 0000.0001) %MON thSI_Tic2_max_S              =  -1.2541716863877E+00
(PID.TID 0000.0001) %MON thSI_Tic2_max_N              =  -1.2644395349152E+00
(PID.TID 0000.0001) // =======================================================
(PID.TID 0000.0001) // End MONITOR Therm.SeaIce statistics
(PID.TID 0000.0001) // =======================================================
 cg2d: Sum(rhs),rhsMax =   3.91654873197587E+02  2.29570290982021E+02
(PID.TID 0000.0001)                    cg2d_init_res =    2.80024855187088E+00
(PID.TID 0000.0001)                       cg2d_iters =    69
(PID.TID 0000.0001)                         cg2d_res =    5.55844354984480E-07
(PID.TID 0000.0001) // =======================================================
(PID.TID 0000.0001) // Begin MONITOR dynamic field statistics
(PID.TID 0000.0001) // =======================================================
(PID.TID 0000.0001) %MON time_tsnumber                =                 36007
(PID.TID 0000.0001) %MON time_secondsf                =   3.1110048000000E+09
(PID.TID 0000.0001) %MON dynstat_eta_max              =   7.2593738031005E-01
(PID.TID 0000.0001) %MON dynstat_eta_min              =  -1.1974308254157E+01
(PID.TID 0000.0001) %MON dynstat_eta_mean             =  -5.8252514618930E-01
(PID.TID 0000.0001) %MON dynstat_eta_sd               =   1.7014079767710E+00
(PID.TID 0000.0001) %MON dynstat_eta_del2             =   9.8243786603923E-02
(PID.TID 0000.0001) %MON dynstat_uvel_max             =   1.7456039953296E-01
(PID.TID 0000.0001) %MON dynstat_uvel_min             =  -2.6900599911459E-01
(PID.TID 0000.0001) %MON dynstat_uvel_mean            =  -5.2579697140719E-04
(PID.TID 0000.0001) %MON dynstat_uvel_sd              =   1.2985490243231E-02
(PID.TID 0000.0001) %MON dynstat_uvel_del2            =   1.7911302678759E-03
(PID.TID 0000.0001) %MON dynstat_vvel_max             =   1.9518451037950E-01
(PID.TID 0000.0001) %MON dynstat_vvel_min             =  -2.1116637318331E-01
(PID.TID 0000.0001) %MON dynstat_vvel_mean            =  -4.2261820174480E-04
(PID.TID 0000.0001) %MON dynstat_vvel_sd              =   1.3486484325345E-02
(PID.TID 0000.0001) %MON dynstat_vvel_del2            =   1.8244082271187E-03
(PID.TID 0000.0001) %MON dynstat_wvel_max             =   8.6021161346256E-05
(PID.TID 0000.0001) %MON dynstat_wvel_min             =  -1.7828871115792E-04
(PID.TID 0000.0001) %MON dynstat_wvel_mean            =  -1.0253166361736E-09
(PID.TID 0000.0001) %MON dynstat_wvel_sd              =   4.6268262175265E-06
(PID.TID 0000.0001) %MON dynstat_wvel_del2            =   1.1359252195894E-06
(PID.TID 0000.0001) %MON dynstat_theta_max            =   3.0039510152419E+01
(PID.TID 0000.0001) %MON dynstat_theta_min            =  -3.3492959840397E+00
(PID.TID 0000.0001) %MON dynstat_theta_mean           =   3.5031835912425E+00
(PID.TID 0000.0001) %MON dynstat_theta_sd             =   4.7494045890511E+00
(PID.TID 0000.0001) %MON dynstat_theta_del2           =   9.5306154586807E-02
(PID.TID 0000.0001) %MON dynstat_salt_max             =   4.0831046560475E+01
(PID.TID 0000.0001) %MON dynstat_salt_min             =   1.8034320779956E+01
(PID.TID 0000.0001) %MON dynstat_salt_mean            =   3.4756115252627E+01
(PID.TID 0000.0001) %MON dynstat_salt_sd              =   5.1182871959619E-01
(PID.TID 0000.0001) %MON dynstat_salt_del2            =   2.0047743796821E-02
(PID.TID 0000.0001) %MON extforcing_qnet_max          =   7.9044495485449E+02
(PID.TID 0000.0001) %MON extforcing_qnet_min          =  -3.6656434425621E+02
(PID.TID 0000.0001) %MON extforcing_qnet_mean         =  -4.8577540522212E+00
(PID.TID 0000.0001) %MON extforcing_qnet_sd           =   1.2042526511159E+02
(PID.TID 0000.0001) %MON extforcing_qnet_del2         =   1.2529836430315E+01
(PID.TID 0000.0001) %MON extforcing_qsw_max           =   0.0000000000000E+00
(PID.TID 0000.0001) %MON extforcing_qsw_min           =   0.0000000000000E+00
(PID.TID 0000.0001) %MON extforcing_qsw_mean          =   0.0000000000000E+00
(PID.TID 0000.0001) %MON extforcing_qsw_sd            =   0.0000000000000E+00
(PID.TID 0000.0001) %MON extforcing_qsw_del2          =   0.0000000000000E+00
(PID.TID 0000.0001) %MON extforcing_empmr_max         =   1.0846322441382E-06
(PID.TID 0000.0001) %MON extforcing_empmr_min         =  -3.5200912822259E-07
(PID.TID 0000.0001) %MON extforcing_empmr_mean        =   1.0082190768147E-09
(PID.TID 0000.0001) %MON extforcing_empmr_sd          =   5.7987812070111E-08
(PID.TID 0000.0001) %MON extforcing_empmr_del2        =   9.0959421655502E-09
(PID.TID 0000.0001) %MON extforcing_fu_max            =   2.4731784009269E-01
(PID.TID 0000.0001) %MON extforcing_fu_min            =  -1.9855636047431E-01
(PID.TID 0000.0001) %MON extforcing_fu_mean           =  -1.4845563161572E-03
(PID.TID 0000.0001) %MON extforcing_fu_sd             =   6.1397818342807E-02
(PID.TID 0000.0001) %MON extforcing_fu_del2           =   3.3852475017162E-03
(PID.TID 0000.0001) %MON extforcing_fv_max            =   2.6891042987167E-01
(PID.TID 0000.0001) %MON extforcing_fv_min            =  -3.3164734762358E-01
(PID.TID 0000.0001) %MON extforcing_fv_mean           =  -5.1285812025195E-03
(PID.TID 0000.0001) %MON extforcing_fv_sd             =   6.8308860147762E-02
(PID.TID 0000.0001) %MON extforcing_fv_del2           =   3.3339640091174E-03
(PID.TID 0000.0001) %MON advcfl_uvel_max              =   7.6295204039367E-02
(PID.TID 0000.0001) %MON advcfl_vvel_max              =   8.5078178273234E-02
(PID.TID 0000.0001) %MON advcfl_wvel_max              =   5.8128847713376E-02
(PID.TID 0000.0001) %MON advcfl_W_hf_max              =   1.2645066420725E-01
(PID.TID 0000.0001) %MON pe_b_mean                    =  -1.9318059065366E-03
(PID.TID 0000.0001) %MON ke_max                       =   3.6137919922076E-02
(PID.TID 0000.0001) %MON ke_mean                      =   1.6206050180999E-04
(PID.TID 0000.0001) %MON ke_vol                       =   1.3395905028141E+18
(PID.TID 0000.0001) %MON vort_r_min                   =  -1.2382113059682E-06
(PID.TID 0000.0001) %MON vort_r_max                   =   1.3865173635925E-06
(PID.TID 0000.0001) %MON vort_a_mean                  =  -2.0493733748264E-05
(PID.TID 0000.0001) %MON vort_a_sd                    =   7.5054013391742E-05
(PID.TID 0000.0001) %MON vort_p_mean                  =  -2.4719492457665E-05
(PID.TID 0000.0001) %MON vort_p_sd                    =   1.2782290990843E-04
(PID.TID 0000.0001) %MON surfExpan_theta_mean         =   8.3865201052913E-08
(PID.TID 0000.0001) %MON surfExpan_salt_mean          =   1.8658283962134E-08
(PID.TID 0000.0001) // =======================================================
(PID.TID 0000.0001) // End MONITOR dynamic field statistics
(PID.TID 0000.0001) // =======================================================
(PID.TID 0000.0001) // =======================================================
(PID.TID 0000.0001) // Begin MONITOR Therm.SeaIce statistics
(PID.TID 0000.0001) // =======================================================
(PID.TID 0000.0001) %MON thSI_time_sec                =   3.1110048000000E+09
(PID.TID 0000.0001) %MON thSI_Ice_Area_G              =   2.4736936380304E+13
(PID.TID 0000.0001) %MON thSI_Ice_Area_S              =   1.1761853972985E+13
(PID.TID 0000.0001) %MON thSI_Ice_Area_N              =   1.2975082407319E+13
(PID.TID 0000.0001) %MON thSI_IceH_ave_G              =   4.6001739111640E+00
(PID.TID 0000.0001) %MON thSI_IceH_ave_S              =   5.7831367837394E+00
(PID.TID 0000.0001) %MON thSI_IceH_ave_N              =   3.5278233760456E+00
(PID.TID 0000.0001) %MON thSI_IceH_max_S              =   1.0000000000000E+01
(PID.TID 0000.0001) %MON thSI_IceH_max_N              =   1.0000000000000E+01
(PID.TID 0000.0001) %MON thSI_SnwH_ave_G              =   1.0333717820857E+00
(PID.TID 0000.0001) %MON thSI_SnwH_ave_S              =   1.7746725410161E+00
(PID.TID 0000.0001) %MON thSI_SnwH_ave_N              =   3.6138597090629E-01
(PID.TID 0000.0001) %MON thSI_SnwH_max_S              =   4.0936799948245E+00
(PID.TID 0000.0001) %MON thSI_SnwH_max_N              =   4.1027882655374E+00
(PID.TID 0000.0001) %MON thSI_TotEnerg_G              =  -3.8154395757832E+22
(PID.TID 0000.0001) %MON thSI_Tsrf_ave_G              =  -1.7234307770983E+01
(PID.TID 0000.0001) %MON thSI_Tsrf_ave_S              =  -1.1530894894986E-01
(PID.TID 0000.0001) %MON thSI_Tsrf_ave_N              =  -3.2752603376941E+01
(PID.TID 0000.0001) %MON thSI_Tsrf_min_S              =  -5.4020394714924E+00
(PID.TID 0000.0001) %MON thSI_Tsrf_min_N              =  -4.6927733477718E+01
(PID.TID 0000.0001) %MON thSI_Tsrf_max_S              =   0.0000000000000E+00
(PID.TID 0000.0001) %MON thSI_Tsrf_max_N              =  -1.8883331736299E+00
(PID.TID 0000.0001) %MON thSI_Tic1_ave_G              =  -8.4823012460254E+00
(PID.TID 0000.0001) %MON thSI_Tic1_ave_S              =  -5.0225346195190E+00
(PID.TID 0000.0001) %MON thSI_Tic1_ave_N              =  -1.3623555646932E+01
(PID.TID 0000.0001) %MON thSI_Tic1_min_S              =  -1.5621093434799E+01
(PID.TID 0000.0001) %MON thSI_Tic1_min_N              =  -2.1088252564317E+01
(PID.TID 0000.0001) %MON thSI_Tic1_max_S              =  -1.9148578521163E-01
(PID.TID 0000.0001) %MON thSI_Tic1_max_N              =  -7.2252586074792E-01
(PID.TID 0000.0001) %MON thSI_Tic2_ave_G              =  -3.8331694118039E+00
(PID.TID 0000.0001) %MON thSI_Tic2_ave_S              =  -3.0819840756084E+00
(PID.TID 0000.0001) %MON thSI_Tic2_ave_N              =  -4.9494397654236E+00
(PID.TID 0000.0001) %MON thSI_Tic2_min_S              =  -8.6149135967520E+00
(PID.TID 0000.0001) %MON thSI_Tic2_min_N              =  -7.6376224835895E+00
(PID.TID 0000.0001) %MON thSI_Tic2_max_S              =  -1.2516760070051E+00
(PID.TID 0000.0001) %MON thSI_Tic2_max_N              =  -1.2809188738862E+00
(PID.TID 0000.0001) // =======================================================
(PID.TID 0000.0001) // End MONITOR Therm.SeaIce statistics
(PID.TID 0000.0001) // =======================================================
 cg2d: Sum(rhs),rhsMax =   3.91701757142418E+02  2.29658702577334E+02
(PID.TID 0000.0001)                    cg2d_init_res =    2.71824644042692E+00
(PID.TID 0000.0001)                       cg2d_iters =    69
(PID.TID 0000.0001)                         cg2d_res =    5.62902805647070E-07
(PID.TID 0000.0001) // =======================================================
(PID.TID 0000.0001) // Begin MONITOR dynamic field statistics
(PID.TID 0000.0001) // =======================================================
(PID.TID 0000.0001) %MON time_tsnumber                =                 36008
(PID.TID 0000.0001) %MON time_secondsf                =   3.1110912000000E+09
(PID.TID 0000.0001) %MON dynstat_eta_max              =   7.2464785477756E-01
(PID.TID 0000.0001) %MON dynstat_eta_min              =  -1.1972169041831E+01
(PID.TID 0000.0001) %MON dynstat_eta_mean             =  -5.8259487869791E-01
(PID.TID 0000.0001) %MON dynstat_eta_sd               =   1.7009411451545E+00
(PID.TID 0000.0001) %MON dynstat_eta_del2             =   9.8300981276448E-02
(PID.TID 0000.0001) %MON dynstat_uvel_max             =   1.7463009638295E-01
(PID.TID 0000.0001) %MON dynstat_uvel_min             =  -2.6860905693827E-01
(PID.TID 0000.0001) %MON dynstat_uvel_mean            =  -5.2536942696166E-04
(PID.TID 0000.0001) %MON dynstat_uvel_sd              =   1.2984645185721E-02
(PID.TID 0000.0001) %MON dynstat_uvel_del2            =   1.7906912455197E-03
(PID.TID 0000.0001) %MON dynstat_vvel_max             =   1.9524525253253E-01
(PID.TID 0000.0001) %MON dynstat_vvel_min             =  -2.1123377444471E-01
(PID.TID 0000.0001) %MON dynstat_vvel_mean            =  -4.2194379112692E-04
(PID.TID 0000.0001) %MON dynstat_vvel_sd              =   1.3487799075745E-02
(PID.TID 0000.0001) %MON dynstat_vvel_del2            =   1.8233066604463E-03
(PID.TID 0000.0001) %MON dynstat_wvel_max             =   8.6780135778992E-05
(PID.TID 0000.0001) %MON dynstat_wvel_min             =  -1.7829852919500E-04
(PID.TID 0000.0001) %MON dynstat_wvel_mean            =  -1.0331986922862E-09
(PID.TID 0000.0001) %MON dynstat_wvel_sd              =   4.6266534706094E-06
(PID.TID 0000.0001) %MON dynstat_wvel_del2            =   1.1357511488226E-06
(PID.TID 0000.0001) %MON dynstat_theta_max            =   3.0020345121112E+01
(PID.TID 0000.0001) %MON dynstat_theta_min            =  -3.3675971733603E+00
(PID.TID 0000.0001) %MON dynstat_theta_mean           =   3.5032415562703E+00
(PID.TID 0000.0001) %MON dynstat_theta_sd             =   4.7494901855822E+00
(PID.TID 0000.0001) %MON dynstat_theta_del2           =   9.5341709928940E-02
(PID.TID 0000.0001) %MON dynstat_salt_max             =   4.0832707963437E+01
(PID.TID 0000.0001) %MON dynstat_salt_min             =   1.8034878718389E+01
(PID.TID 0000.0001) %MON dynstat_salt_mean            =   3.4756116718889E+01
(PID.TID 0000.0001) %MON dynstat_salt_sd              =   5.1182003853763E-01
(PID.TID 0000.0001) %MON dynstat_salt_del2            =   2.0043089615548E-02
(PID.TID 0000.0001) %MON extforcing_qnet_max          =   7.9369311921732E+02
(PID.TID 0000.0001) %MON extforcing_qnet_min          =  -2.3630885389302E+02
(PID.TID 0000.0001) %MON extforcing_qnet_mean         =  -4.8075955653645E+00
(PID.TID 0000.0001) %MON extforcing_qnet_sd           =   1.2025269280676E+02
(PID.TID 0000.0001) %MON extforcing_qnet_del2         =   1.2519379559550E+01
(PID.TID 0000.0001) %MON extforcing_qsw_max           =   0.0000000000000E+00
(PID.TID 0000.0001) %MON extforcing_qsw_min           =   0.0000000000000E+00
(PID.TID 0000.0001) %MON extforcing_qsw_mean          =   0.0000000000000E+00
(PID.TID 0000.0001) %MON extforcing_qsw_sd            =   0.0000000000000E+00
(PID.TID 0000.0001) %MON extforcing_qsw_del2          =   0.0000000000000E+00
(PID.TID 0000.0001) %MON extforcing_empmr_max         =   7.7327951784168E-07
(PID.TID 0000.0001) %MON extforcing_empmr_min         =  -3.3780257333593E-07
(PID.TID 0000.0001) %MON extforcing_empmr_mean        =   8.3533734271571E-10
(PID.TID 0000.0001) %MON extforcing_empmr_sd          =   5.5471180283242E-08
(PID.TID 0000.0001) %MON extforcing_empmr_del2        =   8.8205882186209E-09
(PID.TID 0000.0001) %MON extforcing_fu_max            =   2.4726979082249E-01
(PID.TID 0000.0001) %MON extforcing_fu_min            =  -2.0022520886463E-01
(PID.TID 0000.0001) %MON extforcing_fu_mean           =  -1.4867646102018E-03
(PID.TID 0000.0001) %MON extforcing_fu_sd             =   6.1443022482875E-02
(PID.TID 0000.0001) %MON extforcing_fu_del2           =   3.3994041068143E-03
(PID.TID 0000.0001) %MON extforcing_fv_max            =   2.7159367144430E-01
(PID.TID 0000.0001) %MON extforcing_fv_min            =  -3.3243525155752E-01
(PID.TID 0000.0001) %MON extforcing_fv_mean           =  -5.1897341403729E-03
(PID.TID 0000.0001) %MON extforcing_fv_sd             =   6.8519348799958E-02
(PID.TID 0000.0001) %MON extforcing_fv_del2           =   3.3461490794461E-03
(PID.TID 0000.0001) %MON advcfl_uvel_max              =   7.6182623708689E-02
(PID.TID 0000.0001) %MON advcfl_vvel_max              =   8.5104654921993E-02
(PID.TID 0000.0001) %MON advcfl_wvel_max              =   5.8132048763954E-02
(PID.TID 0000.0001) %MON advcfl_W_hf_max              =   1.2542241613582E-01
(PID.TID 0000.0001) %MON pe_b_mean                    =  -1.9311094421272E-03
(PID.TID 0000.0001) %MON ke_max                       =   3.6015878703417E-02
(PID.TID 0000.0001) %MON ke_mean                      =   1.6206641556171E-04
(PID.TID 0000.0001) %MON ke_vol                       =   1.3395904721878E+18
(PID.TID 0000.0001) %MON vort_r_min                   =  -1.2430673606925E-06
(PID.TID 0000.0001) %MON vort_r_max                   =   1.3900644658638E-06
(PID.TID 0000.0001) %MON vort_a_mean                  =  -2.0493733748264E-05
(PID.TID 0000.0001) %MON vort_a_sd                    =   7.5054013315941E-05
(PID.TID 0000.0001) %MON vort_p_mean                  =  -2.4719492488560E-05
(PID.TID 0000.0001) %MON vort_p_sd                    =   1.2782291979236E-04
(PID.TID 0000.0001) %MON surfExpan_theta_mean         =   8.4976912347541E-08
(PID.TID 0000.0001) %MON surfExpan_salt_mean          =   1.8915738005915E-08
(PID.TID 0000.0001) // =======================================================
(PID.TID 0000.0001) // End MONITOR dynamic field statistics
(PID.TID 0000.0001) // =======================================================
(PID.TID 0000.0001) // =======================================================
(PID.TID 0000.0001) // Begin MONITOR Therm.SeaIce statistics
(PID.TID 0000.0001) // =======================================================
(PID.TID 0000.0001) %MON thSI_time_sec                =   3.1110912000000E+09
(PID.TID 0000.0001) %MON thSI_Ice_Area_G              =   2.4735357544288E+13
(PID.TID 0000.0001) %MON thSI_Ice_Area_S              =   1.1722053613409E+13
(PID.TID 0000.0001) %MON thSI_Ice_Area_N              =   1.3013303930879E+13
(PID.TID 0000.0001) %MON thSI_IceH_ave_G              =   4.6017239797707E+00
(PID.TID 0000.0001) %MON thSI_IceH_ave_S              =   5.7957812044648E+00
(PID.TID 0000.0001) %MON thSI_IceH_ave_N              =   3.5261475635363E+00
(PID.TID 0000.0001) %MON thSI_IceH_max_S              =   1.0000000000000E+01
(PID.TID 0000.0001) %MON thSI_IceH_max_N              =   1.0000000000000E+01
(PID.TID 0000.0001) %MON thSI_SnwH_ave_G              =   1.0298372457815E+00
(PID.TID 0000.0001) %MON thSI_SnwH_ave_S              =   1.7698935923313E+00
(PID.TID 0000.0001) %MON thSI_SnwH_ave_N              =   3.6321328792441E-01
(PID.TID 0000.0001) %MON thSI_SnwH_max_S              =   4.0935933078174E+00
(PID.TID 0000.0001) %MON thSI_SnwH_max_N              =   4.1030349868591E+00
(PID.TID 0000.0001) %MON thSI_TotEnerg_G              =  -3.8156933119251E+22
(PID.TID 0000.0001) %MON thSI_Tsrf_ave_G              =  -1.7330498520456E+01
(PID.TID 0000.0001) %MON thSI_Tsrf_ave_S              =  -1.3709817381457E-01
(PID.TID 0000.0001) %MON thSI_Tsrf_ave_N              =  -3.2817876801226E+01
(PID.TID 0000.0001) %MON thSI_Tsrf_min_S              =  -5.4181865574787E+00
(PID.TID 0000.0001) %MON thSI_Tsrf_min_N              =  -4.7042521193662E+01
(PID.TID 0000.0001) %MON thSI_Tsrf_max_S              =   0.0000000000000E+00
(PID.TID 0000.0001) %MON thSI_Tsrf_max_N              =  -8.1883364341942E+00
(PID.TID 0000.0001) %MON thSI_Tic1_ave_G              =  -8.5029348584507E+00
(PID.TID 0000.0001) %MON thSI_Tic1_ave_S              =  -4.9967936479282E+00
(PID.TID 0000.0001) %MON thSI_Tic1_ave_N              =  -1.3694006625053E+01
(PID.TID 0000.0001) %MON thSI_Tic1_min_S              =  -1.5479148715319E+01
(PID.TID 0000.0001) %MON thSI_Tic1_min_N              =  -2.1153430232646E+01
(PID.TID 0000.0001) %MON thSI_Tic1_max_S              =  -1.9873132677077E-01
(PID.TID 0000.0001) %MON thSI_Tic1_max_N              =  -7.4051119333137E-01
(PID.TID 0000.0001) %MON thSI_Tic2_ave_G              =  -3.8442311634161E+00
(PID.TID 0000.0001) %MON thSI_Tic2_ave_S              =  -3.0781528723669E+00
(PID.TID 0000.0001) %MON thSI_Tic2_ave_N              =  -4.9784602628426E+00
(PID.TID 0000.0001) %MON thSI_Tic2_min_S              =  -8.5854002416782E+00
(PID.TID 0000.0001) %MON thSI_Tic2_min_N              =  -7.6699900995239E+00
(PID.TID 0000.0001) %MON thSI_Tic2_max_S              =  -1.1979957685690E+00
(PID.TID 0000.0001) %MON thSI_Tic2_max_N              =  -1.2969209147903E+00
(PID.TID 0000.0001) // =======================================================
(PID.TID 0000.0001) // End MONITOR Therm.SeaIce statistics
(PID.TID 0000.0001) // =======================================================
 cg2d: Sum(rhs),rhsMax =   3.91741625698960E+02  2.29753478856532E+02
(PID.TID 0000.0001)                    cg2d_init_res =    2.71075602839090E+00
(PID.TID 0000.0001)                       cg2d_iters =    69
(PID.TID 0000.0001)                         cg2d_res =    5.76918493889524E-07
(PID.TID 0000.0001) // =======================================================
(PID.TID 0000.0001) // Begin MONITOR dynamic field statistics
(PID.TID 0000.0001) // =======================================================
(PID.TID 0000.0001) %MON time_tsnumber                =                 36009
(PID.TID 0000.0001) %MON time_secondsf                =   3.1111776000000E+09
(PID.TID 0000.0001) %MON dynstat_eta_max              =   7.2332065128867E-01
(PID.TID 0000.0001) %MON dynstat_eta_min              =  -1.1969930507582E+01
(PID.TID 0000.0001) %MON dynstat_eta_mean             =  -5.8265417691764E-01
(PID.TID 0000.0001) %MON dynstat_eta_sd               =   1.7004931212458E+00
(PID.TID 0000.0001) %MON dynstat_eta_del2             =   9.8351249594288E-02
(PID.TID 0000.0001) %MON dynstat_uvel_max             =   1.7463766912172E-01
(PID.TID 0000.0001) %MON dynstat_uvel_min             =  -2.6819947653361E-01
(PID.TID 0000.0001) %MON dynstat_uvel_mean            =  -5.2493111078545E-04
(PID.TID 0000.0001) %MON dynstat_uvel_sd              =   1.2983880497496E-02
(PID.TID 0000.0001) %MON dynstat_uvel_del2            =   1.7902540089798E-03
(PID.TID 0000.0001) %MON dynstat_vvel_max             =   1.9524442589651E-01
(PID.TID 0000.0001) %MON dynstat_vvel_min             =  -2.1129489360411E-01
(PID.TID 0000.0001) %MON dynstat_vvel_mean            =  -4.2125748899439E-04
(PID.TID 0000.0001) %MON dynstat_vvel_sd              =   1.3488786690275E-02
(PID.TID 0000.0001) %MON dynstat_vvel_del2            =   1.8222502883637E-03
(PID.TID 0000.0001) %MON dynstat_wvel_max             =   8.7539863452961E-05
(PID.TID 0000.0001) %MON dynstat_wvel_min             =  -1.7826081026449E-04
(PID.TID 0000.0001) %MON dynstat_wvel_mean            =  -1.0382988760914E-09
(PID.TID 0000.0001) %MON dynstat_wvel_sd              =   4.6264839377371E-06
(PID.TID 0000.0001) %MON dynstat_wvel_del2            =   1.1357234199503E-06
(PID.TID 0000.0001) %MON dynstat_theta_max            =   3.0001008921081E+01
(PID.TID 0000.0001) %MON dynstat_theta_min            =  -3.3859084294190E+00
(PID.TID 0000.0001) %MON dynstat_theta_mean           =   3.5032992160807E+00
(PID.TID 0000.0001) %MON dynstat_theta_sd             =   4.7495804963342E+00
(PID.TID 0000.0001) %MON dynstat_theta_del2           =   9.5362768844878E-02
(PID.TID 0000.0001) %MON dynstat_salt_max             =   4.0834232683330E+01
(PID.TID 0000.0001) %MON dynstat_salt_min             =   1.8035439777369E+01
(PID.TID 0000.0001) %MON dynstat_salt_mean            =   3.4756118119623E+01
(PID.TID 0000.0001) %MON dynstat_salt_sd              =   5.1181156310585E-01
(PID.TID 0000.0001) %MON dynstat_salt_del2            =   2.0041011956841E-02
(PID.TID 0000.0001) %MON extforcing_qnet_max          =   7.9689315256929E+02
(PID.TID 0000.0001) %MON extforcing_qnet_min          =  -2.3592581198231E+02
(PID.TID 0000.0001) %MON extforcing_qnet_mean         =  -4.7520560923114E+00
(PID.TID 0000.0001) %MON extforcing_qnet_sd           =   1.2014721086060E+02
(PID.TID 0000.0001) %MON extforcing_qnet_del2         =   1.2534409742375E+01
(PID.TID 0000.0001) %MON extforcing_qsw_max           =   0.0000000000000E+00
(PID.TID 0000.0001) %MON extforcing_qsw_min           =   0.0000000000000E+00
(PID.TID 0000.0001) %MON extforcing_qsw_mean          =   0.0000000000000E+00
(PID.TID 0000.0001) %MON extforcing_qsw_sd            =   0.0000000000000E+00
(PID.TID 0000.0001) %MON extforcing_qsw_del2          =   0.0000000000000E+00
(PID.TID 0000.0001) %MON extforcing_empmr_max         =   5.1448723789825E-07
(PID.TID 0000.0001) %MON extforcing_empmr_min         =  -3.0509492913922E-07
(PID.TID 0000.0001) %MON extforcing_empmr_mean        =   7.1034325713522E-10
(PID.TID 0000.0001) %MON extforcing_empmr_sd          =   5.3412056744707E-08
(PID.TID 0000.0001) %MON extforcing_empmr_del2        =   8.6445146099406E-09
(PID.TID 0000.0001) %MON extforcing_fu_max            =   2.4722174155228E-01
(PID.TID 0000.0001) %MON extforcing_fu_min            =  -2.0189405725496E-01
(PID.TID 0000.0001) %MON extforcing_fu_mean           =  -1.4889729426909E-03
(PID.TID 0000.0001) %MON extforcing_fu_sd             =   6.1500757458124E-02
(PID.TID 0000.0001) %MON extforcing_fu_del2           =   3.4156393841176E-03
(PID.TID 0000.0001) %MON extforcing_fv_max            =   2.7427691301694E-01
(PID.TID 0000.0001) %MON extforcing_fv_min            =  -3.3322315549145E-01
(PID.TID 0000.0001) %MON extforcing_fv_mean           =  -5.2508871640964E-03
(PID.TID 0000.0001) %MON extforcing_fv_sd             =   6.8737705852949E-02
(PID.TID 0000.0001) %MON extforcing_fv_del2           =   3.3610533236295E-03
(PID.TID 0000.0001) %MON advcfl_uvel_max              =   7.6066458936724E-02
(PID.TID 0000.0001) %MON advcfl_vvel_max              =   8.5104294602997E-02
(PID.TID 0000.0001) %MON advcfl_wvel_max              =   5.8119750969251E-02
(PID.TID 0000.0001) %MON advcfl_W_hf_max              =   1.2433401054053E-01
(PID.TID 0000.0001) %MON pe_b_mean                    =  -1.9303964716119E-03
(PID.TID 0000.0001) %MON ke_max                       =   3.5891212846542E-02
(PID.TID 0000.0001) %MON ke_mean                      =   1.6206918803947E-04
(PID.TID 0000.0001) %MON ke_vol                       =   1.3395904468131E+18
(PID.TID 0000.0001) %MON vort_r_min                   =  -1.2480563325316E-06
(PID.TID 0000.0001) %MON vort_r_max                   =   1.3936228930602E-06
(PID.TID 0000.0001) %MON vort_a_mean                  =  -2.0493733748264E-05
(PID.TID 0000.0001) %MON vort_a_sd                    =   7.5054013242765E-05
(PID.TID 0000.0001) %MON vort_p_mean                  =  -2.4719492452443E-05
(PID.TID 0000.0001) %MON vort_p_sd                    =   1.2782292878046E-04
(PID.TID 0000.0001) %MON surfExpan_theta_mean         =   8.5695905858899E-08
(PID.TID 0000.0001) %MON surfExpan_salt_mean          =   1.9091622774565E-08
(PID.TID 0000.0001) // =======================================================
(PID.TID 0000.0001) // End MONITOR dynamic field statistics
(PID.TID 0000.0001) // =======================================================
(PID.TID 0000.0001) // =======================================================
(PID.TID 0000.0001) // Begin MONITOR Therm.SeaIce statistics
(PID.TID 0000.0001) // =======================================================
(PID.TID 0000.0001) %MON thSI_time_sec                =   3.1111776000000E+09
(PID.TID 0000.0001) %MON thSI_Ice_Area_G              =   2.4724987332896E+13
(PID.TID 0000.0001) %MON thSI_Ice_Area_S              =   1.1686727561624E+13
(PID.TID 0000.0001) %MON thSI_Ice_Area_N              =   1.3038259771272E+13
(PID.TID 0000.0001) %MON thSI_IceH_ave_G              =   4.6046540977812E+00
(PID.TID 0000.0001) %MON thSI_IceH_ave_S              =   5.8063644829910E+00
(PID.TID 0000.0001) %MON thSI_IceH_ave_N              =   3.5275117393458E+00
(PID.TID 0000.0001) %MON thSI_IceH_max_S              =   1.0000000000000E+01
(PID.TID 0000.0001) %MON thSI_IceH_max_N              =   1.0000000000000E+01
(PID.TID 0000.0001) %MON thSI_SnwH_ave_G              =   1.0268612507173E+00
(PID.TID 0000.0001) %MON thSI_SnwH_ave_S              =   1.7648284927266E+00
(PID.TID 0000.0001) %MON thSI_SnwH_ave_N              =   3.6539091203245E-01
(PID.TID 0000.0001) %MON thSI_SnwH_max_S              =   4.0935126107337E+00
(PID.TID 0000.0001) %MON thSI_SnwH_max_N              =   4.1032966334883E+00
(PID.TID 0000.0001) %MON thSI_TotEnerg_G              =  -3.8158046612496E+22
(PID.TID 0000.0001) %MON thSI_Tsrf_ave_G              =  -1.7402977376830E+01
(PID.TID 0000.0001) %MON thSI_Tsrf_ave_S              =  -1.1864686346828E-01
(PID.TID 0000.0001) %MON thSI_Tsrf_ave_N              =  -3.2895632480987E+01
(PID.TID 0000.0001) %MON thSI_Tsrf_min_S              =  -5.4342947037306E+00
(PID.TID 0000.0001) %MON thSI_Tsrf_min_N              =  -4.7157369217453E+01
(PID.TID 0000.0001) %MON thSI_Tsrf_max_S              =   0.0000000000000E+00
(PID.TID 0000.0001) %MON thSI_Tsrf_max_N              =  -9.3206503926977E+00
(PID.TID 0000.0001) %MON thSI_Tic1_ave_G              =  -8.5256014478714E+00
(PID.TID 0000.0001) %MON thSI_Tic1_ave_S              =  -4.9751560560143E+00
(PID.TID 0000.0001) %MON thSI_Tic1_ave_N              =  -1.3763920592694E+01
(PID.TID 0000.0001) %MON thSI_Tic1_min_S              =  -1.5338816835469E+01
(PID.TID 0000.0001) %MON thSI_Tic1_min_N              =  -2.1216432785205E+01
(PID.TID 0000.0001) %MON thSI_Tic1_max_S              =  -1.9127435989332E-01
(PID.TID 0000.0001) %MON thSI_Tic1_max_N              =  -7.5928740761834E-01
(PID.TID 0000.0001) %MON thSI_Tic2_ave_G              =  -3.8550944410057E+00
(PID.TID 0000.0001) %MON thSI_Tic2_ave_S              =  -3.0742676159815E+00
(PID.TID 0000.0001) %MON thSI_Tic2_ave_N              =  -5.0071245822650E+00
(PID.TID 0000.0001) %MON thSI_Tic2_min_S              =  -8.5557358464520E+00
(PID.TID 0000.0001) %MON thSI_Tic2_min_N              =  -7.7013405768413E+00
(PID.TID 0000.0001) %MON thSI_Tic2_max_S              =  -1.1510051812742E+00
(PID.TID 0000.0001) %MON thSI_Tic2_max_N              =  -1.3124359121600E+00
(PID.TID 0000.0001) // =======================================================
(PID.TID 0000.0001) // End MONITOR Therm.SeaIce statistics
(PID.TID 0000.0001) // =======================================================
 cg2d: Sum(rhs),rhsMax =   3.91775128810914E+02  2.29854172820130E+02
(PID.TID 0000.0001)                    cg2d_init_res =    2.68626764408733E+00
(PID.TID 0000.0001)                       cg2d_iters =    70
(PID.TID 0000.0001)                         cg2d_res =    4.67474949273070E-07
(PID.TID 0000.0001) // =======================================================
(PID.TID 0000.0001) // Begin MONITOR dynamic field statistics
(PID.TID 0000.0001) // =======================================================
(PID.TID 0000.0001) %MON time_tsnumber                =                 36010
(PID.TID 0000.0001) %MON time_secondsf                =   3.1112640000000E+09
(PID.TID 0000.0001) %MON dynstat_eta_max              =   7.2195003594502E-01
(PID.TID 0000.0001) %MON dynstat_eta_min              =  -1.1967583155218E+01
(PID.TID 0000.0001) %MON dynstat_eta_mean             =  -5.8270400753771E-01
(PID.TID 0000.0001) %MON dynstat_eta_sd               =   1.7000535494867E+00
(PID.TID 0000.0001) %MON dynstat_eta_del2             =   9.8394024478516E-02
(PID.TID 0000.0001) %MON dynstat_uvel_max             =   1.7458519797544E-01
(PID.TID 0000.0001) %MON dynstat_uvel_min             =  -2.6777687329713E-01
(PID.TID 0000.0001) %MON dynstat_uvel_mean            =  -5.2446556515385E-04
(PID.TID 0000.0001) %MON dynstat_uvel_sd              =   1.2983236173164E-02
(PID.TID 0000.0001) %MON dynstat_uvel_del2            =   1.7898970237942E-03
(PID.TID 0000.0001) %MON dynstat_vvel_max             =   1.9518192339114E-01
(PID.TID 0000.0001) %MON dynstat_vvel_min             =  -2.1135005916792E-01
(PID.TID 0000.0001) %MON dynstat_vvel_mean            =  -4.2058924252273E-04
(PID.TID 0000.0001) %MON dynstat_vvel_sd              =   1.3489407183173E-02
(PID.TID 0000.0001) %MON dynstat_vvel_del2            =   1.8212532808173E-03
(PID.TID 0000.0001) %MON dynstat_wvel_max             =   8.8289673711223E-05
(PID.TID 0000.0001) %MON dynstat_wvel_min             =  -1.7817890013985E-04
(PID.TID 0000.0001) %MON dynstat_wvel_mean            =  -1.0366370252452E-09
(PID.TID 0000.0001) %MON dynstat_wvel_sd              =   4.6263472001341E-06
(PID.TID 0000.0001) %MON dynstat_wvel_del2            =   1.1356961904523E-06
(PID.TID 0000.0001) %MON dynstat_theta_max            =   2.9981562418226E+01
(PID.TID 0000.0001) %MON dynstat_theta_min            =  -3.4042267010114E+00
(PID.TID 0000.0001) %MON dynstat_theta_mean           =   3.5033564921606E+00
(PID.TID 0000.0001) %MON dynstat_theta_sd             =   4.7496747489869E+00
(PID.TID 0000.0001) %MON dynstat_theta_del2           =   9.5395725213309E-02
(PID.TID 0000.0001) %MON dynstat_salt_max             =   4.0835622141961E+01
(PID.TID 0000.0001) %MON dynstat_salt_min             =   1.8036014794182E+01
(PID.TID 0000.0001) %MON dynstat_salt_mean            =   3.4756119457692E+01
(PID.TID 0000.0001) %MON dynstat_salt_sd              =   5.1180300712607E-01
(PID.TID 0000.0001) %MON dynstat_salt_del2            =   2.0042211063121E-02
(PID.TID 0000.0001) %MON extforcing_qnet_max          =   8.0007084815352E+02
(PID.TID 0000.0001) %MON extforcing_qnet_min          =  -2.3554464473899E+02
(PID.TID 0000.0001) %MON extforcing_qnet_mean         =  -4.6930503912414E+00
(PID.TID 0000.0001) %MON extforcing_qnet_sd           =   1.2011996398779E+02
(PID.TID 0000.0001) %MON extforcing_qnet_del2         =   1.2559865132005E+01
(PID.TID 0000.0001) %MON extforcing_qsw_max           =   0.0000000000000E+00
(PID.TID 0000.0001) %MON extforcing_qsw_min           =   0.0000000000000E+00
(PID.TID 0000.0001) %MON extforcing_qsw_mean          =   0.0000000000000E+00
(PID.TID 0000.0001) %MON extforcing_qsw_sd            =   0.0000000000000E+00
(PID.TID 0000.0001) %MON extforcing_qsw_del2          =   0.0000000000000E+00
(PID.TID 0000.0001) %MON extforcing_empmr_max         =   3.9183032487657E-07
(PID.TID 0000.0001) %MON extforcing_empmr_min         =  -3.1010794443753E-07
(PID.TID 0000.0001) %MON extforcing_empmr_mean        =   5.9692930303493E-10
(PID.TID 0000.0001) %MON extforcing_empmr_sd          =   5.2605409094490E-08
(PID.TID 0000.0001) %MON extforcing_empmr_del2        =   8.5947431675707E-09
(PID.TID 0000.0001) %MON extforcing_fu_max            =   2.4734156444157E-01
(PID.TID 0000.0001) %MON extforcing_fu_min            =  -2.0356290564528E-01
(PID.TID 0000.0001) %MON extforcing_fu_mean           =  -1.4911813647812E-03
(PID.TID 0000.0001) %MON extforcing_fu_sd             =   6.1570987961600E-02
(PID.TID 0000.0001) %MON extforcing_fu_del2           =   3.4345095694594E-03
(PID.TID 0000.0001) %MON extforcing_fv_max            =   2.7696015458957E-01
(PID.TID 0000.0001) %MON extforcing_fv_min            =  -3.3401105942538E-01
(PID.TID 0000.0001) %MON extforcing_fv_mean           =  -5.3120402356646E-03
(PID.TID 0000.0001) %MON extforcing_fv_sd             =   6.8963856595074E-02
(PID.TID 0000.0001) %MON extforcing_fv_del2           =   3.3780333545283E-03
(PID.TID 0000.0001) %MON advcfl_uvel_max              =   7.5946600642631E-02
(PID.TID 0000.0001) %MON advcfl_vvel_max              =   8.5077050641453E-02
(PID.TID 0000.0001) %MON advcfl_wvel_max              =   5.8093045177671E-02
(PID.TID 0000.0001) %MON advcfl_W_hf_max              =   1.2318696792853E-01
(PID.TID 0000.0001) %MON pe_b_mean                    =  -1.9296402325213E-03
(PID.TID 0000.0001) %MON ke_max                       =   3.5763879995708E-02
(PID.TID 0000.0001) %MON ke_mean                      =   1.6206879834233E-04
(PID.TID 0000.0001) %MON ke_vol                       =   1.3395904252352E+18
(PID.TID 0000.0001) %MON vort_r_min                   =  -1.2531482582318E-06
(PID.TID 0000.0001) %MON vort_r_max                   =   1.3971480686167E-06
(PID.TID 0000.0001) %MON vort_a_mean                  =  -2.0493733748264E-05
(PID.TID 0000.0001) %MON vort_a_sd                    =   7.5054013171068E-05
(PID.TID 0000.0001) %MON vort_p_mean                  =  -2.4719492383636E-05
(PID.TID 0000.0001) %MON vort_p_sd                    =   1.2782293746684E-04
(PID.TID 0000.0001) %MON surfExpan_theta_mean         =   8.6151765565486E-08
(PID.TID 0000.0001) %MON surfExpan_salt_mean          =   1.9285528382210E-08
(PID.TID 0000.0001) // =======================================================
(PID.TID 0000.0001) // End MONITOR dynamic field statistics
(PID.TID 0000.0001) // =======================================================
(PID.TID 0000.0001) // =======================================================
(PID.TID 0000.0001) // Begin MONITOR Therm.SeaIce statistics
(PID.TID 0000.0001) // =======================================================
(PID.TID 0000.0001) %MON thSI_time_sec                =   3.1112640000000E+09
(PID.TID 0000.0001) %MON thSI_Ice_Area_G              =   2.4711664604279E+13
(PID.TID 0000.0001) %MON thSI_Ice_Area_S              =   1.1652918866907E+13
(PID.TID 0000.0001) %MON thSI_Ice_Area_N              =   1.3058745737372E+13
(PID.TID 0000.0001) %MON thSI_IceH_ave_G              =   4.6079369504862E+00
(PID.TID 0000.0001) %MON thSI_IceH_ave_S              =   5.8162620699517E+00
(PID.TID 0000.0001) %MON thSI_IceH_ave_N              =   3.5296929242103E+00
(PID.TID 0000.0001) %MON thSI_IceH_max_S              =   1.0000000000000E+01
(PID.TID 0000.0001) %MON thSI_IceH_max_N              =   1.0000000000000E+01
(PID.TID 0000.0001) %MON thSI_SnwH_ave_G              =   1.0240788919985E+00
(PID.TID 0000.0001) %MON thSI_SnwH_ave_S              =   1.7596549096360E+00
(PID.TID 0000.0001) %MON thSI_SnwH_ave_N              =   3.6769061196314E-01
(PID.TID 0000.0001) %MON thSI_SnwH_max_S              =   4.0934374477220E+00
(PID.TID 0000.0001) %MON thSI_SnwH_max_N              =   4.1035858152403E+00
(PID.TID 0000.0001) %MON thSI_TotEnerg_G              =  -3.8157427436367E+22
(PID.TID 0000.0001) %MON thSI_Tsrf_ave_G              =  -1.7494145099686E+01
(PID.TID 0000.0001) %MON thSI_Tsrf_ave_S              =  -1.4085223904707E-01
(PID.TID 0000.0001) %MON thSI_Tsrf_ave_N              =  -3.2979285697836E+01
(PID.TID 0000.0001) %MON thSI_Tsrf_min_S              =  -5.4503642191936E+00
(PID.TID 0000.0001) %MON thSI_Tsrf_min_N              =  -4.7272278926762E+01
(PID.TID 0000.0001) %MON thSI_Tsrf_max_S              =   0.0000000000000E+00
(PID.TID 0000.0001) %MON thSI_Tsrf_max_N              =  -9.9297273149568E+00
(PID.TID 0000.0001) %MON thSI_Tic1_ave_G              =  -8.5452111083886E+00
(PID.TID 0000.0001) %MON thSI_Tic1_ave_S              =  -4.9490711719117E+00
(PID.TID 0000.0001) %MON thSI_Tic1_ave_N              =  -1.3833033776771E+01
(PID.TID 0000.0001) %MON thSI_Tic1_min_S              =  -1.5200080915600E+01
(PID.TID 0000.0001) %MON thSI_Tic1_min_N              =  -2.1277339874328E+01
(PID.TID 0000.0001) %MON thSI_Tic1_max_S              =  -1.8433040140794E-01
(PID.TID 0000.0001) %MON thSI_Tic1_max_N              =  -7.7889692625805E-01
(PID.TID 0000.0001) %MON thSI_Tic2_ave_G              =  -3.8657445521776E+00
(PID.TID 0000.0001) %MON thSI_Tic2_ave_S              =  -3.0703364604050E+00
(PID.TID 0000.0001) %MON thSI_Tic2_ave_N              =  -5.0353255508554E+00
(PID.TID 0000.0001) %MON thSI_Tic2_min_S              =  -8.5247449267942E+00
(PID.TID 0000.0001) %MON thSI_Tic2_min_N              =  -7.7317045973825E+00
(PID.TID 0000.0001) %MON thSI_Tic2_max_S              =  -1.1097594703168E+00
(PID.TID 0000.0001) %MON thSI_Tic2_max_N              =  -1.3274582536616E+00
(PID.TID 0000.0001) // =======================================================
(PID.TID 0000.0001) // End MONITOR Therm.SeaIce statistics
(PID.TID 0000.0001) // =======================================================
 Computing Diagnostic #  23  ETAN         Counter:       1   Parms: SM      M1      
 Computing Diagnostic #  75  oceFWflx     Counter:       1   Parms: SM      U1      
 Computing Diagnostic #  26  THETA        Counter:       1   Parms: SM      MR      
 Computing Diagnostic #  27  SALT         Counter:       1   Parms: SM      MR      
 Compute Stats, Diag. #  23  ETAN      vol(  0 ): 3.639E+15  Parms: SM      M1      
 Compute Stats, Diag. #  24  ETANSQ    vol(  0 ): 3.639E+15  Parms: SM      M1      
 Compute Stats, Diag. #  25  DETADT2   vol(  0 ): 3.639E+15  Parms: SM      M1      
 Compute Stats, Diag. #  26  THETA     vol(  0 ): 1.340E+19  Parms: SM      MR      
 Compute Stats, Diag. #  27  SALT      vol(  0 ): 1.340E+19  Parms: SM      MR      
 Compute Stats, Diag. #  70  CONVADJ   vol(  0 ): 1.315E+19  Parms: SM      LR      
 Compute Stats, Diag. #  71  oceTAUX   vol(  0 ): 3.111E+15  Parms: SU      U1      
 Compute Stats, Diag. #  72  oceTAUY   vol(  0 ): 3.130E+15  Parms: SV      U1      
 Compute Stats, Diag. #  80  TRELAX    vol(  0 ): 3.275E+15  Parms: SM      U1      
 Compute Stats, Diag. #  81  SRELAX    vol(  0 ): 3.275E+15  Parms: SM      U1      
 Compute Stats, Diag. #  82  surForcT  vol(  0 ): 3.275E+15  Parms: SM      U1      
 Compute Stats, Diag. #  83  surForcS  vol(  0 ): 3.275E+15  Parms: SM      U1      
 Compute Stats, Diag. #  84  TFLUX     vol(  0 ): 3.275E+15  Parms: SM      U1      
 Compute Stats, Diag. #  85  SFLUX     vol(  0 ): 3.275E+15  Parms: SM      U1      
 Compute Stats, Diag. #  77  oceQnet   vol(  0 ): 3.275E+15  Parms: SM      U1      
 Compute Stats, Diag. #  76  oceSflux  vol(  0 ): 3.275E+15  Parms: SM      U1      
 Compute Stats, Diag. #  75  oceFWflx  vol(  0 ): 3.275E+15  Parms: SM      U1      
 Compute Stats, Diag. # 183  SI_Fract  vol(  0 ): 3.639E+15  Parms: SM P    M1      
 Compute Stats, Diag. # 183  SI_Fract  vol(  1 ): 1.289E+15  Parms: SM P    M1      
 Compute Stats, Diag. # 183  SI_Fract  vol(  3 ): 7.935E+14  Parms: SM P    M1      
 Compute Stats, Diag. # 184  SI_Thick  vol(  0 ): 2.471E+14  Parms: SM PC183M1      
    use Counter Mate  # 183  SI_Fract  vol(  0 ): 3.639E+15 integral 2.471E+14
 Compute Stats, Diag. # 184  SI_Thick  vol(  1 ): 1.189E+14  Parms: SM PC183M1      
    use Counter Mate  # 183  SI_Fract  vol(  1 ): 1.289E+15 integral 1.189E+14
 Compute Stats, Diag. # 184  SI_Thick  vol(  3 ): 1.282E+14  Parms: SM PC183M1      
    use Counter Mate  # 183  SI_Fract  vol(  3 ): 7.935E+14 integral 1.282E+14
 Compute Stats, Diag. # 185  SI_SnowH  vol(  0 ): 2.471E+14  Parms: SM PC183M1      
    use Counter Mate  # 183  SI_Fract  vol(  0 ): 3.639E+15 integral 2.471E+14
 Compute Stats, Diag. # 185  SI_SnowH  vol(  1 ): 1.189E+14  Parms: SM PC183M1      
    use Counter Mate  # 183  SI_Fract  vol(  1 ): 1.289E+15 integral 1.189E+14
 Compute Stats, Diag. # 185  SI_SnowH  vol(  3 ): 1.282E+14  Parms: SM PC183M1      
    use Counter Mate  # 183  SI_Fract  vol(  3 ): 7.935E+14 integral 1.282E+14
 Compute Stats, Diag. # 186  SI_Tsrf   vol(  0 ): 2.471E+14  Parms: SM  C183M1      
    use Counter Mate  # 183  SI_Fract  vol(  0 ): 3.639E+15 integral 2.471E+14
 Compute Stats, Diag. # 186  SI_Tsrf   vol(  1 ): 1.189E+14  Parms: SM  C183M1      
    use Counter Mate  # 183  SI_Fract  vol(  1 ): 1.289E+15 integral 1.189E+14
 Compute Stats, Diag. # 186  SI_Tsrf   vol(  3 ): 1.282E+14  Parms: SM  C183M1      
    use Counter Mate  # 183  SI_Fract  vol(  3 ): 7.935E+14 integral 1.282E+14
 Compute Stats, Diag. # 187  SI_Tice1  vol(  0 ): 2.471E+14  Parms: SM  C183M1      
    use Counter Mate  # 183  SI_Fract  vol(  0 ): 3.639E+15 integral 2.471E+14
 Compute Stats, Diag. # 187  SI_Tice1  vol(  1 ): 1.189E+14  Parms: SM  C183M1      
    use Counter Mate  # 183  SI_Fract  vol(  1 ): 1.289E+15 integral 1.189E+14
 Compute Stats, Diag. # 187  SI_Tice1  vol(  3 ): 1.282E+14  Parms: SM  C183M1      
    use Counter Mate  # 183  SI_Fract  vol(  3 ): 7.935E+14 integral 1.282E+14
 Compute Stats, Diag. # 188  SI_Tice2  vol(  0 ): 2.471E+14  Parms: SM  C183M1      
    use Counter Mate  # 183  SI_Fract  vol(  0 ): 3.639E+15 integral 2.471E+14
 Compute Stats, Diag. # 188  SI_Tice2  vol(  1 ): 1.189E+14  Parms: SM  C183M1      
    use Counter Mate  # 183  SI_Fract  vol(  1 ): 1.289E+15 integral 1.189E+14
 Compute Stats, Diag. # 188  SI_Tice2  vol(  3 ): 1.282E+14  Parms: SM  C183M1      
    use Counter Mate  # 183  SI_Fract  vol(  3 ): 7.935E+14 integral 1.282E+14
 Compute Stats, Diag. # 189  SI_Qice1  vol(  0 ): 1.136E+15  Parms: SM  C184M1      
    use Counter Mate  # 184  SI_Thick  vol(  0 ): 2.471E+14 integral 1.136E+15
 Compute Stats, Diag. # 189  SI_Qice1  vol(  1 ): 6.822E+14  Parms: SM  C184M1      
    use Counter Mate  # 184  SI_Thick  vol(  1 ): 1.189E+14 integral 6.822E+14
 Compute Stats, Diag. # 189  SI_Qice1  vol(  3 ): 4.536E+14  Parms: SM  C184M1      
    use Counter Mate  # 184  SI_Thick  vol(  3 ): 1.282E+14 integral 4.536E+14
 Compute Stats, Diag. # 190  SI_Qice2  vol(  0 ): 1.136E+15  Parms: SM  C184M1      
    use Counter Mate  # 184  SI_Thick  vol(  0 ): 2.471E+14 integral 1.136E+15
 Compute Stats, Diag. # 190  SI_Qice2  vol(  1 ): 6.822E+14  Parms: SM  C184M1      
    use Counter Mate  # 184  SI_Thick  vol(  1 ): 1.189E+14 integral 6.822E+14
 Compute Stats, Diag. # 190  SI_Qice2  vol(  3 ): 4.536E+14  Parms: SM  C184M1      
    use Counter Mate  # 184  SI_Thick  vol(  3 ): 1.282E+14 integral 4.536E+14
 Compute Stats, Diag. # 194  SIsnwPrc  vol(  0 ): 2.471E+14  Parms: SM  C192M1      
    use Counter Mate  # 192  SI_FrcFx  vol(  0 ): 3.639E+15 integral 2.471E+14
 Compute Stats, Diag. # 194  SIsnwPrc  vol(  1 ): 1.189E+14  Parms: SM  C192M1      
    use Counter Mate  # 192  SI_FrcFx  vol(  1 ): 1.289E+15 integral 1.189E+14
 Compute Stats, Diag. # 194  SIsnwPrc  vol(  3 ): 1.282E+14  Parms: SM  C192M1      
    use Counter Mate  # 192  SI_FrcFx  vol(  3 ): 7.935E+14 integral 1.282E+14
 Compute Stats, Diag. # 193  SIalbedo  vol(  0 ): 2.471E+14  Parms: SM PC192M1      
    use Counter Mate  # 192  SI_FrcFx  vol(  0 ): 3.639E+15 integral 2.471E+14
 Compute Stats, Diag. # 193  SIalbedo  vol(  1 ): 1.189E+14  Parms: SM PC192M1      
    use Counter Mate  # 192  SI_FrcFx  vol(  1 ): 1.289E+15 integral 1.189E+14
 Compute Stats, Diag. # 193  SIalbedo  vol(  3 ): 1.282E+14  Parms: SM PC192M1      
    use Counter Mate  # 192  SI_FrcFx  vol(  3 ): 7.935E+14 integral 1.282E+14
 Compute Stats, Diag. # 191  SIsnwAge  vol(  0 ): 3.639E+15  Parms: SM P    M1      
 Compute Stats, Diag. # 191  SIsnwAge  vol(  1 ): 1.289E+15  Parms: SM P    M1      
 Compute Stats, Diag. # 191  SIsnwAge  vol(  3 ): 7.935E+14  Parms: SM P    M1      
 Compute Stats, Diag. # 197  SIflx2oc  vol(  0 ): 3.639E+15  Parms: SM      M1      
 Compute Stats, Diag. # 197  SIflx2oc  vol(  1 ): 1.289E+15  Parms: SM      M1      
 Compute Stats, Diag. # 197  SIflx2oc  vol(  3 ): 7.935E+14  Parms: SM      M1      
 Compute Stats, Diag. # 198  SIfrw2oc  vol(  0 ): 3.639E+15  Parms: SM      M1      
 Compute Stats, Diag. # 198  SIfrw2oc  vol(  1 ): 1.289E+15  Parms: SM      M1      
 Compute Stats, Diag. # 198  SIfrw2oc  vol(  3 ): 7.935E+14  Parms: SM      M1      
 Compute Stats, Diag. # 199  SIsaltFx  vol(  0 ): 3.639E+15  Parms: SM      M1      
 Compute Stats, Diag. # 199  SIsaltFx  vol(  1 ): 1.289E+15  Parms: SM      M1      
 Compute Stats, Diag. # 199  SIsaltFx  vol(  3 ): 7.935E+14  Parms: SM      M1      
 Compute Stats, Diag. # 195  SIflxAtm  vol(  0 ): 3.639E+15  Parms: SM      M1      
 Compute Stats, Diag. # 195  SIflxAtm  vol(  1 ): 1.289E+15  Parms: SM      M1      
 Compute Stats, Diag. # 195  SIflxAtm  vol(  3 ): 7.935E+14  Parms: SM      M1      
 Compute Stats, Diag. # 196  SIfrwAtm  vol(  0 ): 3.639E+15  Parms: SM      M1      
 Compute Stats, Diag. # 196  SIfrwAtm  vol(  1 ): 1.289E+15  Parms: SM      M1      
 Compute Stats, Diag. # 196  SIfrwAtm  vol(  3 ): 7.935E+14  Parms: SM      M1      
 cg2d: Sum(rhs),rhsMax =   3.91808950465796E+02  2.29959802263655E+02
(PID.TID 0000.0001)                    cg2d_init_res =    2.71954359032807E+00
(PID.TID 0000.0001)                       cg2d_iters =    70
(PID.TID 0000.0001)                         cg2d_res =    4.84717570224939E-07
(PID.TID 0000.0001) // =======================================================
(PID.TID 0000.0001) // Begin MONITOR dynamic field statistics
(PID.TID 0000.0001) // =======================================================
(PID.TID 0000.0001) %MON time_tsnumber                =                 36011
(PID.TID 0000.0001) %MON time_secondsf                =   3.1113504000000E+09
(PID.TID 0000.0001) %MON dynstat_eta_max              =   7.2055064188331E-01
(PID.TID 0000.0001) %MON dynstat_eta_min              =  -1.1965113144016E+01
(PID.TID 0000.0001) %MON dynstat_eta_mean             =  -5.8275431194040E-01
(PID.TID 0000.0001) %MON dynstat_eta_sd               =   1.6996161177901E+00
(PID.TID 0000.0001) %MON dynstat_eta_del2             =   9.8408546319685E-02
(PID.TID 0000.0001) %MON dynstat_uvel_max             =   1.7447561376771E-01
(PID.TID 0000.0001) %MON dynstat_uvel_min             =  -2.6734097395119E-01
(PID.TID 0000.0001) %MON dynstat_uvel_mean            =  -5.2395639660853E-04
(PID.TID 0000.0001) %MON dynstat_uvel_sd              =   1.2982742828103E-02
(PID.TID 0000.0001) %MON dynstat_uvel_del2            =   1.7896411153795E-03
(PID.TID 0000.0001) %MON dynstat_vvel_max             =   1.9505865005537E-01
(PID.TID 0000.0001) %MON dynstat_vvel_min             =  -2.1139958175206E-01
(PID.TID 0000.0001) %MON dynstat_vvel_mean            =  -4.1995939498874E-04
(PID.TID 0000.0001) %MON dynstat_vvel_sd              =   1.3489633678172E-02
(PID.TID 0000.0001) %MON dynstat_vvel_del2            =   1.8202933419456E-03
(PID.TID 0000.0001) %MON dynstat_wvel_max             =   8.9022976857459E-05
(PID.TID 0000.0001) %MON dynstat_wvel_min             =  -1.7805664342225E-04
(PID.TID 0000.0001) %MON dynstat_wvel_mean            =  -1.0165539501881E-09
(PID.TID 0000.0001) %MON dynstat_wvel_sd              =   4.6262399094089E-06
(PID.TID 0000.0001) %MON dynstat_wvel_del2            =   1.1356609683079E-06
(PID.TID 0000.0001) %MON dynstat_theta_max            =   2.9962062320013E+01
(PID.TID 0000.0001) %MON dynstat_theta_min            =  -3.4225437535422E+00
(PID.TID 0000.0001) %MON dynstat_theta_mean           =   3.5034137088841E+00
(PID.TID 0000.0001) %MON dynstat_theta_sd             =   4.7497727720011E+00
(PID.TID 0000.0001) %MON dynstat_theta_del2           =   9.5448989155547E-02
(PID.TID 0000.0001) %MON dynstat_salt_max             =   4.0836877668654E+01
(PID.TID 0000.0001) %MON dynstat_salt_min             =   1.8036625593745E+01
(PID.TID 0000.0001) %MON dynstat_salt_mean            =   3.4756120819444E+01
(PID.TID 0000.0001) %MON dynstat_salt_sd              =   5.1179390591362E-01
(PID.TID 0000.0001) %MON dynstat_salt_del2            =   2.0045285154365E-02
(PID.TID 0000.0001) %MON extforcing_qnet_max          =   8.0322164134201E+02
(PID.TID 0000.0001) %MON extforcing_qnet_min          =  -2.3516532427585E+02
(PID.TID 0000.0001) %MON extforcing_qnet_mean         =  -4.6875411236964E+00
(PID.TID 0000.0001) %MON extforcing_qnet_sd           =   1.2005411763533E+02
(PID.TID 0000.0001) %MON extforcing_qnet_del2         =   1.2593927221661E+01
(PID.TID 0000.0001) %MON extforcing_qsw_max           =   0.0000000000000E+00
(PID.TID 0000.0001) %MON extforcing_qsw_min           =   0.0000000000000E+00
(PID.TID 0000.0001) %MON extforcing_qsw_mean          =   0.0000000000000E+00
(PID.TID 0000.0001) %MON extforcing_qsw_sd            =   0.0000000000000E+00
(PID.TID 0000.0001) %MON extforcing_qsw_del2          =   0.0000000000000E+00
(PID.TID 0000.0001) %MON extforcing_empmr_max         =   7.3907828947309E-07
(PID.TID 0000.0001) %MON extforcing_empmr_min         =  -3.1625834404978E-07
(PID.TID 0000.0001) %MON extforcing_empmr_mean        =   6.0260482382567E-10
(PID.TID 0000.0001) %MON extforcing_empmr_sd          =   5.3250749547813E-08
(PID.TID 0000.0001) %MON extforcing_empmr_del2        =   8.6972856829024E-09
(PID.TID 0000.0001) %MON extforcing_fu_max            =   2.4760593894036E-01
(PID.TID 0000.0001) %MON extforcing_fu_min            =  -2.0523175403560E-01
(PID.TID 0000.0001) %MON extforcing_fu_mean           =  -1.4933898984414E-03
(PID.TID 0000.0001) %MON extforcing_fu_sd             =   6.1653671233153E-02
(PID.TID 0000.0001) %MON extforcing_fu_del2           =   3.4557020502382E-03
(PID.TID 0000.0001) %MON extforcing_fv_max            =   2.7964339616220E-01
(PID.TID 0000.0001) %MON extforcing_fv_min            =  -3.3479896335931E-01
(PID.TID 0000.0001) %MON extforcing_fv_mean           =  -5.3731932850907E-03
(PID.TID 0000.0001) %MON extforcing_fv_sd             =   6.9197724565631E-02
(PID.TID 0000.0001) %MON extforcing_fv_del2           =   3.3965934382679E-03
(PID.TID 0000.0001) %MON advcfl_uvel_max              =   7.5822971319686E-02
(PID.TID 0000.0001) %MON advcfl_vvel_max              =   8.5023317531096E-02
(PID.TID 0000.0001) %MON advcfl_wvel_max              =   5.8053184874273E-02
(PID.TID 0000.0001) %MON advcfl_W_hf_max              =   1.2198350183779E-01
(PID.TID 0000.0001) %MON pe_b_mean                    =  -1.9288367061526E-03
(PID.TID 0000.0001) %MON ke_max                       =   3.5633869132978E-02
(PID.TID 0000.0001) %MON ke_mean                      =   1.6206527431686E-04
(PID.TID 0000.0001) %MON ke_vol                       =   1.3395904071025E+18
(PID.TID 0000.0001) %MON vort_r_min                   =  -1.2583133853291E-06
(PID.TID 0000.0001) %MON vort_r_max                   =   1.4005948837062E-06
(PID.TID 0000.0001) %MON vort_a_mean                  =  -2.0493733748264E-05
(PID.TID 0000.0001) %MON vort_a_sd                    =   7.5054013100645E-05
(PID.TID 0000.0001) %MON vort_p_mean                  =  -2.4719492275009E-05
(PID.TID 0000.0001) %MON vort_p_sd                    =   1.2782294585042E-04
(PID.TID 0000.0001) %MON surfExpan_theta_mean         =   8.5819924305373E-08
(PID.TID 0000.0001) %MON surfExpan_salt_mean          =   1.9263645037148E-08
(PID.TID 0000.0001) // =======================================================
(PID.TID 0000.0001) // End MONITOR dynamic field statistics
(PID.TID 0000.0001) // =======================================================
(PID.TID 0000.0001) // =======================================================
(PID.TID 0000.0001) // Begin MONITOR Therm.SeaIce statistics
(PID.TID 0000.0001) // =======================================================
(PID.TID 0000.0001) %MON thSI_time_sec                =   3.1113504000000E+09
(PID.TID 0000.0001) %MON thSI_Ice_Area_G              =   2.4722110606209E+13
(PID.TID 0000.0001) %MON thSI_Ice_Area_S              =   1.1618114493716E+13
(PID.TID 0000.0001) %MON thSI_Ice_Area_N              =   1.3103996112493E+13
(PID.TID 0000.0001) %MON thSI_IceH_ave_G              =   4.6067358916921E+00
(PID.TID 0000.0001) %MON thSI_IceH_ave_S              =   5.8265876284744E+00
(PID.TID 0000.0001) %MON thSI_IceH_ave_N              =   3.5252049585607E+00
(PID.TID 0000.0001) %MON thSI_IceH_max_S              =   1.0000000000000E+01
(PID.TID 0000.0001) %MON thSI_IceH_max_N              =   1.0000000000000E+01
(PID.TID 0000.0001) %MON thSI_SnwH_ave_G              =   1.0204515421004E+00
(PID.TID 0000.0001) %MON thSI_SnwH_ave_S              =   1.7548967251875E+00
(PID.TID 0000.0001) %MON thSI_SnwH_ave_N              =   3.6928619122481E-01
(PID.TID 0000.0001) %MON thSI_SnwH_max_S              =   4.0933672380071E+00
(PID.TID 0000.0001) %MON thSI_SnwH_max_N              =   4.1039287772640E+00
(PID.TID 0000.0001) %MON thSI_TotEnerg_G              =  -3.8157088851356E+22
(PID.TID 0000.0001) %MON thSI_Tsrf_ave_G              =  -1.7548728749986E+01
(PID.TID 0000.0001) %MON thSI_Tsrf_ave_S              =  -1.2194185091987E-01
(PID.TID 0000.0001) %MON thSI_Tsrf_ave_N              =  -3.2999466350397E+01
(PID.TID 0000.0001) %MON thSI_Tsrf_min_S              =  -5.4663954167926E+00
(PID.TID 0000.0001) %MON thSI_Tsrf_min_N              =  -4.7387251597758E+01
(PID.TID 0000.0001) %MON thSI_Tsrf_max_S              =   0.0000000000000E+00
(PID.TID 0000.0001) %MON thSI_Tsrf_max_N              =  -1.7602832355544E+00
(PID.TID 0000.0001) %MON thSI_Tic1_ave_G              =  -8.5676425665115E+00
(PID.TID 0000.0001) %MON thSI_Tic1_ave_S              =  -4.9287941676587E+00
(PID.TID 0000.0001) %MON thSI_Tic1_ave_N              =  -1.3900080005633E+01
(PID.TID 0000.0001) %MON thSI_Tic1_min_S              =  -1.5062924028513E+01
(PID.TID 0000.0001) %MON thSI_Tic1_min_N              =  -2.1336227864219E+01
(PID.TID 0000.0001) %MON thSI_Tic1_max_S              =  -1.7784795290066E-01
(PID.TID 0000.0001) %MON thSI_Tic1_max_N              =  -7.9938453774870E-01
(PID.TID 0000.0001) %MON thSI_Tic2_ave_G              =  -3.8762147773578E+00
(PID.TID 0000.0001) %MON thSI_Tic2_ave_S              =  -3.0664394754516E+00
(PID.TID 0000.0001) %MON thSI_Tic2_ave_N              =  -5.0628748587512E+00
(PID.TID 0000.0001) %MON thSI_Tic2_min_S              =  -8.4936461562236E+00
(PID.TID 0000.0001) %MON thSI_Tic2_min_N              =  -7.7611121595384E+00
(PID.TID 0000.0001) %MON thSI_Tic2_max_S              =  -1.0731318900265E+00
(PID.TID 0000.0001) %MON thSI_Tic2_max_N              =  -1.3419895395961E+00
(PID.TID 0000.0001) // =======================================================
(PID.TID 0000.0001) // End MONITOR Therm.SeaIce statistics
(PID.TID 0000.0001) // =======================================================
 Computing Diagnostic #  23  ETAN         Counter:       1   Parms: SM      M1      
 Compute Stats, Diag. #  23  ETAN      vol(  0 ): 3.639E+14  Parms: SM      M1      
 Compute Stats, Diag. #  26  THETA     vol(  0 ): 1.340E+18  Parms: SM      MR      
 Compute Stats, Diag. #  27  SALT      vol(  0 ): 1.340E+18  Parms: SM      MR      
 cg2d: Sum(rhs),rhsMax =   3.91837840377887E+02  2.30069172100474E+02
(PID.TID 0000.0001)                    cg2d_init_res =    2.72325346744521E+00
(PID.TID 0000.0001)                       cg2d_iters =    70
(PID.TID 0000.0001)                         cg2d_res =    4.89068145599854E-07
(PID.TID 0000.0001) // =======================================================
(PID.TID 0000.0001) // Begin MONITOR dynamic field statistics
(PID.TID 0000.0001) // =======================================================
(PID.TID 0000.0001) %MON time_tsnumber                =                 36012
(PID.TID 0000.0001) %MON time_secondsf                =   3.1114368000000E+09
(PID.TID 0000.0001) %MON dynstat_eta_max              =   7.1914146309602E-01
(PID.TID 0000.0001) %MON dynstat_eta_min              =  -1.1962505461010E+01
(PID.TID 0000.0001) %MON dynstat_eta_mean             =  -5.8279728114981E-01
(PID.TID 0000.0001) %MON dynstat_eta_sd               =   1.6991843373106E+00
(PID.TID 0000.0001) %MON dynstat_eta_del2             =   9.8434862892425E-02
(PID.TID 0000.0001) %MON dynstat_uvel_max             =   1.7431262835993E-01
(PID.TID 0000.0001) %MON dynstat_uvel_min             =  -2.6689161754001E-01
(PID.TID 0000.0001) %MON dynstat_uvel_mean            =  -5.2338952824395E-04
(PID.TID 0000.0001) %MON dynstat_uvel_sd              =   1.2982419389028E-02
(PID.TID 0000.0001) %MON dynstat_uvel_del2            =   1.7894672482197E-03
(PID.TID 0000.0001) %MON dynstat_vvel_max             =   1.9487692073803E-01
(PID.TID 0000.0001) %MON dynstat_vvel_min             =  -2.1144374470453E-01
(PID.TID 0000.0001) %MON dynstat_vvel_mean            =  -4.1937262789951E-04
(PID.TID 0000.0001) %MON dynstat_vvel_sd              =   1.3489453645882E-02
(PID.TID 0000.0001) %MON dynstat_vvel_del2            =   1.8193926082041E-03
(PID.TID 0000.0001) %MON dynstat_wvel_max             =   8.9729395129517E-05
(PID.TID 0000.0001) %MON dynstat_wvel_min             =  -1.7789868844493E-04
(PID.TID 0000.0001) %MON dynstat_wvel_mean            =  -1.0222156575846E-09
(PID.TID 0000.0001) %MON dynstat_wvel_sd              =   4.6261602276414E-06
(PID.TID 0000.0001) %MON dynstat_wvel_del2            =   1.1356213643660E-06
(PID.TID 0000.0001) %MON dynstat_theta_max            =   2.9942561387311E+01
(PID.TID 0000.0001) %MON dynstat_theta_min            =  -3.4408542928150E+00
(PID.TID 0000.0001) %MON dynstat_theta_mean           =   3.5034706959734E+00
(PID.TID 0000.0001) %MON dynstat_theta_sd             =   4.7498736439163E+00
(PID.TID 0000.0001) %MON dynstat_theta_del2           =   9.5459212104056E-02
(PID.TID 0000.0001) %MON dynstat_salt_max             =   4.0838000643668E+01
(PID.TID 0000.0001) %MON dynstat_salt_min             =   1.8037325787954E+01
(PID.TID 0000.0001) %MON dynstat_salt_mean            =   3.4756122138116E+01
(PID.TID 0000.0001) %MON dynstat_salt_sd              =   5.1178443148977E-01
(PID.TID 0000.0001) %MON dynstat_salt_del2            =   2.0039466572463E-02
(PID.TID 0000.0001) %MON extforcing_qnet_max          =   8.0634676807827E+02
(PID.TID 0000.0001) %MON extforcing_qnet_min          =  -2.3478781404929E+02
(PID.TID 0000.0001) %MON extforcing_qnet_mean         =  -4.6616138561517E+00
(PID.TID 0000.0001) %MON extforcing_qnet_sd           =   1.2007771392793E+02
(PID.TID 0000.0001) %MON extforcing_qnet_del2         =   1.2673674644716E+01
(PID.TID 0000.0001) %MON extforcing_qsw_max           =   0.0000000000000E+00
(PID.TID 0000.0001) %MON extforcing_qsw_min           =   0.0000000000000E+00
(PID.TID 0000.0001) %MON extforcing_qsw_mean          =   0.0000000000000E+00
(PID.TID 0000.0001) %MON extforcing_qsw_sd            =   0.0000000000000E+00
(PID.TID 0000.0001) %MON extforcing_qsw_del2          =   0.0000000000000E+00
(PID.TID 0000.0001) %MON extforcing_empmr_max         =   7.4912872363407E-07
(PID.TID 0000.0001) %MON extforcing_empmr_min         =  -3.2052171015685E-07
(PID.TID 0000.0001) %MON extforcing_empmr_mean        =   5.1473532108418E-10
(PID.TID 0000.0001) %MON extforcing_empmr_sd          =   5.3062592485503E-08
(PID.TID 0000.0001) %MON extforcing_empmr_del2        =   8.6943307119724E-09
(PID.TID 0000.0001) %MON extforcing_fu_max            =   2.4787031343914E-01
(PID.TID 0000.0001) %MON extforcing_fu_min            =  -2.0690060242593E-01
(PID.TID 0000.0001) %MON extforcing_fu_mean           =  -1.4955985278373E-03
(PID.TID 0000.0001) %MON extforcing_fu_sd             =   6.1748757210439E-02
(PID.TID 0000.0001) %MON extforcing_fu_del2           =   3.4785310933711E-03
(PID.TID 0000.0001) %MON extforcing_fv_max            =   2.8232663773484E-01
(PID.TID 0000.0001) %MON extforcing_fv_min            =  -3.3558686729325E-01
(PID.TID 0000.0001) %MON extforcing_fv_mean           =  -5.4343462546523E-03
(PID.TID 0000.0001) %MON extforcing_fv_sd             =   6.9439231707152E-02
(PID.TID 0000.0001) %MON extforcing_fv_del2           =   3.4171694032282E-03
(PID.TID 0000.0001) %MON advcfl_uvel_max              =   7.5695525317773E-02
(PID.TID 0000.0001) %MON advcfl_vvel_max              =   8.4944104281908E-02
(PID.TID 0000.0001) %MON advcfl_wvel_max              =   5.8001685591103E-02
(PID.TID 0000.0001) %MON advcfl_W_hf_max              =   1.2072557841017E-01
(PID.TID 0000.0001) %MON pe_b_mean                    =  -1.9280303247829E-03
(PID.TID 0000.0001) %MON ke_max                       =   3.5501199699480E-02
(PID.TID 0000.0001) %MON ke_mean                      =   1.6205867922693E-04
(PID.TID 0000.0001) %MON ke_vol                       =   1.3395903887974E+18
(PID.TID 0000.0001) %MON vort_r_min                   =  -1.2635225936192E-06
(PID.TID 0000.0001) %MON vort_r_max                   =   1.4039207340412E-06
(PID.TID 0000.0001) %MON vort_a_mean                  =  -2.0493733748264E-05
(PID.TID 0000.0001) %MON vort_a_sd                    =   7.5054013032160E-05
(PID.TID 0000.0001) %MON vort_p_mean                  =  -2.4719492193142E-05
(PID.TID 0000.0001) %MON vort_p_sd                    =   1.2782295569249E-04
(PID.TID 0000.0001) %MON surfExpan_theta_mean         =   8.5642610481954E-08
(PID.TID 0000.0001) %MON surfExpan_salt_mean          =   1.9397598231255E-08
(PID.TID 0000.0001) // =======================================================
(PID.TID 0000.0001) // End MONITOR dynamic field statistics
(PID.TID 0000.0001) // =======================================================
(PID.TID 0000.0001) // =======================================================
(PID.TID 0000.0001) // Begin MONITOR Therm.SeaIce statistics
(PID.TID 0000.0001) // =======================================================
(PID.TID 0000.0001) %MON thSI_time_sec                =   3.1114368000000E+09
(PID.TID 0000.0001) %MON thSI_Ice_Area_G              =   2.4709719104449E+13
(PID.TID 0000.0001) %MON thSI_Ice_Area_S              =   1.1578533180503E+13
(PID.TID 0000.0001) %MON thSI_Ice_Area_N              =   1.3131185923947E+13
(PID.TID 0000.0001) %MON thSI_IceH_ave_G              =   4.6096140532437E+00
(PID.TID 0000.0001) %MON thSI_IceH_ave_S              =   5.8392859441049E+00
(PID.TID 0000.0001) %MON thSI_IceH_ave_N              =   3.5253405632535E+00
(PID.TID 0000.0001) %MON thSI_IceH_max_S              =   1.0000000000000E+01
(PID.TID 0000.0001) %MON thSI_IceH_max_N              =   1.0000000000000E+01
(PID.TID 0000.0001) %MON thSI_SnwH_ave_G              =   1.0178977295139E+00
(PID.TID 0000.0001) %MON thSI_SnwH_ave_S              =   1.7510884686559E+00
(PID.TID 0000.0001) %MON thSI_SnwH_ave_N              =   3.7140065377669E-01
(PID.TID 0000.0001) %MON thSI_SnwH_max_S              =   4.0933014159063E+00
(PID.TID 0000.0001) %MON thSI_SnwH_max_N              =   4.1042798133983E+00
(PID.TID 0000.0001) %MON thSI_TotEnerg_G              =  -3.8155500607809E+22
(PID.TID 0000.0001) %MON thSI_Tsrf_ave_G              =  -1.7644531509710E+01
(PID.TID 0000.0001) %MON thSI_Tsrf_ave_S              =  -1.4471026390335E-01
(PID.TID 0000.0001) %MON thSI_Tsrf_ave_N              =  -3.3075145478699E+01
(PID.TID 0000.0001) %MON thSI_Tsrf_min_S              =  -5.4823886117445E+00
(PID.TID 0000.0001) %MON thSI_Tsrf_min_N              =  -4.7502288229862E+01
(PID.TID 0000.0001) %MON thSI_Tsrf_max_S              =   0.0000000000000E+00
(PID.TID 0000.0001) %MON thSI_Tsrf_max_N              =  -6.5212552728805E+00
(PID.TID 0000.0001) %MON thSI_Tic1_ave_G              =  -8.5874463650789E+00
(PID.TID 0000.0001) %MON thSI_Tic1_ave_S              =  -4.9040174353366E+00
(PID.TID 0000.0001) %MON thSI_Tic1_ave_N              =  -1.3967177278347E+01
(PID.TID 0000.0001) %MON thSI_Tic1_min_S              =  -1.4927329233639E+01
(PID.TID 0000.0001) %MON thSI_Tic1_min_N              =  -2.1393169986452E+01
(PID.TID 0000.0001) %MON thSI_Tic1_max_S              =  -1.7178262108339E-01
(PID.TID 0000.0001) %MON thSI_Tic1_max_N              =  -8.2079751036272E-01
(PID.TID 0000.0001) %MON thSI_Tic2_ave_G              =  -3.8867444669151E+00
(PID.TID 0000.0001) %MON thSI_Tic2_ave_S              =  -3.0625921780973E+00
(PID.TID 0000.0001) %MON thSI_Tic2_ave_N              =  -5.0904374470058E+00
(PID.TID 0000.0001) %MON thSI_Tic2_min_S              =  -8.4612722816107E+00
(PID.TID 0000.0001) %MON thSI_Tic2_min_N              =  -7.7895925587694E+00
(PID.TID 0000.0001) %MON thSI_Tic2_max_S              =  -1.0404324800264E+00
(PID.TID 0000.0001) %MON thSI_Tic2_max_N              =  -1.3560400083277E+00
(PID.TID 0000.0001) // =======================================================
(PID.TID 0000.0001) // End MONITOR Therm.SeaIce statistics
(PID.TID 0000.0001) // =======================================================
 cg2d: Sum(rhs),rhsMax =   3.91862803396810E+02  2.30180949153696E+02
(PID.TID 0000.0001)                    cg2d_init_res =    2.69370502904187E+00
(PID.TID 0000.0001)                       cg2d_iters =    70
(PID.TID 0000.0001)                         cg2d_res =    4.86569689680386E-07
(PID.TID 0000.0001) // =======================================================
(PID.TID 0000.0001) // Begin MONITOR dynamic field statistics
(PID.TID 0000.0001) // =======================================================
(PID.TID 0000.0001) %MON time_tsnumber                =                 36013
(PID.TID 0000.0001) %MON time_secondsf                =   3.1115232000000E+09
(PID.TID 0000.0001) %MON dynstat_eta_max              =   7.1776572378234E-01
(PID.TID 0000.0001) %MON dynstat_eta_min              =  -1.1959747501120E+01
(PID.TID 0000.0001) %MON dynstat_eta_mean             =  -5.8283440972204E-01
(PID.TID 0000.0001) %MON dynstat_eta_sd               =   1.6987603518952E+00
(PID.TID 0000.0001) %MON dynstat_eta_del2             =   9.8458814144053E-02
(PID.TID 0000.0001) %MON dynstat_uvel_max             =   1.7410064011812E-01
(PID.TID 0000.0001) %MON dynstat_uvel_min             =  -2.6642872890784E-01
(PID.TID 0000.0001) %MON dynstat_uvel_mean            =  -5.2276012306329E-04
(PID.TID 0000.0001) %MON dynstat_uvel_sd              =   1.2982270855153E-02
(PID.TID 0000.0001) %MON dynstat_uvel_del2            =   1.7894382267883E-03
(PID.TID 0000.0001) %MON dynstat_vvel_max             =   1.9463666302060E-01
(PID.TID 0000.0001) %MON dynstat_vvel_min             =  -2.1148280279486E-01
(PID.TID 0000.0001) %MON dynstat_vvel_mean            =  -4.1882503958909E-04
(PID.TID 0000.0001) %MON dynstat_vvel_sd              =   1.3488870819947E-02
(PID.TID 0000.0001) %MON dynstat_vvel_del2            =   1.8185825504077E-03
(PID.TID 0000.0001) %MON dynstat_wvel_max             =   9.0399966802317E-05
(PID.TID 0000.0001) %MON dynstat_wvel_min             =  -1.7771044859451E-04
(PID.TID 0000.0001) %MON dynstat_wvel_mean            =  -1.0155136636043E-09
(PID.TID 0000.0001) %MON dynstat_wvel_sd              =   4.6261000940048E-06
(PID.TID 0000.0001) %MON dynstat_wvel_del2            =   1.1355823325185E-06
(PID.TID 0000.0001) %MON dynstat_theta_max            =   2.9923108707111E+01
(PID.TID 0000.0001) %MON dynstat_theta_min            =  -3.4591446581205E+00
(PID.TID 0000.0001) %MON dynstat_theta_mean           =   3.5035273145768E+00
(PID.TID 0000.0001) %MON dynstat_theta_sd             =   4.7499783927212E+00
(PID.TID 0000.0001) %MON dynstat_theta_del2           =   9.5499026497289E-02
(PID.TID 0000.0001) %MON dynstat_salt_max             =   4.0838992554451E+01
(PID.TID 0000.0001) %MON dynstat_salt_min             =   1.8038300756510E+01
(PID.TID 0000.0001) %MON dynstat_salt_mean            =   3.4756123422974E+01
(PID.TID 0000.0001) %MON dynstat_salt_sd              =   5.1177498192428E-01
(PID.TID 0000.0001) %MON dynstat_salt_del2            =   2.0040824112595E-02
(PID.TID 0000.0001) %MON extforcing_qnet_max          =   8.0944791164389E+02
(PID.TID 0000.0001) %MON extforcing_qnet_min          =  -2.3441207180221E+02
(PID.TID 0000.0001) %MON extforcing_qnet_mean         =  -4.6179066203530E+00
(PID.TID 0000.0001) %MON extforcing_qnet_sd           =   1.2013516540945E+02
(PID.TID 0000.0001) %MON extforcing_qnet_del2         =   1.2716302110923E+01
(PID.TID 0000.0001) %MON extforcing_qsw_max           =   0.0000000000000E+00
(PID.TID 0000.0001) %MON extforcing_qsw_min           =   0.0000000000000E+00
(PID.TID 0000.0001) %MON extforcing_qsw_mean          =   0.0000000000000E+00
(PID.TID 0000.0001) %MON extforcing_qsw_sd            =   0.0000000000000E+00
(PID.TID 0000.0001) %MON extforcing_qsw_del2          =   0.0000000000000E+00
(PID.TID 0000.0001) %MON extforcing_empmr_max         =   4.8168785137843E-07
(PID.TID 0000.0001) %MON extforcing_empmr_min         =  -3.2321591481167E-07
(PID.TID 0000.0001) %MON extforcing_empmr_mean        =   4.4476935480314E-10
(PID.TID 0000.0001) %MON extforcing_empmr_sd          =   5.2209572402621E-08
(PID.TID 0000.0001) %MON extforcing_empmr_del2        =   8.5839991352668E-09
(PID.TID 0000.0001) %MON extforcing_fu_max            =   2.4813468793793E-01
(PID.TID 0000.0001) %MON extforcing_fu_min            =  -2.0889746845507E-01
(PID.TID 0000.0001) %MON extforcing_fu_mean           =  -1.4978072147980E-03
(PID.TID 0000.0001) %MON extforcing_fu_sd             =   6.1856188687643E-02
(PID.TID 0000.0001) %MON extforcing_fu_del2           =   3.5028131025095E-03
(PID.TID 0000.0001) %MON extforcing_fv_max            =   2.8500987930747E-01
(PID.TID 0000.0001) %MON extforcing_fv_min            =  -3.3637477122718E-01
(PID.TID 0000.0001) %MON extforcing_fv_mean           =  -5.4954991097162E-03
(PID.TID 0000.0001) %MON extforcing_fv_sd             =   6.9688298509316E-02
(PID.TID 0000.0001) %MON extforcing_fv_del2           =   3.4395473063931E-03
(PID.TID 0000.0001) %MON advcfl_uvel_max              =   7.5564241321300E-02
(PID.TID 0000.0001) %MON advcfl_vvel_max              =   8.4839379327682E-02
(PID.TID 0000.0001) %MON advcfl_wvel_max              =   5.7940312296475E-02
(PID.TID 0000.0001) %MON advcfl_W_hf_max              =   1.1941515428910E-01
(PID.TID 0000.0001) %MON pe_b_mean                    =  -1.9272419576957E-03
(PID.TID 0000.0001) %MON ke_max                       =   3.5365912896193E-02
(PID.TID 0000.0001) %MON ke_mean                      =   1.6204911544658E-04
(PID.TID 0000.0001) %MON ke_vol                       =   1.3395903731615E+18
(PID.TID 0000.0001) %MON vort_r_min                   =  -1.2687477684617E-06
(PID.TID 0000.0001) %MON vort_r_max                   =   1.4070843768895E-06
(PID.TID 0000.0001) %MON vort_a_mean                  =  -2.0493733748264E-05
(PID.TID 0000.0001) %MON vort_a_sd                    =   7.5054012966051E-05
(PID.TID 0000.0001) %MON vort_p_mean                  =  -2.4719492074820E-05
(PID.TID 0000.0001) %MON vort_p_sd                    =   1.2782296528287E-04
(PID.TID 0000.0001) %MON surfExpan_theta_mean         =   8.5382961082677E-08
(PID.TID 0000.0001) %MON surfExpan_salt_mean          =   1.9499095524236E-08
(PID.TID 0000.0001) // =======================================================
(PID.TID 0000.0001) // End MONITOR dynamic field statistics
(PID.TID 0000.0001) // =======================================================
(PID.TID 0000.0001) // =======================================================
(PID.TID 0000.0001) // Begin MONITOR Therm.SeaIce statistics
(PID.TID 0000.0001) // =======================================================
(PID.TID 0000.0001) %MON thSI_time_sec                =   3.1115232000000E+09
(PID.TID 0000.0001) %MON thSI_Ice_Area_G              =   2.4693851437535E+13
(PID.TID 0000.0001) %MON thSI_Ice_Area_S              =   1.1543505746181E+13
(PID.TID 0000.0001) %MON thSI_Ice_Area_N              =   1.3150345691354E+13
(PID.TID 0000.0001) %MON thSI_IceH_ave_G              =   4.6130364426363E+00
(PID.TID 0000.0001) %MON thSI_IceH_ave_S              =   5.8498796700532E+00
(PID.TID 0000.0001) %MON thSI_IceH_ave_N              =   3.5273230144183E+00
(PID.TID 0000.0001) %MON thSI_IceH_max_S              =   1.0000000000000E+01
(PID.TID 0000.0001) %MON thSI_IceH_max_N              =   1.0000000000000E+01
(PID.TID 0000.0001) %MON thSI_SnwH_ave_G              =   1.0154782246296E+00
(PID.TID 0000.0001) %MON thSI_SnwH_ave_S              =   1.7465442274598E+00
(PID.TID 0000.0001) %MON thSI_SnwH_ave_N              =   3.7374113249695E-01
(PID.TID 0000.0001) %MON thSI_SnwH_max_S              =   4.0932394130896E+00
(PID.TID 0000.0001) %MON thSI_SnwH_max_N              =   4.1046418273509E+00
(PID.TID 0000.0001) %MON thSI_TotEnerg_G              =  -3.8153144311815E+22
(PID.TID 0000.0001) %MON thSI_Tsrf_ave_G              =  -1.7719071550203E+01
(PID.TID 0000.0001) %MON thSI_Tsrf_ave_S              =  -1.2906379060926E-01
(PID.TID 0000.0001) %MON thSI_Tsrf_ave_N              =  -3.3159757324854E+01
(PID.TID 0000.0001) %MON thSI_Tsrf_min_S              =  -5.4983441212318E+00
(PID.TID 0000.0001) %MON thSI_Tsrf_min_N              =  -4.7617389873503E+01
(PID.TID 0000.0001) %MON thSI_Tsrf_max_S              =   0.0000000000000E+00
(PID.TID 0000.0001) %MON thSI_Tsrf_max_N              =  -7.1058691723739E+00
(PID.TID 0000.0001) %MON thSI_Tic1_ave_G              =  -8.6089484705052E+00
(PID.TID 0000.0001) %MON thSI_Tic1_ave_S              =  -4.8828660974799E+00
(PID.TID 0000.0001) %MON thSI_Tic1_ave_N              =  -1.4033385931159E+01
(PID.TID 0000.0001) %MON thSI_Tic1_min_S              =  -1.4793279951474E+01
(PID.TID 0000.0001) %MON thSI_Tic1_min_N              =  -2.1448236485926E+01
(PID.TID 0000.0001) %MON thSI_Tic1_max_S              =  -1.6609590703309E-01
(PID.TID 0000.0001) %MON thSI_Tic1_max_N              =  -8.4318570040109E-01
(PID.TID 0000.0001) %MON thSI_Tic2_ave_G              =  -3.8970984417836E+00
(PID.TID 0000.0001) %MON thSI_Tic2_ave_S              =  -3.0587143328331E+00
(PID.TID 0000.0001) %MON thSI_Tic2_ave_N              =  -5.1176195445727E+00
(PID.TID 0000.0001) %MON thSI_Tic2_min_S              =  -8.4288319580798E+00
(PID.TID 0000.0001) %MON thSI_Tic2_min_N              =  -7.8171743726112E+00
(PID.TID 0000.0001) %MON thSI_Tic2_max_S              =  -9.9190462918245E-01
(PID.TID 0000.0001) %MON thSI_Tic2_max_N              =  -1.3696291511086E+00
(PID.TID 0000.0001) // =======================================================
(PID.TID 0000.0001) // End MONITOR Therm.SeaIce statistics
(PID.TID 0000.0001) // =======================================================
 cg2d: Sum(rhs),rhsMax =   3.91882474747682E+02  2.30293688722264E+02
(PID.TID 0000.0001)                    cg2d_init_res =    2.69278603151131E+00
(PID.TID 0000.0001)                       cg2d_iters =    70
(PID.TID 0000.0001)                         cg2d_res =    4.84204430561452E-07
(PID.TID 0000.0001) // =======================================================
(PID.TID 0000.0001) // Begin MONITOR dynamic field statistics
(PID.TID 0000.0001) // =======================================================
(PID.TID 0000.0001) %MON time_tsnumber                =                 36014
(PID.TID 0000.0001) %MON time_secondsf                =   3.1116096000000E+09
(PID.TID 0000.0001) %MON dynstat_eta_max              =   7.1641164415595E-01
(PID.TID 0000.0001) %MON dynstat_eta_min              =  -1.1956833389724E+01
(PID.TID 0000.0001) %MON dynstat_eta_mean             =  -5.8286366776867E-01
(PID.TID 0000.0001) %MON dynstat_eta_sd               =   1.6983331592107E+00
(PID.TID 0000.0001) %MON dynstat_eta_del2             =   9.8484970277386E-02
(PID.TID 0000.0001) %MON dynstat_uvel_max             =   1.7384463157426E-01
(PID.TID 0000.0001) %MON dynstat_uvel_min             =  -2.6595227768459E-01
(PID.TID 0000.0001) %MON dynstat_uvel_mean            =  -5.2207005867799E-04
(PID.TID 0000.0001) %MON dynstat_uvel_sd              =   1.2982291262759E-02
(PID.TID 0000.0001) %MON dynstat_uvel_del2            =   1.7896110508324E-03
(PID.TID 0000.0001) %MON dynstat_vvel_max             =   1.9434205342362E-01
(PID.TID 0000.0001) %MON dynstat_vvel_min             =  -2.1151698943210E-01
(PID.TID 0000.0001) %MON dynstat_vvel_mean            =  -4.1830319963249E-04
(PID.TID 0000.0001) %MON dynstat_vvel_sd              =   1.3487901650220E-02
(PID.TID 0000.0001) %MON dynstat_vvel_del2            =   1.8177464892921E-03
(PID.TID 0000.0001) %MON dynstat_wvel_max             =   9.1024674796305E-05
(PID.TID 0000.0001) %MON dynstat_wvel_min             =  -1.7749699545255E-04
(PID.TID 0000.0001) %MON dynstat_wvel_mean            =  -1.0283821654234E-09
(PID.TID 0000.0001) %MON dynstat_wvel_sd              =   4.6260274884476E-06
(PID.TID 0000.0001) %MON dynstat_wvel_del2            =   1.1355017601211E-06
(PID.TID 0000.0001) %MON dynstat_theta_max            =   2.9906591496925E+01
(PID.TID 0000.0001) %MON dynstat_theta_min            =  -3.4774068002343E+00
(PID.TID 0000.0001) %MON dynstat_theta_mean           =   3.5035835627955E+00
(PID.TID 0000.0001) %MON dynstat_theta_sd             =   4.7500873828473E+00
(PID.TID 0000.0001) %MON dynstat_theta_del2           =   9.5533854999003E-02
(PID.TID 0000.0001) %MON dynstat_salt_max             =   4.0839854972234E+01
(PID.TID 0000.0001) %MON dynstat_salt_min             =   1.8040956285671E+01
(PID.TID 0000.0001) %MON dynstat_salt_mean            =   3.4756124658499E+01
(PID.TID 0000.0001) %MON dynstat_salt_sd              =   5.1176497113463E-01
(PID.TID 0000.0001) %MON dynstat_salt_del2            =   2.0029866659732E-02
(PID.TID 0000.0001) %MON extforcing_qnet_max          =   8.1253452450912E+02
(PID.TID 0000.0001) %MON extforcing_qnet_min          =  -2.3403805339652E+02
(PID.TID 0000.0001) %MON extforcing_qnet_mean         =  -4.5714265513701E+00
(PID.TID 0000.0001) %MON extforcing_qnet_sd           =   1.2022985861095E+02
(PID.TID 0000.0001) %MON extforcing_qnet_del2         =   1.2764607316076E+01
(PID.TID 0000.0001) %MON extforcing_qsw_max           =   0.0000000000000E+00
(PID.TID 0000.0001) %MON extforcing_qsw_min           =   0.0000000000000E+00
(PID.TID 0000.0001) %MON extforcing_qsw_mean          =   0.0000000000000E+00
(PID.TID 0000.0001) %MON extforcing_qsw_sd            =   0.0000000000000E+00
(PID.TID 0000.0001) %MON extforcing_qsw_del2          =   0.0000000000000E+00
(PID.TID 0000.0001) %MON extforcing_empmr_max         =   3.8709872689627E-07
(PID.TID 0000.0001) %MON extforcing_empmr_min         =  -3.2458619443871E-07
(PID.TID 0000.0001) %MON extforcing_empmr_mean        =   3.5048701691978E-10
(PID.TID 0000.0001) %MON extforcing_empmr_sd          =   5.1966222278578E-08
(PID.TID 0000.0001) %MON extforcing_empmr_del2        =   8.5904597428546E-09
(PID.TID 0000.0001) %MON extforcing_fu_max            =   2.4839906243671E-01
(PID.TID 0000.0001) %MON extforcing_fu_min            =  -2.1105082572846E-01
(PID.TID 0000.0001) %MON extforcing_fu_mean           =  -1.5000159134199E-03
(PID.TID 0000.0001) %MON extforcing_fu_sd             =   6.1975901481096E-02
(PID.TID 0000.0001) %MON extforcing_fu_del2           =   3.5288759776386E-03
(PID.TID 0000.0001) %MON extforcing_fv_max            =   2.8769312088010E-01
(PID.TID 0000.0001) %MON extforcing_fv_min            =  -3.3716267516111E-01
(PID.TID 0000.0001) %MON extforcing_fv_mean           =  -5.5566518442188E-03
(PID.TID 0000.0001) %MON extforcing_fv_sd             =   6.9944844149898E-02
(PID.TID 0000.0001) %MON extforcing_fv_del2           =   3.4634871130626E-03
(PID.TID 0000.0001) %MON advcfl_uvel_max              =   7.5429110716734E-02
(PID.TID 0000.0001) %MON advcfl_vvel_max              =   8.4710963154882E-02
(PID.TID 0000.0001) %MON advcfl_wvel_max              =   5.7870718517361E-02
(PID.TID 0000.0001) %MON advcfl_W_hf_max              =   1.1805413472458E-01
(PID.TID 0000.0001) %MON pe_b_mean                    =  -1.9264649072436E-03
(PID.TID 0000.0001) %MON ke_max                       =   3.5228058771421E-02
(PID.TID 0000.0001) %MON ke_mean                      =   1.6203671380911E-04
(PID.TID 0000.0001) %MON ke_vol                       =   1.3395903596509E+18
(PID.TID 0000.0001) %MON vort_r_min                   =  -1.2739621330573E-06
(PID.TID 0000.0001) %MON vort_r_max                   =   1.4100497450184E-06
(PID.TID 0000.0001) %MON vort_a_mean                  =  -2.0493733748264E-05
(PID.TID 0000.0001) %MON vort_a_sd                    =   7.5054012903250E-05
(PID.TID 0000.0001) %MON vort_p_mean                  =  -2.4719491930423E-05
(PID.TID 0000.0001) %MON vort_p_sd                    =   1.2782297441401E-04
(PID.TID 0000.0001) %MON surfExpan_theta_mean         =   8.4932651957944E-08
(PID.TID 0000.0001) %MON surfExpan_salt_mean          =   1.9589791020177E-08
(PID.TID 0000.0001) // =======================================================
(PID.TID 0000.0001) // End MONITOR dynamic field statistics
(PID.TID 0000.0001) // =======================================================
(PID.TID 0000.0001) // =======================================================
(PID.TID 0000.0001) // Begin MONITOR Therm.SeaIce statistics
(PID.TID 0000.0001) // =======================================================
(PID.TID 0000.0001) %MON thSI_time_sec                =   3.1116096000000E+09
(PID.TID 0000.0001) %MON thSI_Ice_Area_G              =   2.4671035126859E+13
(PID.TID 0000.0001) %MON thSI_Ice_Area_S              =   1.1504958211944E+13
(PID.TID 0000.0001) %MON thSI_Ice_Area_N              =   1.3166076914915E+13
(PID.TID 0000.0001) %MON thSI_IceH_ave_G              =   4.6176108129013E+00
(PID.TID 0000.0001) %MON thSI_IceH_ave_S              =   5.8622696467283E+00
(PID.TID 0000.0001) %MON thSI_IceH_ave_N              =   3.5299863091218E+00
(PID.TID 0000.0001) %MON thSI_IceH_max_S              =   1.0000000000000E+01
(PID.TID 0000.0001) %MON thSI_IceH_max_N              =   1.0000000000000E+01
(PID.TID 0000.0001) %MON thSI_SnwH_ave_G              =   1.0133662075979E+00
(PID.TID 0000.0001) %MON thSI_SnwH_ave_S              =   1.7425622873530E+00
(PID.TID 0000.0001) %MON thSI_SnwH_ave_N              =   3.7617029266345E-01
(PID.TID 0000.0001) %MON thSI_SnwH_max_S              =   4.0931806738466E+00
(PID.TID 0000.0001) %MON thSI_SnwH_max_N              =   4.1050123396926E+00
(PID.TID 0000.0001) %MON thSI_TotEnerg_G              =  -3.8149628358299E+22
(PID.TID 0000.0001) %MON thSI_Tsrf_ave_G              =  -1.7819195406453E+01
(PID.TID 0000.0001) %MON thSI_Tsrf_ave_S              =  -1.4860117898143E-01
(PID.TID 0000.0001) %MON thSI_Tsrf_ave_N              =  -3.3260351453246E+01
(PID.TID 0000.0001) %MON thSI_Tsrf_min_S              =  -5.5142622643811E+00
(PID.TID 0000.0001) %MON thSI_Tsrf_min_N              =  -4.7732557758522E+01
(PID.TID 0000.0001) %MON thSI_Tsrf_max_S              =   0.0000000000000E+00
(PID.TID 0000.0001) %MON thSI_Tsrf_max_N              =  -7.4675586451738E+00
(PID.TID 0000.0001) %MON thSI_Tic1_ave_G              =  -8.6286533618987E+00
(PID.TID 0000.0001) %MON thSI_Tic1_ave_S              =  -4.8590551713227E+00
(PID.TID 0000.0001) %MON thSI_Tic1_ave_N              =  -1.4099020667110E+01
(PID.TID 0000.0001) %MON thSI_Tic1_min_S              =  -1.4660759552061E+01
(PID.TID 0000.0001) %MON thSI_Tic1_min_N              =  -2.1501494758735E+01
(PID.TID 0000.0001) %MON thSI_Tic1_max_S              =  -1.6075426989651E-01
(PID.TID 0000.0001) %MON thSI_Tic1_max_N              =  -8.6660164921992E-01
(PID.TID 0000.0001) %MON thSI_Tic2_ave_G              =  -3.9073640378038E+00
(PID.TID 0000.0001) %MON thSI_Tic2_ave_S              =  -3.0548053597869E+00
(PID.TID 0000.0001) %MON thSI_Tic2_ave_N              =  -5.1445805479499E+00
(PID.TID 0000.0001) %MON thSI_Tic2_min_S              =  -8.3951640283765E+00
(PID.TID 0000.0001) %MON thSI_Tic2_min_N              =  -7.8438854504297E+00
(PID.TID 0000.0001) %MON thSI_Tic2_max_S              =  -9.4392236592107E-01
(PID.TID 0000.0001) %MON thSI_Tic2_max_N              =  -1.3827856145470E+00
(PID.TID 0000.0001) // =======================================================
(PID.TID 0000.0001) // End MONITOR Therm.SeaIce statistics
(PID.TID 0000.0001) // =======================================================
 cg2d: Sum(rhs),rhsMax =   3.91898855605502E+02  2.30405838898337E+02
(PID.TID 0000.0001)                    cg2d_init_res =    2.65002470111318E+00
(PID.TID 0000.0001)                       cg2d_iters =    70
(PID.TID 0000.0001)                         cg2d_res =    4.77763040809686E-07
(PID.TID 0000.0001) // =======================================================
(PID.TID 0000.0001) // Begin MONITOR dynamic field statistics
(PID.TID 0000.0001) // =======================================================
(PID.TID 0000.0001) %MON time_tsnumber                =                 36015
(PID.TID 0000.0001) %MON time_secondsf                =   3.1116960000000E+09
(PID.TID 0000.0001) %MON dynstat_eta_max              =   7.1508333034480E-01
(PID.TID 0000.0001) %MON dynstat_eta_min              =  -1.1953767112945E+01
(PID.TID 0000.0001) %MON dynstat_eta_mean             =  -5.8288803172339E-01
(PID.TID 0000.0001) %MON dynstat_eta_sd               =   1.6979028810450E+00
(PID.TID 0000.0001) %MON dynstat_eta_del2             =   9.8509156132604E-02
(PID.TID 0000.0001) %MON dynstat_uvel_max             =   1.7355008785682E-01
(PID.TID 0000.0001) %MON dynstat_uvel_min             =  -2.6546223801039E-01
(PID.TID 0000.0001) %MON dynstat_uvel_mean            =  -5.2132450093875E-04
(PID.TID 0000.0001) %MON dynstat_uvel_sd              =   1.2982464199115E-02
(PID.TID 0000.0001) %MON dynstat_uvel_del2            =   1.7898002137584E-03
(PID.TID 0000.0001) %MON dynstat_vvel_max             =   1.9399672014893E-01
(PID.TID 0000.0001) %MON dynstat_vvel_min             =  -2.1154653306354E-01
(PID.TID 0000.0001) %MON dynstat_vvel_mean            =  -4.1779178633321E-04
(PID.TID 0000.0001) %MON dynstat_vvel_sd              =   1.3486575605756E-02
(PID.TID 0000.0001) %MON dynstat_vvel_del2            =   1.8169139243384E-03
(PID.TID 0000.0001) %MON dynstat_wvel_max             =   9.1594697943894E-05
(PID.TID 0000.0001) %MON dynstat_wvel_min             =  -1.7726451227179E-04
(PID.TID 0000.0001) %MON dynstat_wvel_mean            =  -1.0166002134199E-09
(PID.TID 0000.0001) %MON dynstat_wvel_sd              =   4.6259569034078E-06
(PID.TID 0000.0001) %MON dynstat_wvel_del2            =   1.1354435122689E-06
(PID.TID 0000.0001) %MON dynstat_theta_max            =   2.9893186902522E+01
(PID.TID 0000.0001) %MON dynstat_theta_min            =  -3.4956353602540E+00
(PID.TID 0000.0001) %MON dynstat_theta_mean           =   3.5036397566390E+00
(PID.TID 0000.0001) %MON dynstat_theta_sd             =   4.7502021428072E+00
(PID.TID 0000.0001) %MON dynstat_theta_del2           =   9.5536030818308E-02
(PID.TID 0000.0001) %MON dynstat_salt_max             =   4.0840589512616E+01
(PID.TID 0000.0001) %MON dynstat_salt_min             =   1.8093820668876E+01
(PID.TID 0000.0001) %MON dynstat_salt_mean            =   3.4756125877667E+01
(PID.TID 0000.0001) %MON dynstat_salt_sd              =   5.1175564762633E-01
(PID.TID 0000.0001) %MON dynstat_salt_del2            =   2.0021764578094E-02
(PID.TID 0000.0001) %MON extforcing_qnet_max          =   8.1560777054565E+02
(PID.TID 0000.0001) %MON extforcing_qnet_min          =  -2.3366571541828E+02
(PID.TID 0000.0001) %MON extforcing_qnet_mean         =  -4.5704418911354E+00
(PID.TID 0000.0001) %MON extforcing_qnet_sd           =   1.2029829378921E+02
(PID.TID 0000.0001) %MON extforcing_qnet_del2         =   1.2839102395832E+01
(PID.TID 0000.0001) %MON extforcing_qsw_max           =   0.0000000000000E+00
(PID.TID 0000.0001) %MON extforcing_qsw_min           =   0.0000000000000E+00
(PID.TID 0000.0001) %MON extforcing_qsw_mean          =   0.0000000000000E+00
(PID.TID 0000.0001) %MON extforcing_qsw_sd            =   0.0000000000000E+00
(PID.TID 0000.0001) %MON extforcing_qsw_del2          =   0.0000000000000E+00
(PID.TID 0000.0001) %MON extforcing_empmr_max         =   3.8740748487314E-07
(PID.TID 0000.0001) %MON extforcing_empmr_min         =  -3.2480520604592E-07
(PID.TID 0000.0001) %MON extforcing_empmr_mean        =   2.9185987424490E-10
(PID.TID 0000.0001) %MON extforcing_empmr_sd          =   5.1717487361519E-08
(PID.TID 0000.0001) %MON extforcing_empmr_del2        =   8.5619267277691E-09
(PID.TID 0000.0001) %MON extforcing_fu_max            =   2.4866343693550E-01
(PID.TID 0000.0001) %MON extforcing_fu_min            =  -2.1320418300184E-01
(PID.TID 0000.0001) %MON extforcing_fu_mean           =  -1.5022245816960E-03
(PID.TID 0000.0001) %MON extforcing_fu_sd             =   6.2107824604817E-02
(PID.TID 0000.0001) %MON extforcing_fu_del2           =   3.5566378701449E-03
(PID.TID 0000.0001) %MON extforcing_fv_max            =   2.9037636245273E-01
(PID.TID 0000.0001) %MON extforcing_fv_min            =  -3.3795057909504E-01
(PID.TID 0000.0001) %MON extforcing_fv_mean           =  -5.6178044695029E-03
(PID.TID 0000.0001) %MON extforcing_fv_sd             =   7.0208786612871E-02
(PID.TID 0000.0001) %MON extforcing_fv_del2           =   3.4895232834299E-03
(PID.TID 0000.0001) %MON advcfl_uvel_max              =   7.5290126169722E-02
(PID.TID 0000.0001) %MON advcfl_vvel_max              =   8.4560437245574E-02
(PID.TID 0000.0001) %MON advcfl_wvel_max              =   5.7794920227483E-02
(PID.TID 0000.0001) %MON advcfl_W_hf_max              =   1.1664438081638E-01
(PID.TID 0000.0001) %MON pe_b_mean                    =  -1.9256998215708E-03
(PID.TID 0000.0001) %MON ke_max                       =   3.5087683646696E-02
(PID.TID 0000.0001) %MON ke_mean                      =   1.6202164475896E-04
(PID.TID 0000.0001) %MON ke_vol                       =   1.3395903490043E+18
(PID.TID 0000.0001) %MON vort_r_min                   =  -1.2791405262142E-06
(PID.TID 0000.0001) %MON vort_r_max                   =   1.4127783434491E-06
(PID.TID 0000.0001) %MON vort_a_mean                  =  -2.0493733748264E-05
(PID.TID 0000.0001) %MON vort_a_sd                    =   7.5054012844486E-05
(PID.TID 0000.0001) %MON vort_p_mean                  =  -2.4719491744602E-05
(PID.TID 0000.0001) %MON vort_p_sd                    =   1.2782298244536E-04
(PID.TID 0000.0001) %MON surfExpan_theta_mean         =   8.4191072536510E-08
(PID.TID 0000.0001) %MON surfExpan_salt_mean          =   1.9595535343528E-08
(PID.TID 0000.0001) // =======================================================
(PID.TID 0000.0001) // End MONITOR dynamic field statistics
(PID.TID 0000.0001) // =======================================================
(PID.TID 0000.0001) // =======================================================
(PID.TID 0000.0001) // Begin MONITOR Therm.SeaIce statistics
(PID.TID 0000.0001) // =======================================================
(PID.TID 0000.0001) %MON thSI_time_sec                =   3.1116960000000E+09
(PID.TID 0000.0001) %MON thSI_Ice_Area_G              =   2.4648202622640E+13
(PID.TID 0000.0001) %MON thSI_Ice_Area_S              =   1.1468483094189E+13
(PID.TID 0000.0001) %MON thSI_Ice_Area_N              =   1.3179719528451E+13
(PID.TID 0000.0001) %MON thSI_IceH_ave_G              =   4.6220912744066E+00
(PID.TID 0000.0001) %MON thSI_IceH_ave_S              =   5.8737214997444E+00
(PID.TID 0000.0001) %MON thSI_IceH_ave_N              =   3.5329709749591E+00
(PID.TID 0000.0001) %MON thSI_IceH_max_S              =   1.0000000000000E+01
(PID.TID 0000.0001) %MON thSI_IceH_max_N              =   1.0000000000000E+01
(PID.TID 0000.0001) %MON thSI_SnwH_ave_G              =   1.0113262218187E+00
(PID.TID 0000.0001) %MON thSI_SnwH_ave_S              =   1.7384057581213E+00
(PID.TID 0000.0001) %MON thSI_SnwH_ave_N              =   3.7864968024163E-01
(PID.TID 0000.0001) %MON thSI_SnwH_max_S              =   4.0931246541825E+00
(PID.TID 0000.0001) %MON thSI_SnwH_max_N              =   4.1053878718442E+00
(PID.TID 0000.0001) %MON thSI_TotEnerg_G              =  -3.8145570107288E+22
(PID.TID 0000.0001) %MON thSI_Tsrf_ave_G              =  -1.7897087756822E+01
(PID.TID 0000.0001) %MON thSI_Tsrf_ave_S              =  -1.3197948299519E-01
(PID.TID 0000.0001) %MON thSI_Tsrf_ave_N              =  -3.3355599105642E+01
(PID.TID 0000.0001) %MON thSI_Tsrf_min_S              =  -5.5301433623120E+00
(PID.TID 0000.0001) %MON thSI_Tsrf_min_N              =  -4.7847792955468E+01
(PID.TID 0000.0001) %MON thSI_Tsrf_max_S              =   0.0000000000000E+00
(PID.TID 0000.0001) %MON thSI_Tsrf_max_N              =  -7.7287559825651E+00
(PID.TID 0000.0001) %MON thSI_Tic1_ave_G              =  -8.6502149693545E+00
(PID.TID 0000.0001) %MON thSI_Tic1_ave_S              =  -4.8389796420789E+00
(PID.TID 0000.0001) %MON thSI_Tic1_ave_N              =  -1.4163860689678E+01
(PID.TID 0000.0001) %MON thSI_Tic1_min_S              =  -1.4529751417015E+01
(PID.TID 0000.0001) %MON thSI_Tic1_min_N              =  -2.1566733172161E+01
(PID.TID 0000.0001) %MON thSI_Tic1_max_S              =  -1.5572836242443E-01
(PID.TID 0000.0001) %MON thSI_Tic1_max_N              =  -8.9110066298285E-01
(PID.TID 0000.0001) %MON thSI_Tic2_ave_G              =  -3.9175374429390E+00
(PID.TID 0000.0001) %MON thSI_Tic2_ave_S              =  -3.0509817652924E+00
(PID.TID 0000.0001) %MON thSI_Tic2_ave_N              =  -5.1711679834842E+00
(PID.TID 0000.0001) %MON thSI_Tic2_min_S              =  -8.3614740830004E+00
(PID.TID 0000.0001) %MON thSI_Tic2_min_N              =  -7.8697529071989E+00
(PID.TID 0000.0001) %MON thSI_Tic2_max_S              =  -1.0338322878226E+00
(PID.TID 0000.0001) %MON thSI_Tic2_max_N              =  -1.3955466908911E+00
(PID.TID 0000.0001) // =======================================================
(PID.TID 0000.0001) // End MONITOR Therm.SeaIce statistics
(PID.TID 0000.0001) // =======================================================
S/R BULKF_FIELDS_LOAD: Reading new data:    1    2     36015  3.111696000000E+09
(PID.TID 0000.0001)  MDS_READ_FIELD: opening global file: ncep_tair_cs.bin
(PID.TID 0000.0001)  MDS_READ_FIELD: opening global file: ncep_tair_cs.bin
(PID.TID 0000.0001)  MDS_READ_FIELD: opening global file: ncep_qair_cs.bin
(PID.TID 0000.0001)  MDS_READ_FIELD: opening global file: ncep_qair_cs.bin
(PID.TID 0000.0001)  MDS_READ_FIELD: opening global file: ncep_downsolar_cs.bin
(PID.TID 0000.0001)  MDS_READ_FIELD: opening global file: ncep_downsolar_cs.bin
(PID.TID 0000.0001)  MDS_READ_FIELD: opening global file: ncep_downlw_cs.bin
(PID.TID 0000.0001)  MDS_READ_FIELD: opening global file: ncep_downlw_cs.bin
(PID.TID 0000.0001)  MDS_READ_FIELD: opening global file: ncep_windspeed_cs.bin
(PID.TID 0000.0001)  MDS_READ_FIELD: opening global file: ncep_windspeed_cs.bin
(PID.TID 0000.0001)  MDS_READ_FIELD: opening global file: ncep_pr_scal_cs.bin
(PID.TID 0000.0001)  MDS_READ_FIELD: opening global file: ncep_pr_scal_cs.bin
S/R EXTERNAL_FIELDS_LOAD: Reading new data:    1    2     36015  3.111696000000E+09
(PID.TID 0000.0001)  MDS_READ_FIELD: opening global file: trenberth_taux.bin
(PID.TID 0000.0001)  MDS_READ_FIELD: opening global file: trenberth_taux.bin
(PID.TID 0000.0001)  MDS_READ_FIELD: opening global file: trenberth_tauy.bin
(PID.TID 0000.0001)  MDS_READ_FIELD: opening global file: trenberth_tauy.bin
(PID.TID 0000.0001)  MDS_READ_FIELD: opening global file: lev_surfT_cs_12m.bin
(PID.TID 0000.0001)  MDS_READ_FIELD: opening global file: lev_surfT_cs_12m.bin
(PID.TID 0000.0001)  MDS_READ_FIELD: opening global file: lev_surfS_cs_12m.bin
(PID.TID 0000.0001)  MDS_READ_FIELD: opening global file: lev_surfS_cs_12m.bin
 cg2d: Sum(rhs),rhsMax =   3.91910774878077E+02  2.30515745296908E+02
(PID.TID 0000.0001)                    cg2d_init_res =    2.61209430586487E+00
(PID.TID 0000.0001)                       cg2d_iters =    70
(PID.TID 0000.0001)                         cg2d_res =    4.60865475668330E-07
(PID.TID 0000.0001) // =======================================================
(PID.TID 0000.0001) // Begin MONITOR dynamic field statistics
(PID.TID 0000.0001) // =======================================================
(PID.TID 0000.0001) %MON time_tsnumber                =                 36016
(PID.TID 0000.0001) %MON time_secondsf                =   3.1117824000000E+09
(PID.TID 0000.0001) %MON dynstat_eta_max              =   7.1379067843944E-01
(PID.TID 0000.0001) %MON dynstat_eta_min              =  -1.1950556575057E+01
(PID.TID 0000.0001) %MON dynstat_eta_mean             =  -5.8290575977039E-01
(PID.TID 0000.0001) %MON dynstat_eta_sd               =   1.6974592648990E+00
(PID.TID 0000.0001) %MON dynstat_eta_del2             =   9.8540186136841E-02
(PID.TID 0000.0001) %MON dynstat_uvel_max             =   1.7322287969916E-01
(PID.TID 0000.0001) %MON dynstat_uvel_min             =  -2.6495856658634E-01
(PID.TID 0000.0001) %MON dynstat_uvel_mean            =  -5.2053986522099E-04
(PID.TID 0000.0001) %MON dynstat_uvel_sd              =   1.2982763125458E-02
(PID.TID 0000.0001) %MON dynstat_uvel_del2            =   1.7899896981559E-03
(PID.TID 0000.0001) %MON dynstat_vvel_max             =   1.9360462135302E-01
(PID.TID 0000.0001) %MON dynstat_vvel_min             =  -2.1157163937571E-01
(PID.TID 0000.0001) %MON dynstat_vvel_mean            =  -4.1727048240947E-04
(PID.TID 0000.0001) %MON dynstat_vvel_sd              =   1.3484933144580E-02
(PID.TID 0000.0001) %MON dynstat_vvel_del2            =   1.8161652600015E-03
(PID.TID 0000.0001) %MON dynstat_wvel_max             =   9.2112625815238E-05
(PID.TID 0000.0001) %MON dynstat_wvel_min             =  -1.7702392506687E-04
(PID.TID 0000.0001) %MON dynstat_wvel_mean            =  -1.0189267781364E-09
(PID.TID 0000.0001) %MON dynstat_wvel_sd              =   4.6258235298325E-06
(PID.TID 0000.0001) %MON dynstat_wvel_del2            =   1.1355364280723E-06
(PID.TID 0000.0001) %MON dynstat_theta_max            =   2.9879657127327E+01
(PID.TID 0000.0001) %MON dynstat_theta_min            =  -3.5138068132802E+00
(PID.TID 0000.0001) %MON dynstat_theta_mean           =   3.5036955307384E+00
(PID.TID 0000.0001) %MON dynstat_theta_sd             =   4.7503217364709E+00
(PID.TID 0000.0001) %MON dynstat_theta_del2           =   9.5583085864780E-02
(PID.TID 0000.0001) %MON dynstat_salt_max             =   4.0841197652275E+01
(PID.TID 0000.0001) %MON dynstat_salt_min             =   1.8095244593337E+01
(PID.TID 0000.0001) %MON dynstat_salt_mean            =   3.4756127054369E+01
(PID.TID 0000.0001) %MON dynstat_salt_sd              =   5.1174674218331E-01
(PID.TID 0000.0001) %MON dynstat_salt_del2            =   2.0024727612943E-02
(PID.TID 0000.0001) %MON extforcing_qnet_max          =   8.1866602284435E+02
(PID.TID 0000.0001) %MON extforcing_qnet_min          =  -2.3329501597347E+02
(PID.TID 0000.0001) %MON extforcing_qnet_mean         =  -4.5320771275093E+00
(PID.TID 0000.0001) %MON extforcing_qnet_sd           =   1.2040673386254E+02
(PID.TID 0000.0001) %MON extforcing_qnet_del2         =   1.2914139524920E+01
(PID.TID 0000.0001) %MON extforcing_qsw_max           =   0.0000000000000E+00
(PID.TID 0000.0001) %MON extforcing_qsw_min           =   0.0000000000000E+00
(PID.TID 0000.0001) %MON extforcing_qsw_mean          =   0.0000000000000E+00
(PID.TID 0000.0001) %MON extforcing_qsw_sd            =   0.0000000000000E+00
(PID.TID 0000.0001) %MON extforcing_qsw_del2          =   0.0000000000000E+00
(PID.TID 0000.0001) %MON extforcing_empmr_max         =   3.8772292421008E-07
(PID.TID 0000.0001) %MON extforcing_empmr_min         =  -3.2395438384213E-07
(PID.TID 0000.0001) %MON extforcing_empmr_mean        =   2.1236722967234E-10
(PID.TID 0000.0001) %MON extforcing_empmr_sd          =   5.1514497799180E-08
(PID.TID 0000.0001) %MON extforcing_empmr_del2        =   8.5605849105574E-09
(PID.TID 0000.0001) %MON extforcing_fu_max            =   2.4892781143428E-01
(PID.TID 0000.0001) %MON extforcing_fu_min            =  -2.1535754027523E-01
(PID.TID 0000.0001) %MON extforcing_fu_mean           =  -1.5044331850512E-03
(PID.TID 0000.0001) %MON extforcing_fu_sd             =   6.2251880471961E-02
(PID.TID 0000.0001) %MON extforcing_fu_del2           =   3.5863906188079E-03
(PID.TID 0000.0001) %MON extforcing_fv_max            =   2.9305960402537E-01
(PID.TID 0000.0001) %MON extforcing_fv_min            =  -3.3950131228473E-01
(PID.TID 0000.0001) %MON extforcing_fv_mean           =  -5.6789570198822E-03
(PID.TID 0000.0001) %MON extforcing_fv_sd             =   7.0480042793173E-02
(PID.TID 0000.0001) %MON extforcing_fv_del2           =   3.5172812437129E-03
(PID.TID 0000.0001) %MON advcfl_uvel_max              =   7.5147275399875E-02
(PID.TID 0000.0001) %MON advcfl_vvel_max              =   8.4389526904405E-02
(PID.TID 0000.0001) %MON advcfl_wvel_max              =   5.7716479719914E-02
(PID.TID 0000.0001) %MON advcfl_W_hf_max              =   1.1518770931542E-01
(PID.TID 0000.0001) %MON pe_b_mean                    =  -1.9249213605000E-03
(PID.TID 0000.0001) %MON ke_max                       =   3.4944823409624E-02
(PID.TID 0000.0001) %MON ke_mean                      =   1.6200409920792E-04
(PID.TID 0000.0001) %MON ke_vol                       =   1.3395903401386E+18
(PID.TID 0000.0001) %MON vort_r_min                   =  -1.2842596276191E-06
(PID.TID 0000.0001) %MON vort_r_max                   =   1.4152294704027E-06
(PID.TID 0000.0001) %MON vort_a_mean                  =  -2.0493733748264E-05
(PID.TID 0000.0001) %MON vort_a_sd                    =   7.5054012791189E-05
(PID.TID 0000.0001) %MON vort_p_mean                  =  -2.4719491538566E-05
(PID.TID 0000.0001) %MON vort_p_sd                    =   1.2782298948061E-04
(PID.TID 0000.0001) %MON surfExpan_theta_mean         =   8.3567825293212E-08
(PID.TID 0000.0001) %MON surfExpan_salt_mean          =   1.9619038469470E-08
(PID.TID 0000.0001) // =======================================================
(PID.TID 0000.0001) // End MONITOR dynamic field statistics
(PID.TID 0000.0001) // =======================================================
(PID.TID 0000.0001) // =======================================================
(PID.TID 0000.0001) // Begin MONITOR Therm.SeaIce statistics
(PID.TID 0000.0001) // =======================================================
(PID.TID 0000.0001) %MON thSI_time_sec                =   3.1117824000000E+09
(PID.TID 0000.0001) %MON thSI_Ice_Area_G              =   2.4623616359557E+13
(PID.TID 0000.0001) %MON thSI_Ice_Area_S              =   1.1432047513580E+13
(PID.TID 0000.0001) %MON thSI_Ice_Area_N              =   1.3191568845976E+13
(PID.TID 0000.0001) %MON thSI_IceH_ave_G              =   4.6267483617385E+00
(PID.TID 0000.0001) %MON thSI_IceH_ave_S              =   5.8851378358536E+00
(PID.TID 0000.0001) %MON thSI_IceH_ave_N              =   3.5362057260109E+00
(PID.TID 0000.0001) %MON thSI_IceH_max_S              =   1.0000000000000E+01
(PID.TID 0000.0001) %MON thSI_IceH_max_N              =   1.0000000000000E+01
(PID.TID 0000.0001) %MON thSI_SnwH_ave_G              =   1.0094725857503E+00
(PID.TID 0000.0001) %MON thSI_SnwH_ave_S              =   1.7344883597628E+00
(PID.TID 0000.0001) %MON thSI_SnwH_ave_N              =   3.8116105788128E-01
(PID.TID 0000.0001) %MON thSI_SnwH_max_S              =   4.0930708277794E+00
(PID.TID 0000.0001) %MON thSI_SnwH_max_N              =   4.1057642787849E+00
(PID.TID 0000.0001) %MON thSI_TotEnerg_G              =  -3.8140412168185E+22
(PID.TID 0000.0001) %MON thSI_Tsrf_ave_G              =  -1.7990506506369E+01
(PID.TID 0000.0001) %MON thSI_Tsrf_ave_S              =  -1.5252674620956E-01
(PID.TID 0000.0001) %MON thSI_Tsrf_ave_N              =  -3.3449216121990E+01
(PID.TID 0000.0001) %MON thSI_Tsrf_min_S              =  -5.5459877382032E+00
(PID.TID 0000.0001) %MON thSI_Tsrf_min_N              =  -4.7963096485571E+01
(PID.TID 0000.0001) %MON thSI_Tsrf_max_S              =   0.0000000000000E+00
(PID.TID 0000.0001) %MON thSI_Tsrf_max_N              =  -7.9483709861634E+00
(PID.TID 0000.0001) %MON thSI_Tic1_ave_G              =  -8.6695546173947E+00
(PID.TID 0000.0001) %MON thSI_Tic1_ave_S              =  -4.8157923577794E+00
(PID.TID 0000.0001) %MON thSI_Tic1_ave_N              =  -1.4227721824925E+01
(PID.TID 0000.0001) %MON thSI_Tic1_min_S              =  -1.4400238971289E+01
(PID.TID 0000.0001) %MON thSI_Tic1_min_N              =  -2.1666976307324E+01
(PID.TID 0000.0001) %MON thSI_Tic1_max_S              =  -1.5099240485892E-01
(PID.TID 0000.0001) %MON thSI_Tic1_max_N              =  -9.1674086823755E-01
(PID.TID 0000.0001) %MON thSI_Tic2_ave_G              =  -3.9274892401240E+00
(PID.TID 0000.0001) %MON thSI_Tic2_ave_S              =  -3.0469843636172E+00
(PID.TID 0000.0001) %MON thSI_Tic2_ave_N              =  -5.1974153541337E+00
(PID.TID 0000.0001) %MON thSI_Tic2_min_S              =  -8.3266001872742E+00
(PID.TID 0000.0001) %MON thSI_Tic2_min_N              =  -7.8948031209816E+00
(PID.TID 0000.0001) %MON thSI_Tic2_max_S              =  -1.0050013110666E+00
(PID.TID 0000.0001) %MON thSI_Tic2_max_N              =  -1.4079575401149E+00
(PID.TID 0000.0001) // =======================================================
(PID.TID 0000.0001) // End MONITOR Therm.SeaIce statistics
(PID.TID 0000.0001) // =======================================================
 cg2d: Sum(rhs),rhsMax =   3.91934892019830E+02  2.30622711459998E+02
(PID.TID 0000.0001)                    cg2d_init_res =    2.59840363142094E+00
(PID.TID 0000.0001)                       cg2d_iters =    69
(PID.TID 0000.0001)                         cg2d_res =    5.78269222844671E-07
(PID.TID 0000.0001) // =======================================================
(PID.TID 0000.0001) // Begin MONITOR dynamic field statistics
(PID.TID 0000.0001) // =======================================================
(PID.TID 0000.0001) %MON time_tsnumber                =                 36017
(PID.TID 0000.0001) %MON time_secondsf                =   3.1118688000000E+09
(PID.TID 0000.0001) %MON dynstat_eta_max              =   7.1262936633672E-01
(PID.TID 0000.0001) %MON dynstat_eta_min              =  -1.1947456134453E+01
(PID.TID 0000.0001) %MON dynstat_eta_mean             =  -5.8294163023310E-01
(PID.TID 0000.0001) %MON dynstat_eta_sd               =   1.6970570777115E+00
(PID.TID 0000.0001) %MON dynstat_eta_del2             =   9.8573863404572E-02
(PID.TID 0000.0001) %MON dynstat_uvel_max             =   1.7292307115952E-01
(PID.TID 0000.0001) %MON dynstat_uvel_min             =  -2.6444552215102E-01
(PID.TID 0000.0001) %MON dynstat_uvel_mean            =  -5.1974181626523E-04
(PID.TID 0000.0001) %MON dynstat_uvel_sd              =   1.2983257738930E-02
(PID.TID 0000.0001) %MON dynstat_uvel_del2            =   1.7902356058390E-03
(PID.TID 0000.0001) %MON dynstat_vvel_max             =   1.9316912446098E-01
(PID.TID 0000.0001) %MON dynstat_vvel_min             =  -2.1158535517476E-01
(PID.TID 0000.0001) %MON dynstat_vvel_mean            =  -4.1674655959123E-04
(PID.TID 0000.0001) %MON dynstat_vvel_sd              =   1.3482665482031E-02
(PID.TID 0000.0001) %MON dynstat_vvel_del2            =   1.8154715017323E-03
(PID.TID 0000.0001) %MON dynstat_wvel_max             =   9.2578246482479E-05
(PID.TID 0000.0001) %MON dynstat_wvel_min             =  -1.7677610313323E-04
(PID.TID 0000.0001) %MON dynstat_wvel_mean            =  -9.6790495448917E-10
(PID.TID 0000.0001) %MON dynstat_wvel_sd              =   4.6256188122705E-06
(PID.TID 0000.0001) %MON dynstat_wvel_del2            =   1.1356864662389E-06
(PID.TID 0000.0001) %MON dynstat_theta_max            =   2.9866154788753E+01
(PID.TID 0000.0001) %MON dynstat_theta_min            =  -3.5319769487459E+00
(PID.TID 0000.0001) %MON dynstat_theta_mean           =   3.5037522668601E+00
(PID.TID 0000.0001) %MON dynstat_theta_sd             =   4.7504516467122E+00
(PID.TID 0000.0001) %MON dynstat_theta_del2           =   9.5643884022979E-02
(PID.TID 0000.0001) %MON dynstat_salt_max             =   4.0841687638012E+01
(PID.TID 0000.0001) %MON dynstat_salt_min             =   1.8096662343878E+01
(PID.TID 0000.0001) %MON dynstat_salt_mean            =   3.4756128403039E+01
(PID.TID 0000.0001) %MON dynstat_salt_sd              =   5.1173774215585E-01
(PID.TID 0000.0001) %MON dynstat_salt_del2            =   2.0023491303149E-02
(PID.TID 0000.0001) %MON extforcing_qnet_max          =   8.1172255533161E+02
(PID.TID 0000.0001) %MON extforcing_qnet_min          =  -2.3175166107480E+02
(PID.TID 0000.0001) %MON extforcing_qnet_mean         =  -4.6723389016746E+00
(PID.TID 0000.0001) %MON extforcing_qnet_sd           =   1.1831830670663E+02
(PID.TID 0000.0001) %MON extforcing_qnet_del2         =   1.2793091563510E+01
(PID.TID 0000.0001) %MON extforcing_qsw_max           =   0.0000000000000E+00
(PID.TID 0000.0001) %MON extforcing_qsw_min           =   0.0000000000000E+00
(PID.TID 0000.0001) %MON extforcing_qsw_mean          =   0.0000000000000E+00
(PID.TID 0000.0001) %MON extforcing_qsw_sd            =   0.0000000000000E+00
(PID.TID 0000.0001) %MON extforcing_qsw_del2          =   0.0000000000000E+00
(PID.TID 0000.0001) %MON extforcing_empmr_max         =   3.8792514297474E-07
(PID.TID 0000.0001) %MON extforcing_empmr_min         =  -3.2033399027813E-07
(PID.TID 0000.0001) %MON extforcing_empmr_mean        =   4.2969825124606E-10
(PID.TID 0000.0001) %MON extforcing_empmr_sd          =   5.1422591237730E-08
(PID.TID 0000.0001) %MON extforcing_empmr_del2        =   8.5834034014578E-09
(PID.TID 0000.0001) %MON extforcing_fu_max            =   2.4586080052368E-01
(PID.TID 0000.0001) %MON extforcing_fu_min            =  -2.1357997216533E-01
(PID.TID 0000.0001) %MON extforcing_fu_mean           =  -1.5675393836349E-03
(PID.TID 0000.0001) %MON extforcing_fu_sd             =   6.2042031212914E-02
(PID.TID 0000.0001) %MON extforcing_fu_del2           =   3.5486979008902E-03
(PID.TID 0000.0001) %MON extforcing_fv_max            =   2.9225622243089E-01
(PID.TID 0000.0001) %MON extforcing_fv_min            =  -3.3606226010595E-01
(PID.TID 0000.0001) %MON extforcing_fv_mean           =  -5.5267952713054E-03
(PID.TID 0000.0001) %MON extforcing_fv_sd             =   7.0068321293350E-02
(PID.TID 0000.0001) %MON extforcing_fv_del2           =   3.4842187020941E-03
(PID.TID 0000.0001) %MON advcfl_uvel_max              =   7.5001766266240E-02
(PID.TID 0000.0001) %MON advcfl_vvel_max              =   8.4199699944540E-02
(PID.TID 0000.0001) %MON advcfl_wvel_max              =   5.7635680417778E-02
(PID.TID 0000.0001) %MON advcfl_W_hf_max              =   1.1368387803498E-01
(PID.TID 0000.0001) %MON pe_b_mean                    =  -1.9243352721135E-03
(PID.TID 0000.0001) %MON ke_max                       =   3.4801867901968E-02
(PID.TID 0000.0001) %MON ke_mean                      =   1.6198106231384E-04
(PID.TID 0000.0001) %MON ke_vol                       =   1.3395903336876E+18
(PID.TID 0000.0001) %MON vort_r_min                   =  -1.2891245465037E-06
(PID.TID 0000.0001) %MON vort_r_max                   =   1.4171609011569E-06
(PID.TID 0000.0001) %MON vort_a_mean                  =  -2.0493733748264E-05
(PID.TID 0000.0001) %MON vort_a_sd                    =   7.5054012749074E-05
(PID.TID 0000.0001) %MON vort_p_mean                  =  -2.4719491297643E-05
(PID.TID 0000.0001) %MON vort_p_sd                    =   1.2782299518440E-04
(PID.TID 0000.0001) %MON surfExpan_theta_mean         =   8.2569190922093E-08
(PID.TID 0000.0001) %MON surfExpan_salt_mean          =   1.9511168400145E-08
(PID.TID 0000.0001) // =======================================================
(PID.TID 0000.0001) // End MONITOR dynamic field statistics
(PID.TID 0000.0001) // =======================================================
(PID.TID 0000.0001) // =======================================================
(PID.TID 0000.0001) // Begin MONITOR Therm.SeaIce statistics
(PID.TID 0000.0001) // =======================================================
(PID.TID 0000.0001) %MON thSI_time_sec                =   3.1118688000000E+09
(PID.TID 0000.0001) %MON thSI_Ice_Area_G              =   2.4620087451673E+13
(PID.TID 0000.0001) %MON thSI_Ice_Area_S              =   1.1394100339855E+13
(PID.TID 0000.0001) %MON thSI_Ice_Area_N              =   1.3225987111817E+13
(PID.TID 0000.0001) %MON thSI_IceH_ave_G              =   4.6276611949718E+00
(PID.TID 0000.0001) %MON thSI_IceH_ave_S              =   5.8975697570856E+00
(PID.TID 0000.0001) %MON thSI_IceH_ave_N              =   3.5336433755958E+00
(PID.TID 0000.0001) %MON thSI_IceH_max_S              =   1.0000000000000E+01
(PID.TID 0000.0001) %MON thSI_IceH_max_N              =   1.0000000000000E+01
(PID.TID 0000.0001) %MON thSI_SnwH_ave_G              =   1.0070947697926E+00
(PID.TID 0000.0001) %MON thSI_SnwH_ave_S              =   1.7315329901979E+00
(PID.TID 0000.0001) %MON thSI_SnwH_ave_N              =   3.8299603874599E-01
(PID.TID 0000.0001) %MON thSI_SnwH_max_S              =   4.0930341847078E+00
(PID.TID 0000.0001) %MON thSI_SnwH_max_N              =   4.1061249830167E+00
(PID.TID 0000.0001) %MON thSI_TotEnerg_G              =  -3.8137585658506E+22
(PID.TID 0000.0001) %MON thSI_Tsrf_ave_G              =  -1.8015868309676E+01
(PID.TID 0000.0001) %MON thSI_Tsrf_ave_S              =  -1.4856197468541E-01
(PID.TID 0000.0001) %MON thSI_Tsrf_ave_N              =  -3.3408434434433E+01
(PID.TID 0000.0001) %MON thSI_Tsrf_min_S              =  -5.7900292616553E+00
(PID.TID 0000.0001) %MON thSI_Tsrf_min_N              =  -4.7949859732376E+01
(PID.TID 0000.0001) %MON thSI_Tsrf_max_S              =   0.0000000000000E+00
(PID.TID 0000.0001) %MON thSI_Tsrf_max_N              =  -1.7864285401532E+00
(PID.TID 0000.0001) %MON thSI_Tic1_ave_G              =  -8.6897865529156E+00
(PID.TID 0000.0001) %MON thSI_Tic1_ave_S              =  -4.7963048524742E+00
(PID.TID 0000.0001) %MON thSI_Tic1_ave_N              =  -1.4287883967757E+01
(PID.TID 0000.0001) %MON thSI_Tic1_min_S              =  -1.4272205687874E+01
(PID.TID 0000.0001) %MON thSI_Tic1_min_N              =  -2.1764879950388E+01
(PID.TID 0000.0001) %MON thSI_Tic1_max_S              =  -1.4655219863962E-01
(PID.TID 0000.0001) %MON thSI_Tic1_max_N              =  -9.4352813765313E-01
(PID.TID 0000.0001) %MON thSI_Tic2_ave_G              =  -3.9371938640628E+00
(PID.TID 0000.0001) %MON thSI_Tic2_ave_S              =  -3.0430162291849E+00
(PID.TID 0000.0001) %MON thSI_Tic2_ave_N              =  -5.2228538186611E+00
(PID.TID 0000.0001) %MON thSI_Tic2_min_S              =  -8.2917469566597E+00
(PID.TID 0000.0001) %MON thSI_Tic2_min_N              =  -7.9190508849777E+00
(PID.TID 0000.0001) %MON thSI_Tic2_max_S              =  -9.8439435532923E-01
(PID.TID 0000.0001) %MON thSI_Tic2_max_N              =  -1.4200673026532E+00
(PID.TID 0000.0001) // =======================================================
(PID.TID 0000.0001) // End MONITOR Therm.SeaIce statistics
(PID.TID 0000.0001) // =======================================================
 cg2d: Sum(rhs),rhsMax =   3.91972808511618E+02  2.30725107454543E+02
(PID.TID 0000.0001)                    cg2d_init_res =    2.60148875224301E+00
(PID.TID 0000.0001)                       cg2d_iters =    69
(PID.TID 0000.0001)                         cg2d_res =    5.66638399202695E-07
(PID.TID 0000.0001) // =======================================================
(PID.TID 0000.0001) // Begin MONITOR dynamic field statistics
(PID.TID 0000.0001) // =======================================================
(PID.TID 0000.0001) %MON time_tsnumber                =                 36018
(PID.TID 0000.0001) %MON time_secondsf                =   3.1119552000000E+09
(PID.TID 0000.0001) %MON dynstat_eta_max              =   7.1153880708516E-01
(PID.TID 0000.0001) %MON dynstat_eta_min              =  -1.1944531475474E+01
(PID.TID 0000.0001) %MON dynstat_eta_mean             =  -5.8299802506292E-01
(PID.TID 0000.0001) %MON dynstat_eta_sd               =   1.6966953967019E+00
(PID.TID 0000.0001) %MON dynstat_eta_del2             =   9.8608392005348E-02
(PID.TID 0000.0001) %MON dynstat_uvel_max             =   1.7304352647272E-01
(PID.TID 0000.0001) %MON dynstat_uvel_min             =  -2.6392133325587E-01
(PID.TID 0000.0001) %MON dynstat_uvel_mean            =  -5.1893359140963E-04
(PID.TID 0000.0001) %MON dynstat_uvel_sd              =   1.2983864731375E-02
(PID.TID 0000.0001) %MON dynstat_uvel_del2            =   1.7905331436794E-03
(PID.TID 0000.0001) %MON dynstat_vvel_max             =   1.9269371829315E-01
(PID.TID 0000.0001) %MON dynstat_vvel_min             =  -2.1159074930757E-01
(PID.TID 0000.0001) %MON dynstat_vvel_mean            =  -4.1620241345470E-04
(PID.TID 0000.0001) %MON dynstat_vvel_sd              =   1.3479915671841E-02
(PID.TID 0000.0001) %MON dynstat_vvel_del2            =   1.8148449545602E-03
(PID.TID 0000.0001) %MON dynstat_wvel_max             =   9.2986670483883E-05
(PID.TID 0000.0001) %MON dynstat_wvel_min             =  -1.7653102085059E-04
(PID.TID 0000.0001) %MON dynstat_wvel_mean            =  -9.2606964651499E-10
(PID.TID 0000.0001) %MON dynstat_wvel_sd              =   4.6252262720237E-06
(PID.TID 0000.0001) %MON dynstat_wvel_del2            =   1.1357388665755E-06
(PID.TID 0000.0001) %MON dynstat_theta_max            =   2.9852720174115E+01
(PID.TID 0000.0001) %MON dynstat_theta_min            =  -3.5501396288898E+00
(PID.TID 0000.0001) %MON dynstat_theta_mean           =   3.5038101931031E+00
(PID.TID 0000.0001) %MON dynstat_theta_sd             =   4.7505899368449E+00
(PID.TID 0000.0001) %MON dynstat_theta_del2           =   9.5704603414464E-02
(PID.TID 0000.0001) %MON dynstat_salt_max             =   4.0842068244792E+01
(PID.TID 0000.0001) %MON dynstat_salt_min             =   1.8098077625607E+01
(PID.TID 0000.0001) %MON dynstat_salt_mean            =   3.4756129953060E+01
(PID.TID 0000.0001) %MON dynstat_salt_sd              =   5.1172777260636E-01
(PID.TID 0000.0001) %MON dynstat_salt_del2            =   2.0020831047519E-02
(PID.TID 0000.0001) %MON extforcing_qnet_max          =   8.0490376404547E+02
(PID.TID 0000.0001) %MON extforcing_qnet_min          =  -2.3021627156147E+02
(PID.TID 0000.0001) %MON extforcing_qnet_mean         =  -4.8455716356979E+00
(PID.TID 0000.0001) %MON extforcing_qnet_sd           =   1.1631960500911E+02
(PID.TID 0000.0001) %MON extforcing_qnet_del2         =   1.2698718987429E+01
(PID.TID 0000.0001) %MON extforcing_qsw_max           =   0.0000000000000E+00
(PID.TID 0000.0001) %MON extforcing_qsw_min           =   0.0000000000000E+00
(PID.TID 0000.0001) %MON extforcing_qsw_mean          =   0.0000000000000E+00
(PID.TID 0000.0001) %MON extforcing_qsw_sd            =   0.0000000000000E+00
(PID.TID 0000.0001) %MON extforcing_qsw_del2          =   0.0000000000000E+00
(PID.TID 0000.0001) %MON extforcing_empmr_max         =   8.8211353482113E-07
(PID.TID 0000.0001) %MON extforcing_empmr_min         =  -3.1949403953333E-07
(PID.TID 0000.0001) %MON extforcing_empmr_mean        =   6.7556306553664E-10
(PID.TID 0000.0001) %MON extforcing_empmr_sd          =   5.2851548475129E-08
(PID.TID 0000.0001) %MON extforcing_empmr_del2        =   8.6814184230038E-09
(PID.TID 0000.0001) %MON extforcing_fu_max            =   2.4279378961307E-01
(PID.TID 0000.0001) %MON extforcing_fu_min            =  -2.1180240405542E-01
(PID.TID 0000.0001) %MON extforcing_fu_mean           =  -1.6306456808030E-03
(PID.TID 0000.0001) %MON extforcing_fu_sd             =   6.1844576879154E-02
(PID.TID 0000.0001) %MON extforcing_fu_del2           =   3.5133153371273E-03
(PID.TID 0000.0001) %MON extforcing_fv_max            =   2.9145284083641E-01
(PID.TID 0000.0001) %MON extforcing_fv_min            =  -3.3262320792717E-01
(PID.TID 0000.0001) %MON extforcing_fv_mean           =  -5.3746337386956E-03
(PID.TID 0000.0001) %MON extforcing_fv_sd             =   6.9665585547021E-02
(PID.TID 0000.0001) %MON extforcing_fv_del2           =   3.4527246795856E-03
(PID.TID 0000.0001) %MON advcfl_uvel_max              =   7.4853096352401E-02
(PID.TID 0000.0001) %MON advcfl_vvel_max              =   8.3992477093605E-02
(PID.TID 0000.0001) %MON advcfl_wvel_max              =   5.7555774345249E-02
(PID.TID 0000.0001) %MON advcfl_W_hf_max              =   1.1213810002311E-01
(PID.TID 0000.0001) %MON pe_b_mean                    =  -1.9239002655568E-03
(PID.TID 0000.0001) %MON ke_max                       =   3.4657891071662E-02
(PID.TID 0000.0001) %MON ke_mean                      =   1.6195332873224E-04
(PID.TID 0000.0001) %MON ke_vol                       =   1.3395903206348E+18
(PID.TID 0000.0001) %MON vort_r_min                   =  -1.2937869766151E-06
(PID.TID 0000.0001) %MON vort_r_max                   =   1.4186249258469E-06
(PID.TID 0000.0001) %MON vort_a_mean                  =  -2.0493733748264E-05
(PID.TID 0000.0001) %MON vort_a_sd                    =   7.5054012724631E-05
(PID.TID 0000.0001) %MON vort_p_mean                  =  -2.4719491151721E-05
(PID.TID 0000.0001) %MON vort_p_sd                    =   1.2782300296184E-04
(PID.TID 0000.0001) %MON surfExpan_theta_mean         =   8.1618769784120E-08
(PID.TID 0000.0001) %MON surfExpan_salt_mean          =   1.9399429057524E-08
(PID.TID 0000.0001) // =======================================================
(PID.TID 0000.0001) // End MONITOR dynamic field statistics
(PID.TID 0000.0001) // =======================================================
(PID.TID 0000.0001) // =======================================================
(PID.TID 0000.0001) // Begin MONITOR Therm.SeaIce statistics
(PID.TID 0000.0001) // =======================================================
(PID.TID 0000.0001) %MON thSI_time_sec                =   3.1119552000000E+09
(PID.TID 0000.0001) %MON thSI_Ice_Area_G              =   2.4621373285358E+13
(PID.TID 0000.0001) %MON thSI_Ice_Area_S              =   1.1347493609307E+13
(PID.TID 0000.0001) %MON thSI_Ice_Area_N              =   1.3273879676051E+13
(PID.TID 0000.0001) %MON thSI_IceH_ave_G              =   4.6278886665641E+00
(PID.TID 0000.0001) %MON thSI_IceH_ave_S              =   5.9145646544699E+00
(PID.TID 0000.0001) %MON thSI_IceH_ave_N              =   3.5279429154849E+00
(PID.TID 0000.0001) %MON thSI_IceH_max_S              =   1.0000000000000E+01
(PID.TID 0000.0001) %MON thSI_IceH_max_N              =   1.0000000000000E+01
(PID.TID 0000.0001) %MON thSI_SnwH_ave_G              =   1.0049428270797E+00
(PID.TID 0000.0001) %MON thSI_SnwH_ave_S              =   1.7307865997347E+00
(PID.TID 0000.0001) %MON thSI_SnwH_ave_N              =   3.8443791272383E-01
(PID.TID 0000.0001) %MON thSI_SnwH_max_S              =   4.0930037898846E+00
(PID.TID 0000.0001) %MON thSI_SnwH_max_N              =   4.1064817850806E+00
(PID.TID 0000.0001) %MON thSI_TotEnerg_G              =  -3.8137565423611E+22
(PID.TID 0000.0001) %MON thSI_Tsrf_ave_G              =  -1.8068380987303E+01
(PID.TID 0000.0001) %MON thSI_Tsrf_ave_S              =  -1.8670302696433E-01
(PID.TID 0000.0001) %MON thSI_Tsrf_ave_N              =  -3.3354961198266E+01
(PID.TID 0000.0001) %MON thSI_Tsrf_min_S              =  -6.0831078421449E+00
(PID.TID 0000.0001) %MON thSI_Tsrf_min_N              =  -4.7936337791650E+01
(PID.TID 0000.0001) %MON thSI_Tsrf_max_S              =   0.0000000000000E+00
(PID.TID 0000.0001) %MON thSI_Tsrf_max_N              =  -1.7145222358124E+00
(PID.TID 0000.0001) %MON thSI_Tic1_ave_G              =  -8.7075737448582E+00
(PID.TID 0000.0001) %MON thSI_Tic1_ave_S              =  -4.7740366950490E+00
(PID.TID 0000.0001) %MON thSI_Tic1_ave_N              =  -1.4345073676894E+01
(PID.TID 0000.0001) %MON thSI_Tic1_min_S              =  -1.3834475934823E+01
(PID.TID 0000.0001) %MON thSI_Tic1_min_N              =  -2.1860507824855E+01
(PID.TID 0000.0001) %MON thSI_Tic1_max_S              =  -1.4238082821006E-01
(PID.TID 0000.0001) %MON thSI_Tic1_max_N              =  -9.7151767143008E-01
(PID.TID 0000.0001) %MON thSI_Tic2_ave_G              =  -3.9467098734170E+00
(PID.TID 0000.0001) %MON thSI_Tic2_ave_S              =  -3.0390223387275E+00
(PID.TID 0000.0001) %MON thSI_Tic2_ave_N              =  -5.2475971792503E+00
(PID.TID 0000.0001) %MON thSI_Tic2_min_S              =  -8.2569431599491E+00
(PID.TID 0000.0001) %MON thSI_Tic2_min_N              =  -7.9425117648014E+00
(PID.TID 0000.0001) %MON thSI_Tic2_max_S              =  -9.5936974747612E-01
(PID.TID 0000.0001) %MON thSI_Tic2_max_N              =  -1.4319309490031E+00
(PID.TID 0000.0001) // =======================================================
(PID.TID 0000.0001) // End MONITOR Therm.SeaIce statistics
(PID.TID 0000.0001) // =======================================================
 cg2d: Sum(rhs),rhsMax =   3.92017562883559E+02  2.30820946641105E+02
(PID.TID 0000.0001)                    cg2d_init_res =    2.55463206673118E+00
(PID.TID 0000.0001)                       cg2d_iters =    69
(PID.TID 0000.0001)                         cg2d_res =    5.56935857040566E-07
(PID.TID 0000.0001) // =======================================================
(PID.TID 0000.0001) // Begin MONITOR dynamic field statistics
(PID.TID 0000.0001) // =======================================================
(PID.TID 0000.0001) %MON time_tsnumber                =                 36019
(PID.TID 0000.0001) %MON time_secondsf                =   3.1120416000000E+09
(PID.TID 0000.0001) %MON dynstat_eta_max              =   7.1048693197115E-01
(PID.TID 0000.0001) %MON dynstat_eta_min              =  -1.1941800937221E+01
(PID.TID 0000.0001) %MON dynstat_eta_mean             =  -5.8306459016613E-01
(PID.TID 0000.0001) %MON dynstat_eta_sd               =   1.6963791688716E+00
(PID.TID 0000.0001) %MON dynstat_eta_del2             =   9.8638741311998E-02
(PID.TID 0000.0001) %MON dynstat_uvel_max             =   1.7310511526980E-01
(PID.TID 0000.0001) %MON dynstat_uvel_min             =  -2.6338576021413E-01
(PID.TID 0000.0001) %MON dynstat_uvel_mean            =  -5.1813341367500E-04
(PID.TID 0000.0001) %MON dynstat_uvel_sd              =   1.2984542209165E-02
(PID.TID 0000.0001) %MON dynstat_uvel_del2            =   1.7907352149487E-03
(PID.TID 0000.0001) %MON dynstat_vvel_max             =   1.9218124643630E-01
(PID.TID 0000.0001) %MON dynstat_vvel_min             =  -2.1158816433809E-01
(PID.TID 0000.0001) %MON dynstat_vvel_mean            =  -4.1561716978200E-04
(PID.TID 0000.0001) %MON dynstat_vvel_sd              =   1.3476749248175E-02
(PID.TID 0000.0001) %MON dynstat_vvel_del2            =   1.8141918359953E-03
(PID.TID 0000.0001) %MON dynstat_wvel_max             =   9.3330260529368E-05
(PID.TID 0000.0001) %MON dynstat_wvel_min             =  -1.7629461104192E-04
(PID.TID 0000.0001) %MON dynstat_wvel_mean            =  -8.5474312508038E-10
(PID.TID 0000.0001) %MON dynstat_wvel_sd              =   4.6246534542353E-06
(PID.TID 0000.0001) %MON dynstat_wvel_del2            =   1.1356846708720E-06
(PID.TID 0000.0001) %MON dynstat_theta_max            =   2.9839380988461E+01
(PID.TID 0000.0001) %MON dynstat_theta_min            =  -3.5682995456375E+00
(PID.TID 0000.0001) %MON dynstat_theta_mean           =   3.5038688320771E+00
(PID.TID 0000.0001) %MON dynstat_theta_sd             =   4.7507368830625E+00
(PID.TID 0000.0001) %MON dynstat_theta_del2           =   9.5800558561455E-02
(PID.TID 0000.0001) %MON dynstat_salt_max             =   4.0842345469077E+01
(PID.TID 0000.0001) %MON dynstat_salt_min             =   1.8099494783412E+01
(PID.TID 0000.0001) %MON dynstat_salt_mean            =   3.4756131623970E+01
(PID.TID 0000.0001) %MON dynstat_salt_sd              =   5.1171773250324E-01
(PID.TID 0000.0001) %MON dynstat_salt_del2            =   2.0040274009840E-02
(PID.TID 0000.0001) %MON extforcing_qnet_max          =   7.9820271260751E+02
(PID.TID 0000.0001) %MON extforcing_qnet_min          =  -2.2866501208378E+02
(PID.TID 0000.0001) %MON extforcing_qnet_mean         =  -4.9415825160416E+00
(PID.TID 0000.0001) %MON extforcing_qnet_sd           =   1.1448478841196E+02
(PID.TID 0000.0001) %MON extforcing_qnet_del2         =   1.2594058514471E+01
(PID.TID 0000.0001) %MON extforcing_qsw_max           =   0.0000000000000E+00
(PID.TID 0000.0001) %MON extforcing_qsw_min           =   0.0000000000000E+00
(PID.TID 0000.0001) %MON extforcing_qsw_mean          =   0.0000000000000E+00
(PID.TID 0000.0001) %MON extforcing_qsw_sd            =   0.0000000000000E+00
(PID.TID 0000.0001) %MON extforcing_qsw_del2          =   0.0000000000000E+00
(PID.TID 0000.0001) %MON extforcing_empmr_max         =   6.5714335508180E-07
(PID.TID 0000.0001) %MON extforcing_empmr_min         =  -3.2028758431156E-07
(PID.TID 0000.0001) %MON extforcing_empmr_mean        =   7.9739446554801E-10
(PID.TID 0000.0001) %MON extforcing_empmr_sd          =   5.1789075820790E-08
(PID.TID 0000.0001) %MON extforcing_empmr_del2        =   8.5771823925055E-09
(PID.TID 0000.0001) %MON extforcing_fu_max            =   2.3972677870247E-01
(PID.TID 0000.0001) %MON extforcing_fu_min            =  -2.1002483594552E-01
(PID.TID 0000.0001) %MON extforcing_fu_mean           =  -1.6937520687902E-03
(PID.TID 0000.0001) %MON extforcing_fu_sd             =   6.1659636545565E-02
(PID.TID 0000.0001) %MON extforcing_fu_del2           =   3.4804689803162E-03
(PID.TID 0000.0001) %MON extforcing_fv_max            =   2.9064945924193E-01
(PID.TID 0000.0001) %MON extforcing_fv_min            =  -3.2918415574839E-01
(PID.TID 0000.0001) %MON extforcing_fv_mean           =  -5.2224723434757E-03
(PID.TID 0000.0001) %MON extforcing_fv_sd             =   6.9271992380615E-02
(PID.TID 0000.0001) %MON extforcing_fv_del2           =   3.4226173805692E-03
(PID.TID 0000.0001) %MON advcfl_uvel_max              =   7.4701197678644E-02
(PID.TID 0000.0001) %MON advcfl_vvel_max              =   8.3769097831020E-02
(PID.TID 0000.0001) %MON advcfl_wvel_max              =   5.7478695826497E-02
(PID.TID 0000.0001) %MON advcfl_W_hf_max              =   1.1055171583454E-01
(PID.TID 0000.0001) %MON pe_b_mean                    =  -1.9236016742172E-03
(PID.TID 0000.0001) %MON ke_max                       =   3.4512843968753E-02
(PID.TID 0000.0001) %MON ke_mean                      =   1.6192122277387E-04
(PID.TID 0000.0001) %MON ke_vol                       =   1.3395903001134E+18
(PID.TID 0000.0001) %MON vort_r_min                   =  -1.2982327557526E-06
(PID.TID 0000.0001) %MON vort_r_max                   =   1.4196081914167E-06
(PID.TID 0000.0001) %MON vort_a_mean                  =  -2.0493733748264E-05
(PID.TID 0000.0001) %MON vort_a_sd                    =   7.5054012719592E-05
(PID.TID 0000.0001) %MON vort_p_mean                  =  -2.4719491090139E-05
(PID.TID 0000.0001) %MON vort_p_sd                    =   1.2782301324748E-04
(PID.TID 0000.0001) %MON surfExpan_theta_mean         =   8.1086955486535E-08
(PID.TID 0000.0001) %MON surfExpan_salt_mean          =   1.9149539564854E-08
(PID.TID 0000.0001) // =======================================================
(PID.TID 0000.0001) // End MONITOR dynamic field statistics
(PID.TID 0000.0001) // =======================================================
(PID.TID 0000.0001) // =======================================================
(PID.TID 0000.0001) // Begin MONITOR Therm.SeaIce statistics
(PID.TID 0000.0001) // =======================================================
(PID.TID 0000.0001) %MON thSI_time_sec                =   3.1120416000000E+09
(PID.TID 0000.0001) %MON thSI_Ice_Area_G              =   2.4622788431641E+13
(PID.TID 0000.0001) %MON thSI_Ice_Area_S              =   1.1308313517515E+13
(PID.TID 0000.0001) %MON thSI_Ice_Area_N              =   1.3314474914126E+13
(PID.TID 0000.0001) %MON thSI_IceH_ave_G              =   4.6281622567214E+00
(PID.TID 0000.0001) %MON thSI_IceH_ave_S              =   5.9280426538120E+00
(PID.TID 0000.0001) %MON thSI_IceH_ave_N              =   3.5241416205056E+00
(PID.TID 0000.0001) %MON thSI_IceH_max_S              =   1.0000000000000E+01
(PID.TID 0000.0001) %MON thSI_IceH_max_N              =   1.0000000000000E+01
(PID.TID 0000.0001) %MON thSI_SnwH_ave_G              =   1.0031125279220E+00
(PID.TID 0000.0001) %MON thSI_SnwH_ave_S              =   1.7295867668207E+00
(PID.TID 0000.0001) %MON thSI_SnwH_ave_N              =   3.8609995259692E-01
(PID.TID 0000.0001) %MON thSI_SnwH_max_S              =   4.0929749892340E+00
(PID.TID 0000.0001) %MON thSI_SnwH_max_N              =   4.1068304816608E+00
(PID.TID 0000.0001) %MON thSI_TotEnerg_G              =  -3.8138516809684E+22
(PID.TID 0000.0001) %MON thSI_Tsrf_ave_G              =  -1.8114748555953E+01
(PID.TID 0000.0001) %MON thSI_Tsrf_ave_S              =  -2.2495542343545E-01
(PID.TID 0000.0001) %MON thSI_Tsrf_ave_N              =  -3.3308993226569E+01
(PID.TID 0000.0001) %MON thSI_Tsrf_min_S              =  -6.3852919779048E+00
(PID.TID 0000.0001) %MON thSI_Tsrf_min_N              =  -4.7922591337671E+01
(PID.TID 0000.0001) %MON thSI_Tsrf_max_S              =   0.0000000000000E+00
(PID.TID 0000.0001) %MON thSI_Tsrf_max_N              =  -4.9342804427059E+00
(PID.TID 0000.0001) %MON thSI_Tic1_ave_G              =  -8.7237561550826E+00
(PID.TID 0000.0001) %MON thSI_Tic1_ave_S              =  -4.7508364285164E+00
(PID.TID 0000.0001) %MON thSI_Tic1_ave_N              =  -1.4399745274661E+01
(PID.TID 0000.0001) %MON thSI_Tic1_min_S              =  -1.3714811747277E+01
(PID.TID 0000.0001) %MON thSI_Tic1_min_N              =  -2.1953921893152E+01
(PID.TID 0000.0001) %MON thSI_Tic1_max_S              =  -1.3845729575432E-01
(PID.TID 0000.0001) %MON thSI_Tic1_max_N              =  -1.0007664403035E+00
(PID.TID 0000.0001) %MON thSI_Tic2_ave_G              =  -3.9559225639095E+00
(PID.TID 0000.0001) %MON thSI_Tic2_ave_S              =  -3.0349627282108E+00
(PID.TID 0000.0001) %MON thSI_Tic2_ave_N              =  -5.2716697641461E+00
(PID.TID 0000.0001) %MON thSI_Tic2_min_S              =  -8.2205508756473E+00
(PID.TID 0000.0001) %MON thSI_Tic2_min_N              =  -7.9652018638786E+00
(PID.TID 0000.0001) %MON thSI_Tic2_max_S              =  -9.3444868748027E-01
(PID.TID 0000.0001) %MON thSI_Tic2_max_N              =  -1.4436014017156E+00
(PID.TID 0000.0001) // =======================================================
(PID.TID 0000.0001) // End MONITOR Therm.SeaIce statistics
(PID.TID 0000.0001) // =======================================================
 Computing Diagnostic #  23  ETAN         Counter:       1   Parms: SM      M1      
 Computing Diagnostic #  75  oceFWflx     Counter:       1   Parms: SM      U1      
 Computing Diagnostic #  26  THETA        Counter:       1   Parms: SM      MR      
 Computing Diagnostic #  27  SALT         Counter:       1   Parms: SM      MR      
 Compute Stats, Diag. #  71  oceTAUX   vol(  0 ): 3.111E+15  Parms: SU      U1      
 Compute Stats, Diag. #  72  oceTAUY   vol(  0 ): 3.130E+15  Parms: SV      U1      
 Compute Stats, Diag. #  80  TRELAX    vol(  0 ): 3.275E+15  Parms: SM      U1      
 Compute Stats, Diag. #  81  SRELAX    vol(  0 ): 3.275E+15  Parms: SM      U1      
 Compute Stats, Diag. #  82  surForcT  vol(  0 ): 3.275E+15  Parms: SM      U1      
 Compute Stats, Diag. #  83  surForcS  vol(  0 ): 3.275E+15  Parms: SM      U1      
 Compute Stats, Diag. #  84  TFLUX     vol(  0 ): 3.275E+15  Parms: SM      U1      
 Compute Stats, Diag. #  85  SFLUX     vol(  0 ): 3.275E+15  Parms: SM      U1      
 Compute Stats, Diag. #  77  oceQnet   vol(  0 ): 3.275E+15  Parms: SM      U1      
 Compute Stats, Diag. #  76  oceSflux  vol(  0 ): 3.275E+15  Parms: SM      U1      
 Compute Stats, Diag. #  75  oceFWflx  vol(  0 ): 3.275E+15  Parms: SM      U1      
 cg2d: Sum(rhs),rhsMax =   3.92055123527521E+02  2.30908046524737E+02
(PID.TID 0000.0001)                    cg2d_init_res =    2.52807449092903E+00
(PID.TID 0000.0001)                       cg2d_iters =    69
(PID.TID 0000.0001)                         cg2d_res =    5.38084802844981E-07
(PID.TID 0000.0001) // =======================================================
(PID.TID 0000.0001) // Begin MONITOR dynamic field statistics
(PID.TID 0000.0001) // =======================================================
(PID.TID 0000.0001) %MON time_tsnumber                =                 36020
(PID.TID 0000.0001) %MON time_secondsf                =   3.1121280000000E+09
(PID.TID 0000.0001) %MON dynstat_eta_max              =   7.0947948721246E-01
(PID.TID 0000.0001) %MON dynstat_eta_min              =  -1.1939260287082E+01
(PID.TID 0000.0001) %MON dynstat_eta_mean             =  -5.8312045572816E-01
(PID.TID 0000.0001) %MON dynstat_eta_sd               =   1.6960986406219E+00
(PID.TID 0000.0001) %MON dynstat_eta_del2             =   9.8669422872896E-02
(PID.TID 0000.0001) %MON dynstat_uvel_max             =   1.7310843437938E-01
(PID.TID 0000.0001) %MON dynstat_uvel_min             =  -2.6283863951033E-01
(PID.TID 0000.0001) %MON dynstat_uvel_mean            =  -5.1735899147622E-04
(PID.TID 0000.0001) %MON dynstat_uvel_sd              =   1.2985252823399E-02
(PID.TID 0000.0001) %MON dynstat_uvel_del2            =   1.7908676207563E-03
(PID.TID 0000.0001) %MON dynstat_vvel_max             =   1.9163436152059E-01
(PID.TID 0000.0001) %MON dynstat_vvel_min             =  -2.1157791521099E-01
(PID.TID 0000.0001) %MON dynstat_vvel_mean            =  -4.1498753535219E-04
(PID.TID 0000.0001) %MON dynstat_vvel_sd              =   1.3473231079337E-02
(PID.TID 0000.0001) %MON dynstat_vvel_del2            =   1.8135529389493E-03
(PID.TID 0000.0001) %MON dynstat_wvel_max             =   9.3605407710130E-05
(PID.TID 0000.0001) %MON dynstat_wvel_min             =  -1.7607468823946E-04
(PID.TID 0000.0001) %MON dynstat_wvel_mean            =  -8.1594217353283E-10
(PID.TID 0000.0001) %MON dynstat_wvel_sd              =   4.6238016810178E-06
(PID.TID 0000.0001) %MON dynstat_wvel_del2            =   1.1355370994055E-06
(PID.TID 0000.0001) %MON dynstat_theta_max            =   2.9826160308105E+01
(PID.TID 0000.0001) %MON dynstat_theta_min            =  -3.5864521515862E+00
(PID.TID 0000.0001) %MON dynstat_theta_mean           =   3.5039274588357E+00
(PID.TID 0000.0001) %MON dynstat_theta_sd             =   4.7508916788640E+00
(PID.TID 0000.0001) %MON dynstat_theta_del2           =   9.5848092575834E-02
(PID.TID 0000.0001) %MON dynstat_salt_max             =   4.0842524854212E+01
(PID.TID 0000.0001) %MON dynstat_salt_min             =   1.8100918744371E+01
(PID.TID 0000.0001) %MON dynstat_salt_mean            =   3.4756133231961E+01
(PID.TID 0000.0001) %MON dynstat_salt_sd              =   5.1170854947903E-01
(PID.TID 0000.0001) %MON dynstat_salt_del2            =   2.0045929866366E-02
(PID.TID 0000.0001) %MON extforcing_qnet_max          =   7.9161659826228E+02
(PID.TID 0000.0001) %MON extforcing_qnet_min          =  -2.2676618323005E+02
(PID.TID 0000.0001) %MON extforcing_qnet_mean         =  -4.9255078968879E+00
(PID.TID 0000.0001) %MON extforcing_qnet_sd           =   1.1278972245281E+02
(PID.TID 0000.0001) %MON extforcing_qnet_del2         =   1.2517431618834E+01
(PID.TID 0000.0001) %MON extforcing_qsw_max           =   0.0000000000000E+00
(PID.TID 0000.0001) %MON extforcing_qsw_min           =   0.0000000000000E+00
(PID.TID 0000.0001) %MON extforcing_qsw_mean          =   0.0000000000000E+00
(PID.TID 0000.0001) %MON extforcing_qsw_sd            =   0.0000000000000E+00
(PID.TID 0000.0001) %MON extforcing_qsw_del2          =   0.0000000000000E+00
(PID.TID 0000.0001) %MON extforcing_empmr_max         =   4.7469855882900E-07
(PID.TID 0000.0001) %MON extforcing_empmr_min         =  -3.2111930325207E-07
(PID.TID 0000.0001) %MON extforcing_empmr_mean        =   6.6922287852979E-10
(PID.TID 0000.0001) %MON extforcing_empmr_sd          =   4.9963775318176E-08
(PID.TID 0000.0001) %MON extforcing_empmr_del2        =   8.4222926426908E-09
(PID.TID 0000.0001) %MON extforcing_fu_max            =   2.3665976779186E-01
(PID.TID 0000.0001) %MON extforcing_fu_min            =  -2.0824726783562E-01
(PID.TID 0000.0001) %MON extforcing_fu_mean           =  -1.7568585273004E-03
(PID.TID 0000.0001) %MON extforcing_fu_sd             =   6.1487323134658E-02
(PID.TID 0000.0001) %MON extforcing_fu_del2           =   3.4499957832840E-03
(PID.TID 0000.0001) %MON extforcing_fv_max            =   2.8984607764745E-01
(PID.TID 0000.0001) %MON extforcing_fv_min            =  -3.2574510356961E-01
(PID.TID 0000.0001) %MON extforcing_fv_mean           =  -5.0703110285888E-03
(PID.TID 0000.0001) %MON extforcing_fv_sd             =   6.8887698559946E-02
(PID.TID 0000.0001) %MON extforcing_fv_del2           =   3.3948587952260E-03
(PID.TID 0000.0001) %MON advcfl_uvel_max              =   7.4546023868887E-02
(PID.TID 0000.0001) %MON advcfl_vvel_max              =   8.3530718400894E-02
(PID.TID 0000.0001) %MON advcfl_wvel_max              =   5.7406992693921E-02
(PID.TID 0000.0001) %MON advcfl_W_hf_max              =   1.0892599162918E-01
(PID.TID 0000.0001) %MON pe_b_mean                    =  -1.9234129270816E-03
(PID.TID 0000.0001) %MON ke_max                       =   3.4366689549560E-02
(PID.TID 0000.0001) %MON ke_mean                      =   1.6188512029770E-04
(PID.TID 0000.0001) %MON ke_vol                       =   1.3395902758913E+18
(PID.TID 0000.0001) %MON vort_r_min                   =  -1.3024504869663E-06
(PID.TID 0000.0001) %MON vort_r_max                   =   1.4201266316852E-06
(PID.TID 0000.0001) %MON vort_a_mean                  =  -2.0493733748264E-05
(PID.TID 0000.0001) %MON vort_a_sd                    =   7.5054012731870E-05
(PID.TID 0000.0001) %MON vort_p_mean                  =  -2.4719491105798E-05
(PID.TID 0000.0001) %MON vort_p_sd                    =   1.2782302385130E-04
(PID.TID 0000.0001) %MON surfExpan_theta_mean         =   8.1234135647802E-08
(PID.TID 0000.0001) %MON surfExpan_salt_mean          =   1.9201906353576E-08
(PID.TID 0000.0001) // =======================================================
(PID.TID 0000.0001) // End MONITOR dynamic field statistics
(PID.TID 0000.0001) // =======================================================
(PID.TID 0000.0001) // =======================================================
(PID.TID 0000.0001) // Begin MONITOR Therm.SeaIce statistics
(PID.TID 0000.0001) // =======================================================
(PID.TID 0000.0001) %MON thSI_time_sec                =   3.1121280000000E+09
(PID.TID 0000.0001) %MON thSI_Ice_Area_G              =   2.4612177035318E+13
(PID.TID 0000.0001) %MON thSI_Ice_Area_S              =   1.1271245741874E+13
(PID.TID 0000.0001) %MON thSI_Ice_Area_N              =   1.3340931293444E+13
(PID.TID 0000.0001) %MON thSI_IceH_ave_G              =   4.6303948040036E+00
(PID.TID 0000.0001) %MON thSI_IceH_ave_S              =   5.9405992374146E+00
(PID.TID 0000.0001) %MON thSI_IceH_ave_N              =   3.5234528809667E+00
(PID.TID 0000.0001) %MON thSI_IceH_max_S              =   1.0000000000000E+01
(PID.TID 0000.0001) %MON thSI_IceH_max_N              =   1.0000000000000E+01
(PID.TID 0000.0001) %MON thSI_SnwH_ave_G              =   1.0021143980192E+00
(PID.TID 0000.0001) %MON thSI_SnwH_ave_S              =   1.7287765500815E+00
(PID.TID 0000.0001) %MON thSI_SnwH_ave_N              =   3.8818516721360E-01
(PID.TID 0000.0001) %MON thSI_SnwH_max_S              =   4.0929460822206E+00
(PID.TID 0000.0001) %MON thSI_SnwH_max_N              =   4.1071695345178E+00
(PID.TID 0000.0001) %MON thSI_TotEnerg_G              =  -3.8138401279704E+22
(PID.TID 0000.0001) %MON thSI_Tsrf_ave_G              =  -1.8148807845361E+01
(PID.TID 0000.0001) %MON thSI_Tsrf_ave_S              =  -2.3486090399788E-01
(PID.TID 0000.0001) %MON thSI_Tsrf_ave_N              =  -3.3283620681270E+01
(PID.TID 0000.0001) %MON thSI_Tsrf_min_S              =  -6.6878510177690E+00
(PID.TID 0000.0001) %MON thSI_Tsrf_min_N              =  -4.7908616387439E+01
(PID.TID 0000.0001) %MON thSI_Tsrf_max_S              =   0.0000000000000E+00
(PID.TID 0000.0001) %MON thSI_Tsrf_max_N              =  -1.7525620444490E+00
(PID.TID 0000.0001) %MON thSI_Tic1_ave_G              =  -8.7424227579447E+00
(PID.TID 0000.0001) %MON thSI_Tic1_ave_S              =  -4.7333014425164E+00
(PID.TID 0000.0001) %MON thSI_Tic1_ave_N              =  -1.4453220199707E+01
(PID.TID 0000.0001) %MON thSI_Tic1_min_S              =  -1.3599774759013E+01
(PID.TID 0000.0001) %MON thSI_Tic1_min_N              =  -2.2045182161359E+01
(PID.TID 0000.0001) %MON thSI_Tic1_max_S              =  -1.3476286454512E-01
(PID.TID 0000.0001) %MON thSI_Tic1_max_N              =  -1.0313329374237E+00
(PID.TID 0000.0001) %MON thSI_Tic2_ave_G              =  -3.9649095671014E+00
(PID.TID 0000.0001) %MON thSI_Tic2_ave_S              =  -3.0308592890650E+00
(PID.TID 0000.0001) %MON thSI_Tic2_ave_N              =  -5.2954185536367E+00
(PID.TID 0000.0001) %MON thSI_Tic2_min_S              =  -8.1847751085044E+00
(PID.TID 0000.0001) %MON thSI_Tic2_min_N              =  -7.9871377961678E+00
(PID.TID 0000.0001) %MON thSI_Tic2_max_S              =  -9.1006491630386E-01
(PID.TID 0000.0001) %MON thSI_Tic2_max_N              =  -1.4551360142427E+00
(PID.TID 0000.0001) // =======================================================
(PID.TID 0000.0001) // End MONITOR Therm.SeaIce statistics
(PID.TID 0000.0001) // =======================================================
 Computing Diagnostic #  23  ETAN         Counter:       1   Parms: SM      M1      
 Compute Stats, Diag. #  23  ETAN      vol(  0 ): 3.639E+15  Parms: SM      M1      
 Compute Stats, Diag. #  24  ETANSQ    vol(  0 ): 3.639E+15  Parms: SM      M1      
 Compute Stats, Diag. #  25  DETADT2   vol(  0 ): 3.639E+15  Parms: SM      M1      
 Compute Stats, Diag. #  26  THETA     vol(  0 ): 1.340E+19  Parms: SM      MR      
 Compute Stats, Diag. #  27  SALT      vol(  0 ): 1.340E+19  Parms: SM      MR      
 Compute Stats, Diag. #  70  CONVADJ   vol(  0 ): 1.315E+19  Parms: SM      LR      
 Compute Stats, Diag. #  23  ETAN      vol(  0 ): 3.639E+14  Parms: SM      M1      
 Compute Stats, Diag. #  26  THETA     vol(  0 ): 1.340E+18  Parms: SM      MR      
 Compute Stats, Diag. #  27  SALT      vol(  0 ): 1.340E+18  Parms: SM      MR      
 Compute Stats, Diag. # 183  SI_Fract  vol(  0 ): 3.639E+15  Parms: SM P    M1      
 Compute Stats, Diag. # 183  SI_Fract  vol(  1 ): 1.289E+15  Parms: SM P    M1      
 Compute Stats, Diag. # 183  SI_Fract  vol(  3 ): 7.935E+14  Parms: SM P    M1      
 Compute Stats, Diag. # 184  SI_Thick  vol(  0 ): 2.466E+14  Parms: SM PC183M1      
    use Counter Mate  # 183  SI_Fract  vol(  0 ): 3.639E+15 integral 2.466E+14
 Compute Stats, Diag. # 184  SI_Thick  vol(  1 ): 1.148E+14  Parms: SM PC183M1      
    use Counter Mate  # 183  SI_Fract  vol(  1 ): 1.289E+15 integral 1.148E+14
 Compute Stats, Diag. # 184  SI_Thick  vol(  3 ): 1.318E+14  Parms: SM PC183M1      
    use Counter Mate  # 183  SI_Fract  vol(  3 ): 7.935E+14 integral 1.318E+14
 Compute Stats, Diag. # 185  SI_SnowH  vol(  0 ): 2.466E+14  Parms: SM PC183M1      
    use Counter Mate  # 183  SI_Fract  vol(  0 ): 3.639E+15 integral 2.466E+14
 Compute Stats, Diag. # 185  SI_SnowH  vol(  1 ): 1.148E+14  Parms: SM PC183M1      
    use Counter Mate  # 183  SI_Fract  vol(  1 ): 1.289E+15 integral 1.148E+14
 Compute Stats, Diag. # 185  SI_SnowH  vol(  3 ): 1.318E+14  Parms: SM PC183M1      
    use Counter Mate  # 183  SI_Fract  vol(  3 ): 7.935E+14 integral 1.318E+14
 Compute Stats, Diag. # 186  SI_Tsrf   vol(  0 ): 2.466E+14  Parms: SM  C183M1      
    use Counter Mate  # 183  SI_Fract  vol(  0 ): 3.639E+15 integral 2.466E+14
 Compute Stats, Diag. # 186  SI_Tsrf   vol(  1 ): 1.148E+14  Parms: SM  C183M1      
    use Counter Mate  # 183  SI_Fract  vol(  1 ): 1.289E+15 integral 1.148E+14
 Compute Stats, Diag. # 186  SI_Tsrf   vol(  3 ): 1.318E+14  Parms: SM  C183M1      
    use Counter Mate  # 183  SI_Fract  vol(  3 ): 7.935E+14 integral 1.318E+14
 Compute Stats, Diag. # 187  SI_Tice1  vol(  0 ): 2.466E+14  Parms: SM  C183M1      
    use Counter Mate  # 183  SI_Fract  vol(  0 ): 3.639E+15 integral 2.466E+14
 Compute Stats, Diag. # 187  SI_Tice1  vol(  1 ): 1.148E+14  Parms: SM  C183M1      
    use Counter Mate  # 183  SI_Fract  vol(  1 ): 1.289E+15 integral 1.148E+14
 Compute Stats, Diag. # 187  SI_Tice1  vol(  3 ): 1.318E+14  Parms: SM  C183M1      
    use Counter Mate  # 183  SI_Fract  vol(  3 ): 7.935E+14 integral 1.318E+14
 Compute Stats, Diag. # 188  SI_Tice2  vol(  0 ): 2.466E+14  Parms: SM  C183M1      
    use Counter Mate  # 183  SI_Fract  vol(  0 ): 3.639E+15 integral 2.466E+14
 Compute Stats, Diag. # 188  SI_Tice2  vol(  1 ): 1.148E+14  Parms: SM  C183M1      
    use Counter Mate  # 183  SI_Fract  vol(  1 ): 1.289E+15 integral 1.148E+14
 Compute Stats, Diag. # 188  SI_Tice2  vol(  3 ): 1.318E+14  Parms: SM  C183M1      
    use Counter Mate  # 183  SI_Fract  vol(  3 ): 7.935E+14 integral 1.318E+14
 Compute Stats, Diag. # 189  SI_Qice1  vol(  0 ): 1.139E+15  Parms: SM  C184M1      
    use Counter Mate  # 184  SI_Thick  vol(  0 ): 2.466E+14 integral 1.139E+15
 Compute Stats, Diag. # 189  SI_Qice1  vol(  1 ): 6.740E+14  Parms: SM  C184M1      
    use Counter Mate  # 184  SI_Thick  vol(  1 ): 1.148E+14 integral 6.740E+14
 Compute Stats, Diag. # 189  SI_Qice1  vol(  3 ): 4.651E+14  Parms: SM  C184M1      
    use Counter Mate  # 184  SI_Thick  vol(  3 ): 1.318E+14 integral 4.651E+14
 Compute Stats, Diag. # 190  SI_Qice2  vol(  0 ): 1.139E+15  Parms: SM  C184M1      
    use Counter Mate  # 184  SI_Thick  vol(  0 ): 2.466E+14 integral 1.139E+15
 Compute Stats, Diag. # 190  SI_Qice2  vol(  1 ): 6.740E+14  Parms: SM  C184M1      
    use Counter Mate  # 184  SI_Thick  vol(  1 ): 1.148E+14 integral 6.740E+14
 Compute Stats, Diag. # 190  SI_Qice2  vol(  3 ): 4.651E+14  Parms: SM  C184M1      
    use Counter Mate  # 184  SI_Thick  vol(  3 ): 1.318E+14 integral 4.651E+14
 Compute Stats, Diag. # 194  SIsnwPrc  vol(  0 ): 2.466E+14  Parms: SM  C192M1      
    use Counter Mate  # 192  SI_FrcFx  vol(  0 ): 3.639E+15 integral 2.466E+14
 Compute Stats, Diag. # 194  SIsnwPrc  vol(  1 ): 1.148E+14  Parms: SM  C192M1      
    use Counter Mate  # 192  SI_FrcFx  vol(  1 ): 1.289E+15 integral 1.148E+14
 Compute Stats, Diag. # 194  SIsnwPrc  vol(  3 ): 1.318E+14  Parms: SM  C192M1      
    use Counter Mate  # 192  SI_FrcFx  vol(  3 ): 7.935E+14 integral 1.318E+14
 Compute Stats, Diag. # 193  SIalbedo  vol(  0 ): 2.466E+14  Parms: SM PC192M1      
    use Counter Mate  # 192  SI_FrcFx  vol(  0 ): 3.639E+15 integral 2.466E+14
 Compute Stats, Diag. # 193  SIalbedo  vol(  1 ): 1.148E+14  Parms: SM PC192M1      
    use Counter Mate  # 192  SI_FrcFx  vol(  1 ): 1.289E+15 integral 1.148E+14
 Compute Stats, Diag. # 193  SIalbedo  vol(  3 ): 1.318E+14  Parms: SM PC192M1      
    use Counter Mate  # 192  SI_FrcFx  vol(  3 ): 7.935E+14 integral 1.318E+14
 Compute Stats, Diag. # 191  SIsnwAge  vol(  0 ): 3.639E+15  Parms: SM P    M1      
 Compute Stats, Diag. # 191  SIsnwAge  vol(  1 ): 1.289E+15  Parms: SM P    M1      
 Compute Stats, Diag. # 191  SIsnwAge  vol(  3 ): 7.935E+14  Parms: SM P    M1      
 Compute Stats, Diag. # 197  SIflx2oc  vol(  0 ): 3.639E+15  Parms: SM      M1      
 Compute Stats, Diag. # 197  SIflx2oc  vol(  1 ): 1.289E+15  Parms: SM      M1      
 Compute Stats, Diag. # 197  SIflx2oc  vol(  3 ): 7.935E+14  Parms: SM      M1      
 Compute Stats, Diag. # 198  SIfrw2oc  vol(  0 ): 3.639E+15  Parms: SM      M1      
 Compute Stats, Diag. # 198  SIfrw2oc  vol(  1 ): 1.289E+15  Parms: SM      M1      
 Compute Stats, Diag. # 198  SIfrw2oc  vol(  3 ): 7.935E+14  Parms: SM      M1      
 Compute Stats, Diag. # 199  SIsaltFx  vol(  0 ): 3.639E+15  Parms: SM      M1      
 Compute Stats, Diag. # 199  SIsaltFx  vol(  1 ): 1.289E+15  Parms: SM      M1      
 Compute Stats, Diag. # 199  SIsaltFx  vol(  3 ): 7.935E+14  Parms: SM      M1      
 Compute Stats, Diag. # 195  SIflxAtm  vol(  0 ): 3.639E+15  Parms: SM      M1      
 Compute Stats, Diag. # 195  SIflxAtm  vol(  1 ): 1.289E+15  Parms: SM      M1      
 Compute Stats, Diag. # 195  SIflxAtm  vol(  3 ): 7.935E+14  Parms: SM      M1      
 Compute Stats, Diag. # 196  SIfrwAtm  vol(  0 ): 3.639E+15  Parms: SM      M1      
 Compute Stats, Diag. # 196  SIfrwAtm  vol(  1 ): 1.289E+15  Parms: SM      M1      
 Compute Stats, Diag. # 196  SIfrwAtm  vol(  3 ): 7.935E+14  Parms: SM      M1      
(PID.TID 0000.0001) %CHECKPOINT     36020 ckptA
(PID.TID 0000.0001) DIAGSTATS_CLOSE_IO: close file: dynStDiag.0000036000.txt , unit=     9
(PID.TID 0000.0001) DIAGSTATS_CLOSE_IO: close file: surfStDiag.0000036000.txt , unit=    10
(PID.TID 0000.0001) DIAGSTATS_CLOSE_IO: close file: instStDiag.0000036000.txt , unit=    11
(PID.TID 0000.0001) DIAGSTATS_CLOSE_IO: close file: thSIceStDiag.0000036000.txt , unit=    12
(PID.TID 0000.0001)   Seconds in section "ALL                    [THE_MODEL_MAIN]":
(PID.TID 0000.0001)           User time:  62.6554738
(PID.TID 0000.0001)         System time:  1.28880396
(PID.TID 0000.0001)     Wall clock time:  130.72394
(PID.TID 0000.0001)          No. starts: 1
(PID.TID 0000.0001)           No. stops: 1
(PID.TID 0000.0001)   Seconds in section "INITIALISE_FIXED       [THE_MODEL_MAIN]":
(PID.TID 0000.0001)           User time:  0.585910978
(PID.TID 0000.0001)         System time:  0.172973996
(PID.TID 0000.0001)     Wall clock time:  2.15809107
(PID.TID 0000.0001)          No. starts: 1
(PID.TID 0000.0001)           No. stops: 1
(PID.TID 0000.0001)   Seconds in section "THE_MAIN_LOOP          [THE_MODEL_MAIN]":
(PID.TID 0000.0001)           User time:  61.8256015
(PID.TID 0000.0001)         System time:  0.822874978
(PID.TID 0000.0001)     Wall clock time:  127.503758
(PID.TID 0000.0001)          No. starts: 1
(PID.TID 0000.0001)           No. stops: 1
(PID.TID 0000.0001)   Seconds in section "INITIALISE_VARIA    [THE_MAIN_LOOP]":
(PID.TID 0000.0001)           User time:  1.55276406
(PID.TID 0000.0001)         System time:  0.372942999
(PID.TID 0000.0001)     Wall clock time:  5.27599096
(PID.TID 0000.0001)          No. starts: 1
(PID.TID 0000.0001)           No. stops: 1
(PID.TID 0000.0001)   Seconds in section "MAIN LOOP           [THE_MAIN_LOOP]":
(PID.TID 0000.0001)           User time:  60.2728374
(PID.TID 0000.0001)         System time:  0.449931979
(PID.TID 0000.0001)     Wall clock time:  122.227631
(PID.TID 0000.0001)          No. starts: 1
(PID.TID 0000.0001)           No. stops: 1
(PID.TID 0000.0001)   Seconds in section "FORWARD_STEP        [THE_MAIN_LOOP]":
(PID.TID 0000.0001)           User time:  60.2718379
(PID.TID 0000.0001)         System time:  0.449931979
(PID.TID 0000.0001)     Wall clock time:  122.226754
(PID.TID 0000.0001)          No. starts: 20
(PID.TID 0000.0001)           No. stops: 20
(PID.TID 0000.0001)   Seconds in section "DO_STATEVARS_DIAGS  [FORWARD_STEP]":
(PID.TID 0000.0001)           User time:  2.46763802
(PID.TID 0000.0001)         System time:  0.00199794769
(PID.TID 0000.0001)     Wall clock time:  5.25378752
(PID.TID 0000.0001)          No. starts: 60
(PID.TID 0000.0001)           No. stops: 60
(PID.TID 0000.0001)   Seconds in section "LOAD_FIELDS_DRIVER  [FORWARD_STEP]":
(PID.TID 0000.0001)           User time:  0.300945997
(PID.TID 0000.0001)         System time:  0.0209979415
(PID.TID 0000.0001)     Wall clock time:  2.02962828
(PID.TID 0000.0001)          No. starts: 20
(PID.TID 0000.0001)           No. stops: 20
(PID.TID 0000.0001)   Seconds in section "BULKF_FIELDS_LOAD  [LOAD_FLDS_DRIVER]":
(PID.TID 0000.0001)           User time:  0.210960627
(PID.TID 0000.0001)         System time:  0.013997972
(PID.TID 0000.0001)     Wall clock time:  1.9346509
(PID.TID 0000.0001)          No. starts: 20
(PID.TID 0000.0001)           No. stops: 20
(PID.TID 0000.0001)   Seconds in section "EXTERNAL_FLDS_LOAD [LOAD_FLDS_DRIVER]":
(PID.TID 0000.0001)           User time:  0.0879817009
(PID.TID 0000.0001)         System time:  0.00699996948
(PID.TID 0000.0001)     Wall clock time:  0.0925040245
(PID.TID 0000.0001)          No. starts: 20
(PID.TID 0000.0001)           No. stops: 20
(PID.TID 0000.0001)   Seconds in section "BULKF_FORCING       [FORWARD_STEP]":
(PID.TID 0000.0001)           User time:  0.957854748
(PID.TID 0000.0001)         System time:  0.000998973846
(PID.TID 0000.0001)     Wall clock time:  1.66159487
(PID.TID 0000.0001)          No. starts: 20
(PID.TID 0000.0001)           No. stops: 20
(PID.TID 0000.0001)   Seconds in section "DO_ATMOSPHERIC_PHYS [FORWARD_STEP]":
(PID.TID 0000.0001)           User time:  0.
(PID.TID 0000.0001)         System time:  0.
(PID.TID 0000.0001)     Wall clock time:  0.000808477402
(PID.TID 0000.0001)          No. starts: 20
(PID.TID 0000.0001)           No. stops: 20
(PID.TID 0000.0001)   Seconds in section "DO_OCEANIC_PHYS     [FORWARD_STEP]":
(PID.TID 0000.0001)           User time:  8.11177373
(PID.TID 0000.0001)         System time:  0.00199902058
(PID.TID 0000.0001)     Wall clock time:  15.8224494
(PID.TID 0000.0001)          No. starts: 20
(PID.TID 0000.0001)           No. stops: 20
(PID.TID 0000.0001)   Seconds in section "THSICE_MAIN     [DO_OCEANIC_PHYS]":
(PID.TID 0000.0001)           User time:  0.548917532
(PID.TID 0000.0001)         System time:  0.
(PID.TID 0000.0001)     Wall clock time:  1.1538291
(PID.TID 0000.0001)          No. starts: 20
(PID.TID 0000.0001)           No. stops: 20
(PID.TID 0000.0001)   Seconds in section "DYNAMICS            [FORWARD_STEP]":
(PID.TID 0000.0001)           User time:  15.6906075
(PID.TID 0000.0001)         System time:  0.00199997425
(PID.TID 0000.0001)     Wall clock time:  31.0381653
(PID.TID 0000.0001)          No. starts: 20
(PID.TID 0000.0001)           No. stops: 20
(PID.TID 0000.0001)   Seconds in section "UPDATE_R_STAR       [FORWARD_STEP]":
(PID.TID 0000.0001)           User time:  0.840875626
(PID.TID 0000.0001)         System time:  0.000999987125
(PID.TID 0000.0001)     Wall clock time:  1.86716795
(PID.TID 0000.0001)          No. starts: 20
(PID.TID 0000.0001)           No. stops: 20
(PID.TID 0000.0001)   Seconds in section "UPDATE_CG2D         [FORWARD_STEP]":
(PID.TID 0000.0001)           User time:  0.376941919
(PID.TID 0000.0001)         System time:  0.000999987125
(PID.TID 0000.0001)     Wall clock time:  0.876430273
(PID.TID 0000.0001)          No. starts: 20
(PID.TID 0000.0001)           No. stops: 20
(PID.TID 0000.0001)   Seconds in section "SOLVE_FOR_PRESSURE  [FORWARD_STEP]":
(PID.TID 0000.0001)           User time:  6.49000907
(PID.TID 0000.0001)         System time:  0.00300002098
(PID.TID 0000.0001)     Wall clock time:  12.8785112
(PID.TID 0000.0001)          No. starts: 20
(PID.TID 0000.0001)           No. stops: 20
(PID.TID 0000.0001)   Seconds in section "MOM_CORRECTION_STEP [FORWARD_STEP]":
(PID.TID 0000.0001)           User time:  1.44978285
(PID.TID 0000.0001)         System time:  0.
(PID.TID 0000.0001)     Wall clock time:  3.05794263
(PID.TID 0000.0001)          No. starts: 20
(PID.TID 0000.0001)           No. stops: 20
(PID.TID 0000.0001)   Seconds in section "UPDATE_ETAH         [FORWARD_STEP]":
(PID.TID 0000.0001)           User time:  0.014998436
(PID.TID 0000.0001)         System time:  0.
(PID.TID 0000.0001)     Wall clock time:  0.0118658543
(PID.TID 0000.0001)          No. starts: 20
(PID.TID 0000.0001)           No. stops: 20
(PID.TID 0000.0001)   Seconds in section "CALC_R_STAR         [FORWARD_STEP]":
(PID.TID 0000.0001)           User time:  0.176972628
(PID.TID 0000.0001)         System time:  0.
(PID.TID 0000.0001)     Wall clock time:  0.277634144
(PID.TID 0000.0001)          No. starts: 20
(PID.TID 0000.0001)           No. stops: 20
(PID.TID 0000.0001)   Seconds in section "BLOCKING_EXCHANGES  [FORWARD_STEP]":
(PID.TID 0000.0001)           User time:  1.25981426
(PID.TID 0000.0001)         System time:  0.00799798965
(PID.TID 0000.0001)     Wall clock time:  2.63639355
(PID.TID 0000.0001)          No. starts: 40
(PID.TID 0000.0001)           No. stops: 40
(PID.TID 0000.0001)   Seconds in section "THERMODYNAMICS      [FORWARD_STEP]":
(PID.TID 0000.0001)           User time:  12.0671668
(PID.TID 0000.0001)         System time:  0.0379941463
(PID.TID 0000.0001)     Wall clock time:  24.2531059
(PID.TID 0000.0001)          No. starts: 20
(PID.TID 0000.0001)           No. stops: 20
(PID.TID 0000.0001)   Seconds in section "TRC_CORRECTION_STEP [FORWARD_STEP]":
(PID.TID 0000.0001)           User time:  0.211966991
(PID.TID 0000.0001)         System time:  0.00299996138
(PID.TID 0000.0001)     Wall clock time:  0.314988136
(PID.TID 0000.0001)          No. starts: 20
(PID.TID 0000.0001)           No. stops: 20
(PID.TID 0000.0001)   Seconds in section "DO_STATEVARS_TAVE   [FORWARD_STEP]":
(PID.TID 0000.0001)           User time:  3.81540918
(PID.TID 0000.0001)         System time:  0.00999903679
(PID.TID 0000.0001)     Wall clock time:  7.54261374
(PID.TID 0000.0001)          No. starts: 20
(PID.TID 0000.0001)           No. stops: 20
(PID.TID 0000.0001)   Seconds in section "MONITOR             [FORWARD_STEP]":
(PID.TID 0000.0001)           User time:  5.50816441
(PID.TID 0000.0001)         System time:  0.00299996138
(PID.TID 0000.0001)     Wall clock time:  10.9123921
(PID.TID 0000.0001)          No. starts: 20
(PID.TID 0000.0001)           No. stops: 20
(PID.TID 0000.0001)   Seconds in section "DO_THE_MODEL_IO     [FORWARD_STEP]":
(PID.TID 0000.0001)           User time:  0.515920162
(PID.TID 0000.0001)         System time:  0.350947022
(PID.TID 0000.0001)     Wall clock time:  1.77060676
(PID.TID 0000.0001)          No. starts: 20
(PID.TID 0000.0001)           No. stops: 20
(PID.TID 0000.0001)   Seconds in section "DO_WRITE_PICKUP     [FORWARD_STEP]":
(PID.TID 0000.0001)           User time:  0.
(PID.TID 0000.0001)         System time:  0.
(PID.TID 0000.0001)     Wall clock time:  0.000865221024
(PID.TID 0000.0001)          No. starts: 20
(PID.TID 0000.0001)           No. stops: 20
(PID.TID 0000.0001)   Seconds in section "DO_WRITE_PICKUP        [THE_MODEL_MAIN]":
(PID.TID 0000.0001)           User time:  0.243961334
(PID.TID 0000.0001)         System time:  0.292954981
(PID.TID 0000.0001)     Wall clock time:  1.06191802
(PID.TID 0000.0001)          No. starts: 1
(PID.TID 0000.0001)           No. stops: 1
(PID.TID 0000.0001) // ======================================================
(PID.TID 0000.0001) // Tile <-> Tile communication statistics
(PID.TID 0000.0001) // ======================================================
(PID.TID 0000.0001) // o Tile number: 000001
(PID.TID 0000.0001) //         No. X exchanges =              0
(PID.TID 0000.0001) //            Max. X spins =              0
(PID.TID 0000.0001) //            Min. X spins =     1000000000
(PID.TID 0000.0001) //          Total. X spins =              0
(PID.TID 0000.0001) //            Avg. X spins =       0.00E+00
(PID.TID 0000.0001) //         No. Y exchanges =              0
(PID.TID 0000.0001) //            Max. Y spins =              0
(PID.TID 0000.0001) //            Min. Y spins =     1000000000
(PID.TID 0000.0001) //          Total. Y spins =              0
(PID.TID 0000.0001) //            Avg. Y spins =       0.00E+00
(PID.TID 0000.0001) // o Tile number: 000002
(PID.TID 0000.0001) //         No. X exchanges =              0
(PID.TID 0000.0001) //            Max. X spins =              0
(PID.TID 0000.0001) //            Min. X spins =     1000000000
(PID.TID 0000.0001) //          Total. X spins =              0
(PID.TID 0000.0001) //            Avg. X spins =       0.00E+00
(PID.TID 0000.0001) //         No. Y exchanges =              0
(PID.TID 0000.0001) //            Max. Y spins =              0
(PID.TID 0000.0001) //            Min. Y spins =     1000000000
(PID.TID 0000.0001) //          Total. Y spins =              0
(PID.TID 0000.0001) //            Avg. Y spins =       0.00E+00
(PID.TID 0000.0001) // o Tile number: 000003
(PID.TID 0000.0001) //         No. X exchanges =              0
(PID.TID 0000.0001) //            Max. X spins =              0
(PID.TID 0000.0001) //            Min. X spins =     1000000000
(PID.TID 0000.0001) //          Total. X spins =              0
(PID.TID 0000.0001) //            Avg. X spins =       0.00E+00
(PID.TID 0000.0001) //         No. Y exchanges =              0
(PID.TID 0000.0001) //            Max. Y spins =              0
(PID.TID 0000.0001) //            Min. Y spins =     1000000000
(PID.TID 0000.0001) //          Total. Y spins =              0
(PID.TID 0000.0001) //            Avg. Y spins =       0.00E+00
(PID.TID 0000.0001) // o Tile number: 000004
(PID.TID 0000.0001) //         No. X exchanges =              0
(PID.TID 0000.0001) //            Max. X spins =              0
(PID.TID 0000.0001) //            Min. X spins =     1000000000
(PID.TID 0000.0001) //          Total. X spins =              0
(PID.TID 0000.0001) //            Avg. X spins =       0.00E+00
(PID.TID 0000.0001) //         No. Y exchanges =              0
(PID.TID 0000.0001) //            Max. Y spins =              0
(PID.TID 0000.0001) //            Min. Y spins =     1000000000
(PID.TID 0000.0001) //          Total. Y spins =              0
(PID.TID 0000.0001) //            Avg. Y spins =       0.00E+00
(PID.TID 0000.0001) // o Tile number: 000005
(PID.TID 0000.0001) //         No. X exchanges =              0
(PID.TID 0000.0001) //            Max. X spins =              0
(PID.TID 0000.0001) //            Min. X spins =     1000000000
(PID.TID 0000.0001) //          Total. X spins =              0
(PID.TID 0000.0001) //            Avg. X spins =       0.00E+00
(PID.TID 0000.0001) //         No. Y exchanges =              0
(PID.TID 0000.0001) //            Max. Y spins =              0
(PID.TID 0000.0001) //            Min. Y spins =     1000000000
(PID.TID 0000.0001) //          Total. Y spins =              0
(PID.TID 0000.0001) //            Avg. Y spins =       0.00E+00
(PID.TID 0000.0001) // o Tile number: 000006
(PID.TID 0000.0001) //         No. X exchanges =              0
(PID.TID 0000.0001) //            Max. X spins =              0
(PID.TID 0000.0001) //            Min. X spins =     1000000000
(PID.TID 0000.0001) //          Total. X spins =              0
(PID.TID 0000.0001) //            Avg. X spins =       0.00E+00
(PID.TID 0000.0001) //         No. Y exchanges =              0
(PID.TID 0000.0001) //            Max. Y spins =              0
(PID.TID 0000.0001) //            Min. Y spins =     1000000000
(PID.TID 0000.0001) //          Total. Y spins =              0
(PID.TID 0000.0001) //            Avg. Y spins =       0.00E+00
(PID.TID 0000.0001) // o Thread number: 000001
(PID.TID 0000.0001) //            No. barriers =          59071
(PID.TID 0000.0001) //      Max. barrier spins =              1
(PID.TID 0000.0001) //      Min. barrier spins =              1
(PID.TID 0000.0001) //     Total barrier spins =          59071
(PID.TID 0000.0001) //      Avg. barrier spins =       1.00E+00
