(PID.TID 0000.0001) 
(PID.TID 0000.0001) // ======================================================
(PID.TID 0000.0001) //                      MITgcm UV
(PID.TID 0000.0001) //                      =========
(PID.TID 0000.0001) // ======================================================
(PID.TID 0000.0001) // execution environment starting up...
(PID.TID 0000.0001) // Run starting Wed Apr  1 14:19:48 1998
(PID.TID 0000.0001) // on melville.lcs.mit.edu
(PID.TID 0000.0001) // account cnh
(PID.TID 0000.0001) // MITgcm UV Release: $Name:  $
(PID.TID 0000.0001) 
(PID.TID 0000.0001) // =======================================================
(PID.TID 0000.0001) // Execution Environment parameter file "eedata"
(PID.TID 0000.0001) // =======================================================
(PID.TID 0000.0001) ># Example "eedata" file
(PID.TID 0000.0001) ># Lines beginning "#" are comments
(PID.TID 0000.0001) ># nTx - No. threads per process in X
(PID.TID 0000.0001) ># nTy - No. threads per process in Y
(PID.TID 0000.0001) > &EEPARMS
(PID.TID 0000.0001) > useCubedSphereExchange=.TRUE.,
(PID.TID 0000.0001) > nTx=1,nTy=1
(PID.TID 0000.0001) > &
(PID.TID 0000.0001) ># Note: Some systems use & as the
(PID.TID 0000.0001) ># namelist terminator. Other systems
(PID.TID 0000.0001) ># use a / character (as shown here).
(PID.TID 0000.0001) 
(PID.TID 0000.0001) // =======================================================
(PID.TID 0000.0001) // Computational Grid Specification ( see files "SIZE.h" )
(PID.TID 0000.0001) //                                  ( and "eedata"       )
(PID.TID 0000.0001) // =======================================================
(PID.TID 0000.0001)      nPx =    1 ; /* No. processes in X */
(PID.TID 0000.0001)      nPy =    1 ; /* No. processes in Y */
(PID.TID 0000.0001)      nSx =    6 ; /* No. tiles in X per process */
(PID.TID 0000.0001)      nSy =    1 ; /* No. tiles in Y per process */
(PID.TID 0000.0001)      sNx =   32 ; /* Tile size in X */
(PID.TID 0000.0001)      sNy =   32 ; /* Tile size in Y */
(PID.TID 0000.0001)      OLx =    2 ; /* Tile overlap distance in X */
(PID.TID 0000.0001)      OLy =    2 ; /* Tile overlap distance in Y */
(PID.TID 0000.0001)      nTx =    1 ; /* No. threads in X per process */
(PID.TID 0000.0001)      nTy =    1 ; /* No. threads in Y per process */
(PID.TID 0000.0001)       Nr =   15 ; /* No. levels in the vertical   */
(PID.TID 0000.0001)       nX =  192 ; /* Total domain size in X ( = nPx*nSx*sNx ) */
(PID.TID 0000.0001)       nY =   32 ; /* Total domain size in Y ( = nPy*nSy*sNy ) */
(PID.TID 0000.0001)   nTiles =    6 ; /* Total no. tiles per process ( = nSx*nSy ) */
(PID.TID 0000.0001)   nProcs =    1 ; /* Total no. processes ( = nPx*nPy ) */
(PID.TID 0000.0001) nThreads =    1 ; /* Total no. threads per process ( = nTx*nTy ) */
(PID.TID 0000.0001) usingMPI =    F ; /* Flag used to control whether MPI is in use */
(PID.TID 0000.0001)                   /*  note: To execute a program with MPI calls */
(PID.TID 0000.0001)                   /*  it must be launched appropriately e.g     */
(PID.TID 0000.0001)                   /*  "mpirun -np 64 ......"                    */
(PID.TID 0000.0001) 
(PID.TID 0000.0001) // ======================================================
(PID.TID 0000.0001) // Mapping of tiles to threads
(PID.TID 0000.0001) // ======================================================
(PID.TID 0000.0001) // -o- Thread   1, tiles (   1:   6,   1:   1)
(PID.TID 0000.0001) 
(PID.TID 0000.0001) // ======================================================
(PID.TID 0000.0001) // Tile <-> Tile connectvity table
(PID.TID 0000.0001) // ======================================================
(PID.TID 0000.0001) // Tile number: 000001 (process no. = 000001)
(PID.TID 0000.0001) //        WEST: Tile = 000006, Process = 000001, Comm = put
(PID.TID 0000.0001) //                bi = 000006, bj = 000001
(PID.TID 0000.0001) //        EAST: Tile = 000002, Process = 000001, Comm = put
(PID.TID 0000.0001) //                bi = 000002, bj = 000001
(PID.TID 0000.0001) //       SOUTH: Tile = 000001, Process = 000001, Comm = put
(PID.TID 0000.0001) //                bi = 000001, bj = 000001
(PID.TID 0000.0001) //       NORTH: Tile = 000001, Process = 000001, Comm = put
(PID.TID 0000.0001) //                bi = 000001, bj = 000001
(PID.TID 0000.0001) // Tile number: 000002 (process no. = 000001)
(PID.TID 0000.0001) //        WEST: Tile = 000001, Process = 000001, Comm = put
(PID.TID 0000.0001) //                bi = 000001, bj = 000001
(PID.TID 0000.0001) //        EAST: Tile = 000003, Process = 000001, Comm = put
(PID.TID 0000.0001) //                bi = 000003, bj = 000001
(PID.TID 0000.0001) //       SOUTH: Tile = 000002, Process = 000001, Comm = put
(PID.TID 0000.0001) //                bi = 000002, bj = 000001
(PID.TID 0000.0001) //       NORTH: Tile = 000002, Process = 000001, Comm = put
(PID.TID 0000.0001) //                bi = 000002, bj = 000001
(PID.TID 0000.0001) // Tile number: 000003 (process no. = 000001)
(PID.TID 0000.0001) //        WEST: Tile = 000002, Process = 000001, Comm = put
(PID.TID 0000.0001) //                bi = 000002, bj = 000001
(PID.TID 0000.0001) //        EAST: Tile = 000004, Process = 000001, Comm = put
(PID.TID 0000.0001) //                bi = 000004, bj = 000001
(PID.TID 0000.0001) //       SOUTH: Tile = 000003, Process = 000001, Comm = put
(PID.TID 0000.0001) //                bi = 000003, bj = 000001
(PID.TID 0000.0001) //       NORTH: Tile = 000003, Process = 000001, Comm = put
(PID.TID 0000.0001) //                bi = 000003, bj = 000001
(PID.TID 0000.0001) // Tile number: 000004 (process no. = 000001)
(PID.TID 0000.0001) //        WEST: Tile = 000003, Process = 000001, Comm = put
(PID.TID 0000.0001) //                bi = 000003, bj = 000001
(PID.TID 0000.0001) //        EAST: Tile = 000005, Process = 000001, Comm = put
(PID.TID 0000.0001) //                bi = 000005, bj = 000001
(PID.TID 0000.0001) //       SOUTH: Tile = 000004, Process = 000001, Comm = put
(PID.TID 0000.0001) //                bi = 000004, bj = 000001
(PID.TID 0000.0001) //       NORTH: Tile = 000004, Process = 000001, Comm = put
(PID.TID 0000.0001) //                bi = 000004, bj = 000001
(PID.TID 0000.0001) // Tile number: 000005 (process no. = 000001)
(PID.TID 0000.0001) //        WEST: Tile = 000004, Process = 000001, Comm = put
(PID.TID 0000.0001) //                bi = 000004, bj = 000001
(PID.TID 0000.0001) //        EAST: Tile = 000006, Process = 000001, Comm = put
(PID.TID 0000.0001) //                bi = 000006, bj = 000001
(PID.TID 0000.0001) //       SOUTH: Tile = 000005, Process = 000001, Comm = put
(PID.TID 0000.0001) //                bi = 000005, bj = 000001
(PID.TID 0000.0001) //       NORTH: Tile = 000005, Process = 000001, Comm = put
(PID.TID 0000.0001) //                bi = 000005, bj = 000001
(PID.TID 0000.0001) // Tile number: 000006 (process no. = 000001)
(PID.TID 0000.0001) //        WEST: Tile = 000005, Process = 000001, Comm = put
(PID.TID 0000.0001) //                bi = 000005, bj = 000001
(PID.TID 0000.0001) //        EAST: Tile = 000001, Process = 000001, Comm = put
(PID.TID 0000.0001) //                bi = 000001, bj = 000001
(PID.TID 0000.0001) //       SOUTH: Tile = 000006, Process = 000001, Comm = put
(PID.TID 0000.0001) //                bi = 000006, bj = 000001
(PID.TID 0000.0001) //       NORTH: Tile = 000006, Process = 000001, Comm = put
(PID.TID 0000.0001) //                bi = 000006, bj = 000001
(PID.TID 0000.0001) 
(PID.TID 0000.0001) // =======================================================
(PID.TID 0000.0001) // Model parameter file "data"
(PID.TID 0000.0001) // =======================================================
(PID.TID 0000.0001) ># ====================
(PID.TID 0000.0001) ># | Model parameters |
(PID.TID 0000.0001) ># ====================
(PID.TID 0000.0001) >#
(PID.TID 0000.0001) ># Continuous equation parameters
(PID.TID 0000.0001) > &PARM01
(PID.TID 0000.0001) > tRef=15*20.,
(PID.TID 0000.0001) > sRef=15*35.,
(PID.TID 0000.0001) > viscAh =3.E5,
(PID.TID 0000.0001) > viscAr =1.E-3,
(PID.TID 0000.0001) > diffKhT=0.,
(PID.TID 0000.0001) > diffK4T=0.,
(PID.TID 0000.0001) > diffKrT=3.E-5,
(PID.TID 0000.0001) > diffKhS=0.,
(PID.TID 0000.0001) > diffK4S=0.,
(PID.TID 0000.0001) > diffKrS=3.E-5,
(PID.TID 0000.0001) > ivdc_kappa=10.,
(PID.TID 0000.0001) > implicitDiffusion=.TRUE.,
(PID.TID 0000.0001) > gravity=9.81,
(PID.TID 0000.0001) > rhonil=1035.,
(PID.TID 0000.0001) > rhoConstFresh=1000.,
(PID.TID 0000.0001) > eosType='JMD95Z',
(PID.TID 0000.0001) >#staggerTimeStep=.TRUE.,
(PID.TID 0000.0001) > vectorInvariantMomentum=.TRUE.,
(PID.TID 0000.0001) > implicitFreeSurface=.TRUE.,
(PID.TID 0000.0001) > exactConserv=.TRUE.,
(PID.TID 0000.0001) >#select_rStar=2,
(PID.TID 0000.0001) >#nonlinFreeSurf=4,
(PID.TID 0000.0001) > hFacInf=0.2,
(PID.TID 0000.0001) > hFacSup=2.0,
(PID.TID 0000.0001) >#useRealFreshWaterFlux=.TRUE.,
(PID.TID 0000.0001) >#allowFreezing=.TRUE.,
(PID.TID 0000.0001) > hFacMin=.1,
(PID.TID 0000.0001) > hFacMinDr=20.,
(PID.TID 0000.0001) > readBinaryPrec=64,
(PID.TID 0000.0001) > &
(PID.TID 0000.0001) >
(PID.TID 0000.0001) ># Elliptic solver parameters
(PID.TID 0000.0001) > &PARM02
(PID.TID 0000.0001) > cg2dMaxIters=200,
(PID.TID 0000.0001) >#cg2dTargetResidual=1.E-9,
(PID.TID 0000.0001) > cg2dTargetResWunit=1.E-14,
(PID.TID 0000.0001) > &
(PID.TID 0000.0001) >
(PID.TID 0000.0001) ># Time stepping parameters
(PID.TID 0000.0001) > &PARM03
(PID.TID 0000.0001) > nIter0=72000,
(PID.TID 0000.0001) > nTimeSteps=20,
(PID.TID 0000.0001) > deltaTmom   =1200.,
(PID.TID 0000.0001) > deltaTtracer=86400.,
(PID.TID 0000.0001) > deltaTfreesurf=86400.,
(PID.TID 0000.0001) > deltaTClock =86400.,
(PID.TID 0000.0001) > abEps = 0.1,
(PID.TID 0000.0001) > forcing_In_AB=.FALSE.,
(PID.TID 0000.0001) > pChkptFreq  =31104000.,
(PID.TID 0000.0001) > taveFreq    =31104000.,
(PID.TID 0000.0001) > dumpFreq    =31104000.,
(PID.TID 0000.0001) > monitorFreq =2592000.,
(PID.TID 0000.0001) >#tave_lastIter=0.,
(PID.TID 0000.0001) > periodicExternalForcing=.TRUE.,
(PID.TID 0000.0001) > externForcingPeriod=2592000.,
(PID.TID 0000.0001) > externForcingCycle=31104000.,
(PID.TID 0000.0001) ># 2 months restoring timescale for temperature
(PID.TID 0000.0001) > tauThetaClimRelax = 5184000.,
(PID.TID 0000.0001) ># 6 months restoring timescale for salinity
(PID.TID 0000.0001) > tauSaltClimRelax = 15552000.,
(PID.TID 0000.0001) > latBandClimRelax=50.,
(PID.TID 0000.0001) > monitorFreq =1.,
(PID.TID 0000.0001) > &
(PID.TID 0000.0001) >
(PID.TID 0000.0001) ># Gridding parameters
(PID.TID 0000.0001) > &PARM04
(PID.TID 0000.0001) > usingCartesianGrid=.FALSE.,
(PID.TID 0000.0001) > usingSphericalPolarGrid=.FALSE.,
(PID.TID 0000.0001) > usingCurvilinearGrid=.TRUE.,
(PID.TID 0000.0001) > delR= 50., 70., 100., 140., 190.,
(PID.TID 0000.0001) >       240., 290., 340., 390., 440.,
(PID.TID 0000.0001) >       490., 540., 590., 640., 690.,
(PID.TID 0000.0001) > &
(PID.TID 0000.0001) >
(PID.TID 0000.0001) ># Input datasets
(PID.TID 0000.0001) > &PARM05
(PID.TID 0000.0001) > bathyFile      ='bathy_Hmin50.bin',
(PID.TID 0000.0001) > hydrogThetaFile='lev_T_cs_15k.bin',
(PID.TID 0000.0001) > hydrogSaltFile ='lev_S_cs_15k.bin',
(PID.TID 0000.0001) > zonalWindFile  ='trenberth_taux.bin',
(PID.TID 0000.0001) > meridWindFile  ='trenberth_tauy.bin',
(PID.TID 0000.0001) > thetaClimFile  ='lev_surfT_cs_12m.bin',
(PID.TID 0000.0001) > saltClimFile   ='lev_surfS_cs_12m.bin',
(PID.TID 0000.0001) > surfQFile      ='shiQnet_cs32.bin',
(PID.TID 0000.0001) > EmPmRFile      ='shiEmPR_cs32.bin',
(PID.TID 0000.0001) > &
(PID.TID 0000.0001) 
(PID.TID 0000.0001) S/R INI_PARMS ; read PARM01 : OK
(PID.TID 0000.0001) S/R INI_PARMS ; read PARM02 : OK
(PID.TID 0000.0001) S/R INI_PARMS ; read PARM03 : OK
(PID.TID 0000.0001) S/R INI_PARMS ; read PARM04 : OK
(PID.TID 0000.0001) S/R INI_PARMS ; read PARM05 : OK
(PID.TID 0000.0001)  MDSREADFIELD: opening global file: LONC.bin
(PID.TID 0000.0001)  MDSREADFIELD: opening global file: LATC.bin
(PID.TID 0000.0001)  MDSREADFIELD: opening global file: DXF.bin
(PID.TID 0000.0001)  MDSREADFIELD: opening global file: DYF.bin
(PID.TID 0000.0001)  MDSREADFIELD: opening global file: RA.bin
(PID.TID 0000.0001)  MDSREADFIELD: opening global file: LONG.bin
(PID.TID 0000.0001)  MDSREADFIELD: opening global file: LATG.bin
(PID.TID 0000.0001)  MDSREADFIELD: opening global file: DXV.bin
(PID.TID 0000.0001)  MDSREADFIELD: opening global file: DYU.bin
(PID.TID 0000.0001)  MDSREADFIELD: opening global file: RAZ.bin
(PID.TID 0000.0001)  MDSREADFIELD: opening global file: DXC.bin
(PID.TID 0000.0001)  MDSREADFIELD: opening global file: DYC.bin
(PID.TID 0000.0001)  MDSREADFIELD: opening global file: RAW.bin
(PID.TID 0000.0001)  MDSREADFIELD: opening global file: RAS.bin
(PID.TID 0000.0001)  MDSREADFIELD: opening global file: DXG.bin
(PID.TID 0000.0001)  MDSREADFIELD: opening global file: DYG.bin
(PID.TID 0000.0001)  MDSREADFIELD: opening global file: bathy_Hmin50.bin
(PID.TID 0000.0001) // =======================================================
(PID.TID 0000.0001) // Field Model R_low (ini_masks_etc) at iteration          1
(PID.TID 0000.0001) // CMIN =         -5.200000000000000E+03
(PID.TID 0000.0001) // CMAX =         -5.000000000000000E+01
(PID.TID 0000.0001) // CINT =          1.907407407407407E+02
(PID.TID 0000.0001) // SYMBOLS (CMIN->CMAX): -abcdefghijklmnopqrstuvwxyz+
(PID.TID 0000.0001) //                  0.0: .
(PID.TID 0000.0001) // RANGE I (Lo:Hi:Step):(  -1: 194:   1)
(PID.TID 0000.0001) // RANGE J (Lo:Hi:Step):(  34:  -1:  -1)
(PID.TID 0000.0001) // RANGE K (Lo:Hi:Step):(   1:   1:   1)
(PID.TID 0000.0001) // =======================================================
(PID.TID 0000.0001) K =   1
(PID.TID 0000.0001) //                I=8       I=18      I=28      I=34      I=44      I=54      I=64      I=70      I=80      I=90      I=96      I=106     I=116     I=126     I=132     I=142     I=152     I=162     I=168     I=178     I=188
(PID.TID 0000.0001) // |--J--|*01234567|901234567|901234567|901234123|567890123|567890123|567890123|563456789|123456789|123456789|123456785|789012345|789012345|789012345|789078901|345678901|345678901|345678901|901234567|901234567|901234567|901234
(PID.TID 0000.0001) //     34 ..a-abcehjnldcclz+........spps...................................vkqn+....cbba--aabfu+..............hcbaaa....aaccdccbaaabbddddccdffffghfeeeee....efilhfcaaaacgceei.......zomggfca....ecbbccddefilihecbaacbaajfega-aes..
(PID.TID 0000.0001) //     33 ..bbccceiomkfdbbc+.......+s......................................xsrxz....db-----adu+...............hcbaa-....-accddba--bbbddddccdfffhhgfeeddc....dfgikhfffdfgccffw........zohhgeb....baaaaaccdfhlhfefdcccaabjefbaaafo..
(PID.TID 0000.0001) //     32 bddefhhkqqlgfaakqz..v.+..+.....................................++..u+...fdba----adu+................kdcaaa-aaa-accdcb---bbbcdddddefffggfeeedccccbbdcdfgghhiihcbeiw.........+ynjgebaaebaaaa-aacccfikkhecccbbbaaabaadfklnq
(PID.TID 0000.0001) //     31 bcffijnpnqneaaat..umrr+s.z.....................................+++++.ztsfeb--dfdfu+................+lkdca--aa--abcccb---bbbbddddeffflhfeeeecbbbb-abbacbcdceffbbfw+..........++ujfbaafbaaa----aacffiljgfffcca--adfikkiihh
(PID.TID 0000.0001) //     30 adgillkkkifcadcx.ymmqzqikvnnps.................................+++++wmegifcacdlqx+++...............mligea---a---abbbb---abaaddddeedkmeddefdbbbaa---b--aaaaabaabm..............+viba-iba-------acdefinmlgiieb-chnnnmlmlgf
(PID.TID 0000.0001) //     29 cfiljigfjd--efdozy...+ximpnnuz..................................+++yqddhjhcbbchz+......++.........+mmhffc---c----aaba------acdddcbcineddgdbaaa--d--a------aa-bfz...............+qe--qe---aa---aedeegknmlgiigcdfhpokkimlf
(PID.TID 0000.0001) //     28 bgkhfcccea-bdei........t........................................++zwgfcfnhccbbhwwy.....+++........+njfeed---d-----aa-------abddcabcnfddegcaaa---f------------dk+................+ja-+ja------bffdddehfd--bedaacfhpnligii
(PID.TID 0000.0001) //     27 cghfbaaaa-achmy..........................+++....................++vnbbbcpkeeecflmqxy....++........+lhfeecc--cc------------aaadcbabcfhddccba-----d-----------irw.................++e-++e-----mhmijddda--------ahhfiokhede
(PID.TID 0000.0001) //     26 dhfca-----bfiv...........................++sy...................+tq-fdbbnqiheddefhiksz++++........zkhfdccb--cb------------aabdcaaaacfddbca------fa-abb-----vvv...................+wa.+wa---mlmkijhc----------cjjffiheb-a
(PID.TID 0000.0001) //     25 chfa------ch+..................w...........njo+................+x-----bcqqojfefiiiijmy.++.........zkhfdbaa--aa-------daa---acccaaaacccca--------udaabbb----tei...................++q.++qdeqnghiljcaaaaidaa----beedeeca--
(PID.TID 0000.0001) //     24 eifa--acbcei...................w...........likn+.....++.....++znpa----bbnlmnjhinlksssw............qhfeca------------addc--aeffaaaaaaccb-a----a--+udbbaba---ven....................++..++xywnfgllcbbabegkecba----ddddcaac
(PID.TID 0000.0001) //     23 fida-aabchjk...................zz...z.....nhhijz....tqq.....+ujgzgd---abegklkkknols..xuu..........zgfdba------------bcd---affaaadffabbb-----aa-b.+ufb-----l.gx...........s.........+...++zzkfilfccccoz..ulkcd---bccnfddd
(PID.TID 0000.0001) //     22 fhfaa---bfgi....................zz..zz..rnjffggm...nlmn+....+sffzya--aabaffdfhimrmp...yuu.++.......zudba------------adc---dda-adffe-aa--------aa..+ufc-baaqvhh..........dcfeeh..........++zggqvifefhz......zobbaccfwuffe
(PID.TID 0000.0001) //     21 bcgca----abe.....................yss.ysstlgeeeeoz..ijklt+....lfjzzf---adaadcehllotq....yy+++zzs.....+zcba---a-------cdd--aaa----df------------aa...+upjdcy.vohq.......+idcdfeeefwz..wz....+hhn.vklox.........gdccfjwrigf
(PID.TID 0000.0001) //     20 bbcgfcaa-aae+...........................lcgfdddhq.+hiilnz++.+oquxyz--adgaabcfmtooyxz......+yuiiy....++gb------------ddcca-a-----acbaa------bbaaa......ywxy.lulo.lv...kcdgddffefffilyfilyx+fffk.+xyyy.........mgeimvskjkl
(PID.TID 0000.0001) //     19 feccdghfeegcbt..........................aafifccgnrzgghjry.+++sr+lq.--edftkblwnnsp.vv......skhggt...+++t-------------bdaf---------edd-------adlaa.........vnhzy.tllqiedccdhggfggffiigfiiggfcbdgy..yz..........xigqophijkk
(PID.TID 0000.0001) //     18 wifedfkhfegbbcivlqfoz..............j...jaacfihggokeeffgt..++++..hhlfdedd.qcz+.zwxtsttz..ysrkhot++++++zig------------b--f---------egqqqaa----frb-.......+kkrhw.vqmlnieddcdehgggffgigegigedbaaceiy.............zilrddefikk
(PID.TID 0000.0001) //     17 +wfeefikhgcbbccaaacgn.............ic..icaaccfihfoedddeedy..++...nnqwgfee.z++..+zsjjllllljllpjos+++.+zhhi---------e-----ea--------foqqoqqo--hlwge.......+nk+..xiioonhfefddegihhghigfdigfdbaaabdgx..............nheddefikl
(PID.TID 0000.0001) //     16 ..wiheddeccdfhfbabdfl............jdb.jdbaddddgifkccccdccd+.++..++ynvz.tku....++zyslllllkhggkmpy++...ihhi---------ea---feb-----a-acnoohfghknvmwnu........qhu..hhhkojgffgeefghihhiieedieedbaaabcdy..............ygddeghilj
(PID.TID 0000.0001) //     15 ....ylea--acfihebcbbes..........sfcbsfcbbngfffigcaaabdbcac+.+++++zgmpx..m....++..zslwz.yhhhhnz+++...rhgc--------ab----ige----acaaalllkddfiy..ysw........thk.xgghiligfghfefhhhhiiheedheedcdbbabdmz.............zfdeghikki
(PID.TID 0000.0001) //     14 ......c---acgkhdcc--di..........ofddofddchohffikaaaaabaaa-aw+.+ysnggox++rv..........yzzzzrjil+++....qhgd---------a-----i---cccdeabkklldinqssy..x.........+y.uhghikihgfghefgihhhgeeeeeeeeeddbaadhw.............nedeghjjhf
(PID.TID 0000.0001) //     13 .....+b----cfkhec---afz.........nhfdnhfdffholghkaaaaaba-a---flkkuswyy+++r...........zzzzz++ry++......yd------------------aeecdeidfkkqnqlmqquukqq............iihiijjhfefgefhjihiffgggfgggffecaabelx...........zjecehijhfe
(PID.TID 0000.0001) //     12 .....ec----chjhec---ag..........skiqskiqddeiiiifaaabae--a---dd--iu+++.++++..........+z+++++.+++....++.s----------------a-ceccdejhlllkqlkklssiccd...........wjkkkjjjigeefffgjiiighiiihiiihhhdaabdffghtxx......mfccehjiffd
(PID.TID 0000.0001) //     11 ....pdca--achlheba--ai..........nkn.nkn.fdemijidaaaabi-------a--q+....++s...........+++++..........+yyza--------b-----a--ccccddkhieekkossssfbbbb..........njjijhhihijhgggggjjjjijkkkjkkkkjjhcaacddeegpy.....xfdccdhjgfdd
(PID.TID 0000.0001) //     10 ....wfdb--achlhea---an.........uos..os..dcemikkfdcaabi-------equ+..................................zyvuq--------cc----a---dcfhkopqjeissrnpfbbccc........zslihhigghgijjihhhhkllkkkkkkkkkkjkkkedccdeeeeipz..zwhccbcdhgfddc
(PID.TID 0000.0001) //      9 ....vgec---bfikca--cjl+.......+nnv.+nv.+ccffhkkiddaadha-----as++........z++........................zxuuk----------a---a----djmqrrnlllsoiddcccccd.......+zjijhfgfggffhjkkkiillljihhghhhghgihighdeeffgghimnnjgecbbcdgfeccb
(PID.TID 0000.0001) //      8 ...zleca---afjfca--hdfz.......vkky.jky.jceddefijffdddhb--a-afv............ss.........................+yku---u--------------ejnpqqnninnritqdccchk......wihgghgeffffeefhijkjkljiigeeffeeffefffhjhhikkklljklmhffeeeggfdcbaa
(PID.TID 0000.0001) //      7 .+zohec--abcfkhecbchbdx.......qiht.fht.faaaabdgijgfededcdcb-f+.............pz.........................+zu---u--------------edefqgqddsz+......+yu+....tiggfggfeeeefeeefiiiijkiihhedddeddddddddjjllliijhfkmmkkjjhijgdcba--
(PID.TID 0000.0001) //      6 +yomfddcaabefkifdchaadt......uqdeisceisc----dfefgifffkklldc--v.............pp.........................v.x---x---------a----fbbpqgzenx+........zdlkhhfffffffgfeeeeeeeefhhhhijihhffddcfddcbbbbdhhiihedddb-cfhhhjjjieca----
(PID.TID 0000.0001) //      5 +nhgffkghccfhkhffgdaackz....uoibcimlcimlaaacfbddfjjhijeehf-a-c.............su.........................qk.yi-.yi-------gha-fjddqs+xkrz.........q-kdccdeeeeeeedddedddddgghhhhjhhgffcbbfcbbaaaaddfegecca----dfeefhfgdb-----
(PID.TID 0000.0001) //      4 ujhgfllfhdffhkfffca-aady...llnabdopfdopfcbdgdbcdehlihgfddc--ms........................................okn.zdn.zd---eciiiicfkeeqy.ysz..........n-dcbbdeddedcdcccdddcddffggghiggfffdbafdbaa---acdcccba--abvfedeffdcca----b
(PID.TID 0000.0001) //      3 jggfcceeffffjlkjgaa---bfvheeln-aesphesphfdhgabddeflihhgfecbaaayq+++++.................................kqnz.vnz.vtpkllgdccfkkkkk..++..........+g-caaadcdddcbbbbcdddcccdffffghgffffdcafdcaa----abcaaaa-acxxmecdjmdbba----r
(PID.TID 0000.0001) //      2 feecbbccddefilihecbaacbaajfega-aesqhesqhffiea-cdeflkkljifeddcba---bry+...............................vkqn+.sn+.sghfcbcbbbdgfdek.++++.........+l-aaaaccdccbaaabbddddccdffffghfeeeeecbeecba------baaaa-euwxqdbcdkud-----sy
(PID.TID 0000.0001) //      1 bbbaaaaaccdfhlhfefdcccaabjefbaaafonhfonhglid--adfgkkkklkhffddca-----s+++.............................xsrxz.txz.tedcbbbbaaadddet.++++.........+l--a-accddba--bbbddddccdfffhhgfeeddccbdccba-------aaaabgns.qcbcchyzqngll++
(PID.TID 0000.0001) //      0 ..aaaa-aacccfikkhecccbbbaaabaadfkl....lilmgebaadfijjiiikjhffdcba-----l.............................++..u+......zmdfbd---a-aeef.xx+..........++....-accdcb---bbbcdddddefffggfeeedcc....cbba----aa--alrwwy.kcbccc+...+++..
(PID.TID 0000.0001) //     -1 ..aaa----aacffiljgfffcca--adfikkii....kimiiheccfurkiffhijjigfecb-----l.............................+++++.z....+.wqgbf-------dgzpoy+........+ys....-abcccb---bbbbddddeffflhfeeeecbb....cbbaa----a--bdflm.yuibbcc.........
(PID.TID 0000.0001) // =======================================================
(PID.TID 0000.0001) // END OF FIELD                                          =
(PID.TID 0000.0001) // =======================================================
(PID.TID 0000.0001) 
(PID.TID 0000.0001) // =======================================================
(PID.TID 0000.0001) // Field Model Ro_surf (ini_masks_etc) at iteration          1
(PID.TID 0000.0001) // CMIN =         -7.105427357601002E-15
(PID.TID 0000.0001) // CMAX =         -7.105427357601002E-15
(PID.TID 0000.0001) // CINT =          0.000000000000000E+00
(PID.TID 0000.0001) // SYMBOLS (CMIN->CMAX): -abcdefghijklmnopqrstuvwxyz+
(PID.TID 0000.0001) //                  0.0: .
(PID.TID 0000.0001) // RANGE I (Lo:Hi:Step):(  -1: 194:   1)
(PID.TID 0000.0001) // RANGE J (Lo:Hi:Step):(  34:  -1:  -1)
(PID.TID 0000.0001) // RANGE K (Lo:Hi:Step):(   1:   1:   1)
(PID.TID 0000.0001) // =======================================================
(PID.TID 0000.0001) K =   1
(PID.TID 0000.0001) //                I=8       I=18      I=28      I=34      I=44      I=54      I=64      I=70      I=80      I=90      I=96      I=106     I=116     I=126     I=132     I=142     I=152     I=162     I=168     I=178     I=188
(PID.TID 0000.0001) // |--J--|*01234567|901234567|901234567|901234123|567890123|567890123|567890123|563456789|123456789|123456789|123456785|789012345|789012345|789012345|789078901|345678901|345678901|345678901|901234567|901234567|901234567|901234
(PID.TID 0000.0001) //     34 ........................................................................................................................................................................................................................
(PID.TID 0000.0001) //     33 ........................................................................................................................................................................................................................
(PID.TID 0000.0001) //     32 ........................................................................................................................................................................................................................
(PID.TID 0000.0001) //     31 ........................................................................................................................................................................................................................
(PID.TID 0000.0001) //     30 ........................................................................................................................................................................................................................
(PID.TID 0000.0001) //     29 ................................................................................-.......................................................................................................................................
(PID.TID 0000.0001) //     28 ........................................................................................................................................................................................................................
(PID.TID 0000.0001) //     27 .................................................................-......................................................................................................................................................
(PID.TID 0000.0001) //     26 ........................................................................................................................................................................................................................
(PID.TID 0000.0001) //     25 ........................................................................................................................................................................................................................
(PID.TID 0000.0001) //     24 ........................................................................................................................................................................................................................
(PID.TID 0000.0001) //     23 ........................................................................................................................................................................................................................
(PID.TID 0000.0001) //     22 ........................................................................................................................................................................................................................
(PID.TID 0000.0001) //     21 ........................................................................................................................................................................................................................
(PID.TID 0000.0001) //     20 ............................................................-...........................................................................................................................................................
(PID.TID 0000.0001) //     19 ........................................................................................................................................................................................................................
(PID.TID 0000.0001) //     18 ........................................................................................................................................................................................................................
(PID.TID 0000.0001) //     17 ........................................................................................................................................................................................................................
(PID.TID 0000.0001) //     16 ........................................................................................................................................................................................................................
(PID.TID 0000.0001) //     15 ........................................................................................................................................................................................................................
(PID.TID 0000.0001) //     14 ........................................................................................................................................................................................................................
(PID.TID 0000.0001) //     13 ........................................................................................................................................................................................................................
(PID.TID 0000.0001) //     12 ........................................................................................................................................................................................................................
(PID.TID 0000.0001) //     11 ........................................................................................................................................................................................................................
(PID.TID 0000.0001) //     10 ........................................................................................................................................................................................................................
(PID.TID 0000.0001) //      9 ..............................-....-...-................................................................................................................................................................................
(PID.TID 0000.0001) //      8 ........................................................................................................................................................................................................................
(PID.TID 0000.0001) //      7 ........................................................................................................................................................................................................................
(PID.TID 0000.0001) //      6 ........................................................................................................................................................................................................................
(PID.TID 0000.0001) //      5 ........................................................................................................................................................................................................................
(PID.TID 0000.0001) //      4 ........................................................................................................................................................................................................................
(PID.TID 0000.0001) //      3 ........................................................................................................................................................................................................................
(PID.TID 0000.0001) //      2 ........................................................................................................................................................................................................................
(PID.TID 0000.0001) //      1 ........................................................................................................................................................................................................................
(PID.TID 0000.0001) //      0 ........................................................................................................................................................................................................................
(PID.TID 0000.0001) //     -1 ........................................................................................................................................................................................................................
(PID.TID 0000.0001) // =======================================================
(PID.TID 0000.0001) // END OF FIELD                                          =
(PID.TID 0000.0001) // =======================================================
(PID.TID 0000.0001) 
(PID.TID 0000.0001) // =======================================================
(PID.TID 0000.0001) // Field hFacC at iteration          1
(PID.TID 0000.0001) // CMIN =          1.000000000000000E+00
(PID.TID 0000.0001) // CMAX =          1.000000000000000E+00
(PID.TID 0000.0001) // CINT =          0.000000000000000E+00
(PID.TID 0000.0001) // SYMBOLS (CMIN->CMAX): -abcdefghijklmnopqrstuvwxyz+
(PID.TID 0000.0001) //                  0.0: .
(PID.TID 0000.0001) // RANGE I (Lo:Hi:Step):(  -1: 194:   1)
(PID.TID 0000.0001) // RANGE J (Lo:Hi:Step):(  34:  -1:  -1)
(PID.TID 0000.0001) // RANGE K (Lo:Hi:Step):(   1:   1:   1)
(PID.TID 0000.0001) // =======================================================
(PID.TID 0000.0001) K =   1
(PID.TID 0000.0001) //                I=8       I=18      I=28      I=34      I=44      I=54      I=64      I=70      I=80      I=90      I=96      I=106     I=116     I=126     I=132     I=142     I=152     I=162     I=168     I=178     I=188
(PID.TID 0000.0001) // |--J--|*01234567|901234567|901234567|901234123|567890123|567890123|567890123|563456789|123456789|123456789|123456785|789012345|789012345|789012345|789078901|345678901|345678901|345678901|901234567|901234567|901234567|901234
(PID.TID 0000.0001) //     34 ..----------------........----...................................-----....------------..............------....--------------------------------....-----------------.......--------....--------------------------------..
(PID.TID 0000.0001) //     33 ..----------------.......--......................................-----....-----------...............------....--------------------------------....-----------------........-------....--------------------------------..
(PID.TID 0000.0001) //     32 ------------------..-.-..-.....................................--..--...------------................--------------------------------------------------------------.........---------------------------------------------
(PID.TID 0000.0001) //     31 ----------------..------.-.....................................-----.--------------................---------------------------------------------------------------..........--------------------------------------------
(PID.TID 0000.0001) //     30 ----------------.-------------.................................---------------------...............-------------------------------------------------------------..............------------------------------------------
(PID.TID 0000.0001) //     29 ------------------...---------..................................-----------------......--.........--------------------------------------------------------------...............-----------------------------------------
(PID.TID 0000.0001) //     28 ---------------........-........................................------------------.....---........--------------------------------------------------------------................----------------------------------------
(PID.TID 0000.0001) //     27 ---------------..........................---....................--------------------....--........-------------------------------------------------------------.................----------------------------------------
(PID.TID 0000.0001) //     26 --------------...........................----...................--------------------------........------------------------------------------------------------...................---.-----------------------------------
(PID.TID 0000.0001) //     25 -------------..................-...........----................-----------------------.--.........------------------------------------------------------------...................---.-----------------------------------
(PID.TID 0000.0001) //     24 ------------...................-...........-----.....--.....--------------------------............------------------------------------------------------------....................--..----------------------------------
(PID.TID 0000.0001) //     23 ------------...................--...-.....------....---.....-----------------------..---..........----------------------------------------------.----------.--...........-.........-...---------------..----------------
(PID.TID 0000.0001) //     22 ------------....................--..--..--------...-----....-----------------------...---.--.......---------------------------------------------..------------..........------..........-------------......-------------
(PID.TID 0000.0001) //     21 ------------.....................---.------------..------....----------------------....--------.....--------------------------------------------...-------.----.......------------..--....----.-----.........-----------
(PID.TID 0000.0001) //     20 -------------...........................---------.---------.------------------------......------....--------------------------------------------......----.----.--...-------------------------.-----.........-----------
(PID.TID 0000.0001) //     19 --------------..........................-----------------.--------.--------------.--......------...---------------------------------------------.........-----.--------------------------------..--..........-----------
(PID.TID 0000.0001) //     18 ---------------------..............-...-----------------..----..--------.----.--------..--------------------------------------------------------.......------.----------------------------------.............-----------
(PID.TID 0000.0001) //     17 ---------------------.............--..-------------------..--...--------.---..--------------------.---------------------------------------------.......----..-----------------------------------..............----------
(PID.TID 0000.0001) //     16 ..-------------------............---.---------------------.--..------.---....--------------------...--------------------------------------------........---..-----------------------------------..............----------
(PID.TID 0000.0001) //     15 ....------------------..........---------------------------.----------..-....--..-----.----------...---------------------------------------..---........---.-------------------------------------.............----------
(PID.TID 0000.0001) //     14 ......----------------..........-----------------------------.------------..........------------....-----------------------------------------..-.........--.-------------------------------------.............----------
(PID.TID 0000.0001) //     13 .....------------------.........-----------------------------------------...........-----------......-------------------------------------------............--------------------------------------...........-----------
(PID.TID 0000.0001) //     12 .....-----------------..........-------------------------------------.----..........-------.---....--.------------------------------------------...........--------------------------------------------......-----------
(PID.TID 0000.0001) //     11 ....------------------..........---.---.--------------------------....---...........-----..........---------------------------------------------..........---------------------------------------------.....------------
(PID.TID 0000.0001) //     10 ....------------------.........---..--..-------------------------..................................---------------------------------------------........------------------------------------------------..--------------
(PID.TID 0000.0001) //      9 ....-------------------.......----.---.-------------------------........---........................---------------------------------------------.......-----------------------------------------------------------------
(PID.TID 0000.0001) //      8 ...--------------------.......----.---.-----------------------............--.........................-------------------------------------------......------------------------------------------------------------------
(PID.TID 0000.0001) //      7 .----------------------.......----.---.-----------------------.............--.........................---------------------------------......----....-------------------------------------------------------------------
(PID.TID 0000.0001) //      6 -----------------------......---------------------------------.............--.........................-.------------------------------........--------------------------------------------------------------------------
(PID.TID 0000.0001) //      5 ------------------------....----------------------------------.............--.........................--.---.------------------------.........--------------------------------------------------------------------------
(PID.TID 0000.0001) //      4 ------------------------...-----------------------------------........................................---.---.------------------.---..........--------------------------------------------------------------------------
(PID.TID 0000.0001) //      3 ---------------------------------------------------------------------.................................----.---.----------------..--..........---------------------------------------------------------------------------
(PID.TID 0000.0001) //      2 ----------------------------------------------------------------------...............................-----.---.----------------.----.........---------------------------------------------------------------------------
(PID.TID 0000.0001) //      1 ------------------------------------------------------------------------.............................-----.---.----------------.----.........-----------------------------------------------------------.---------------
(PID.TID 0000.0001) //      0 ..--------------------------------....--------------------------------.............................--..--......---------------.---..........--....--------------------------------....------------------.-------...---..
(PID.TID 0000.0001) //     -1 ..--------------------------------....--------------------------------.............................-----.-....-.-------------------........---....--------------------------------....-----------------.-------.........
(PID.TID 0000.0001) // =======================================================
(PID.TID 0000.0001) // END OF FIELD                                          =
(PID.TID 0000.0001) // =======================================================
(PID.TID 0000.0001) 
(PID.TID 0000.0001) // =======================================================
(PID.TID 0000.0001) // Field hFacW at iteration          1
(PID.TID 0000.0001) // CMIN =          1.000000000000000E+00
(PID.TID 0000.0001) // CMAX =          1.000000000000000E+00
(PID.TID 0000.0001) // CINT =          0.000000000000000E+00
(PID.TID 0000.0001) // SYMBOLS (CMIN->CMAX): -abcdefghijklmnopqrstuvwxyz+
(PID.TID 0000.0001) //                  0.0: .
(PID.TID 0000.0001) // RANGE I (Lo:Hi:Step):(  -1: 194:   1)
(PID.TID 0000.0001) // RANGE J (Lo:Hi:Step):(  34:  -1:  -1)
(PID.TID 0000.0001) // RANGE K (Lo:Hi:Step):(   1:   1:   1)
(PID.TID 0000.0001) // =======================================================
(PID.TID 0000.0001) K =   1
(PID.TID 0000.0001) //                I=8       I=18      I=28      I=34      I=44      I=54      I=64      I=70      I=80      I=90      I=96      I=106     I=116     I=126     I=132     I=142     I=152     I=162     I=168     I=178     I=188
(PID.TID 0000.0001) // |--J--|*01234567|901234567|901234567|901234123|567890123|567890123|567890123|563456789|123456789|123456789|123456785|789012345|789012345|789012345|789078901|345678901|345678901|345678901|901234567|901234567|901234567|901234
(PID.TID 0000.0001) //     34 ..----------------.........---....................................----....------------...............------...---------------------------------...-----------------........--------...---------------------------------.
(PID.TID 0000.0001) //     33 ..----------------........-.......................................----....-----------................------...---------------------------------...-----------------.........-------...---------------------------------.
(PID.TID 0000.0001) //     32 ------------------..............................................-...-...------------.................-------------------------------------------------------------..........--------------------------------------------
(PID.TID 0000.0001) //     31 ----------------...-----........................................----..-------------.................--------------------------------------------------------------...........-------------------------------------------
(PID.TID 0000.0001) //     30 ----------------..------------..................................--------------------................------------------------------------------------------------...............-----------------------------------------
(PID.TID 0000.0001) //     29 ------------------....--------...................................----------------.......-..........-------------------------------------------------------------................----------------------------------------
(PID.TID 0000.0001) //     28 ---------------..................................................-----------------......--.........-------------------------------------------------------------.................---.-----------------------------------
(PID.TID 0000.0001) //     27 ---------------...........................--.....................-------------------.....-.........------------------------------------------------------------..................---.-----------------------------------
(PID.TID 0000.0001) //     26 --------------............................---....................-------------------------.........-----------------------------------------------------------....................--..----------------------------------
(PID.TID 0000.0001) //     25 -------------...............................---.................----------------------..-..........-----------------------------------------------------------....................--..----------------------------------
(PID.TID 0000.0001) //     24 ------------................................----......-......-------------------------.............-----------------------------------------------------------.....................-...---------------------------------
(PID.TID 0000.0001) //     23 ------------....................-...-......-----.....--......----------------------...--...........---------------------------------------------..---------..-..........................--------------...---------------
(PID.TID 0000.0001) //     22 ------------.....................-...-...-------....----.....----------------------....--..-........--------------------------------------------...-----------...........-----...........------------.......------------
(PID.TID 0000.0001) //     21 ------------......................--..-----------...-----.....---------------------.....-------......-------------------------------------------....------..---........-----------..--.....---..----..........----------
(PID.TID 0000.0001) //     20 -------------............................--------..--------..-----------------------.......-----.....-------------------------------------------.......---..---..-....------------------------..----..........----------
(PID.TID 0000.0001) //     19 --------------...........................----------------..-------..-------------..-.......-----....--------------------------------------------..........----..-------------------------------...-...........----------
(PID.TID 0000.0001) //     18 .--------------------...................----------------...---...-------..---..-------...-------------------------------------------------------........-----..---------------------------------..............----------
(PID.TID 0000.0001) //     17 .--------------------..............-...------------------...-....-------..--...-------------------..--------------------------------------------........---...----------------------------------...............---------
(PID.TID 0000.0001) //     16 ...------------------.............--..--------------------..-...-----..--.....-------------------....-------------------------------------------.........--...----------------------------------...............---------
(PID.TID 0000.0001) //     15 .....-----------------...........---.----------------------..---------..-.....-...----..---------....--------------------------------------...--.........--..------------------------------------..............---------
(PID.TID 0000.0001) //     14 .......---------------...........---.------------------------..-----------...........-----------.....----------------------------------------.............-..------------------------------------..............---------
(PID.TID 0000.0001) //     13 ......-----------------..........---.------------------------------------............----------.......------------------------------------------.............-------------------------------------............----------
(PID.TID 0000.0001) //     12 ......----------------...........---.--------------------------------..---...........------..--.....-..-----------------------------------------............-------------------------------------------.......----------
(PID.TID 0000.0001) //     11 .....-----------------...........--..--..-------------------------.....--............----...........--------------------------------------------...........--------------------------------------------......-----------
(PID.TID 0000.0001) //     10 .....-----------------..........--..--...------------------------...................................--------------------------------------------.........-----------------------------------------------...-------------
(PID.TID 0000.0001) //      9 .....------------------........---..--..------------------------........---.........................--------------------------------------------........----------------------------------------------------------------
(PID.TID 0000.0001) //      8 ....-------------------........---..--..----------------------.............-..........................------------------------------------------.......-----------------------------------------------------------------
(PID.TID 0000.0001) //      7 ..---------------------........---..--..----------------------..............-..........................--------------------------------.......---.....------------------------------------------------------------------
(PID.TID 0000.0001) //      6 .----------------------.......--------------------------------..............-............................---.-------------------------.........-------------------------------------------------------------------------
(PID.TID 0000.0001) //      5 .-----------------------.....---------------------------------..............-..........................-..--..-----------------------..........-------------------------------------------------------------------------
(PID.TID 0000.0001) //      4 ------------------------....----------------------------------.........................................--..--..-----------------..--...........-------------------------------------------------------------------------
(PID.TID 0000.0001) //      3 ---------------------------------------------------------------------..................................---..--..---------------...-...........--------------------------------------------------------------------------
(PID.TID 0000.0001) //      2 ----------------------------------------------------------------------................................----..--..---------------..---..........--------------------------------------------------------------------------
(PID.TID 0000.0001) //      1 ------------------------------------------------------------------------..............................----..--..---------------..---..........----------------------------------------------------------..--------------
(PID.TID 0000.0001) //      0 ..---------------------------------...---------------------------------.............................-...-.......--------------..--...........--...---------------------------------...------------------..------....---.
(PID.TID 0000.0001) //     -1 ..---------------------------------...---------------------------------.............................----..-...-..------------------.........---...---------------------------------...-----------------..------.........
(PID.TID 0000.0001) // =======================================================
(PID.TID 0000.0001) // END OF FIELD                                          =
(PID.TID 0000.0001) // =======================================================
(PID.TID 0000.0001) 
(PID.TID 0000.0001) // =======================================================
(PID.TID 0000.0001) // Field hFacS at iteration          1
(PID.TID 0000.0001) // CMIN =          1.000000000000000E+00
(PID.TID 0000.0001) // CMAX =          1.000000000000000E+00
(PID.TID 0000.0001) // CINT =          0.000000000000000E+00
(PID.TID 0000.0001) // SYMBOLS (CMIN->CMAX): -abcdefghijklmnopqrstuvwxyz+
(PID.TID 0000.0001) //                  0.0: .
(PID.TID 0000.0001) // RANGE I (Lo:Hi:Step):(  -1: 194:   1)
(PID.TID 0000.0001) // RANGE J (Lo:Hi:Step):(  34:  -1:  -1)
(PID.TID 0000.0001) // RANGE K (Lo:Hi:Step):(   1:   1:   1)
(PID.TID 0000.0001) // =======================================================
(PID.TID 0000.0001) K =   1
(PID.TID 0000.0001) //                I=8       I=18      I=28      I=34      I=44      I=54      I=64      I=70      I=80      I=90      I=96      I=106     I=116     I=126     I=132     I=142     I=152     I=162     I=168     I=178     I=188
(PID.TID 0000.0001) // |--J--|*01234567|901234567|901234567|901234123|567890123|567890123|567890123|563456789|123456789|123456789|123456785|789012345|789012345|789012345|789078901|345678901|345678901|345678901|901234567|901234567|901234567|901234
(PID.TID 0000.0001) //     34 ..----------------........-......................................-----....-----------...............------....--------------------------------....-----------------........-------....--------------------------------..
(PID.TID 0000.0001) //     33 ------------------.......-.........................................--...------------................--------------------------------------------------------------.........---------------------------------------------
(PID.TID 0000.0001) //     32 ----------------....-.-..-.....................................--..-....-----------.................--------------------------------------------------------------..........--------------------------------------------
(PID.TID 0000.0001) //     31 ----------------..------.-.....................................-----.--------------................-------------------------------------------------------------..............------------------------------------------
(PID.TID 0000.0001) //     30 ----------------.-...---------..................................-----------------..................-------------------------------------------------------------...............-----------------------------------------
(PID.TID 0000.0001) //     29 ---------------........-........................................-----------------......--.........--------------------------------------------------------------................----------------------------------------
(PID.TID 0000.0001) //     28 ---------------.................................................------------------......--........-------------------------------------------------------------.................----------------------------------------
(PID.TID 0000.0001) //     27 --------------...........................---....................--------------------....--........------------------------------------------------------------...................---.-----------------------------------
(PID.TID 0000.0001) //     26 -------------..............................--...................----------------------.--.........------------------------------------------------------------...................---.-----------------------------------
(PID.TID 0000.0001) //     25 ------------...................-...........----................-----------------------............------------------------------------------------------------....................--..----------------------------------
(PID.TID 0000.0001) //     24 ------------...................-...........-----.....--.....-----------------------..-............----------------------------------------------.----------.--.....................-...---------------..----------------
(PID.TID 0000.0001) //     23 ------------....................-...-.....------....---.....-----------------------...--...........---------------------------------------------..---------.--...........-..............-------------......-------------
(PID.TID 0000.0001) //     22 ------------.....................-...-..--------...-----.....----------------------....--.--........--------------------------------------------...-------.---..........------............----.-----.........-----------
(PID.TID 0000.0001) //     21 ------------............................---------..------....----------------------.......-----.....--------------------------------------------......----.----.......------------..--....----.-----.........-----------
(PID.TID 0000.0001) //     20 -------------...........................---------.-------.-.------.--------------.--......------....--------------------------------------------.........-.---..--...-------------------------...--..........-----------
(PID.TID 0000.0001) //     19 --------------..........................----------------..----..--.-----.----.---.--......------...---------------------------------------------.........----..--------------------------------..............-----------
(PID.TID 0000.0001) //     18 ---------------------..............-...-----------------...--...--------.---..--------..----------.---------------------------------------------.......----...----------------------------------..............----------
(PID.TID 0000.0001) //     17 ..-------------------.............--..-------------------..--...-----.--......-------------------...--------------------------------------------........---..-----------------------------------..............----------
(PID.TID 0000.0001) //     16 ....-----------------............---.---------------------..-..------...-....--..-----.----------...---------------------------------------..---........---..-----------------------------------..............----------
(PID.TID 0000.0001) //     15 ......----------------..........---------------------------.-.--------..-...........--.---------....---------------------------------------....-.........--.-------------------------------------.............----------
(PID.TID 0000.0001) //     14 ......----------------..........-----------------------------.-----------...........-----------......----------------------------------------..-............-------------------------------------.............----------
(PID.TID 0000.0001) //     13 .....-----------------..........-------------------------------------.---...........-------.---.......------------------------------------------............--------------------------------------...........-----------
(PID.TID 0000.0001) //     12 .....-----------------..........---.---.--------------------------....---...........-----..........--.------------------------------------------...........--------------------------------------------......-----------
(PID.TID 0000.0001) //     11 ....------------------..........--..--..-------------------------..................................---------------------------------------------..........---------------------------------------------.....------------
(PID.TID 0000.0001) //     10 ....------------------.........---..--..------------------------...................................---------------------------------------------........------------------------------------------------..--------------
(PID.TID 0000.0001) //      9 ....-------------------.......----.---.-----------------------............-..........................-------------------------------------------.......-----------------------------------------------------------------
(PID.TID 0000.0001) //      8 ...--------------------.......----.---.-----------------------.............-..........................---------------------------------......---......------------------------------------------------------------------
(PID.TID 0000.0001) //      7 .----------------------.......----.---.-----------------------.............--.........................-.------------------------------........---....-------------------------------------------------------------------
(PID.TID 0000.0001) //      6 -----------------------......---------------------------------.............--.........................-..---.------------------------.........--------------------------------------------------------------------------
(PID.TID 0000.0001) //      5 ------------------------....----------------------------------........................................--..--..------------------.---..........--------------------------------------------------------------------------
(PID.TID 0000.0001) //      4 ------------------------...-----------------------------------........................................---..--..----------------..--...........--------------------------------------------------------------------------
(PID.TID 0000.0001) //      3 ---------------------------------------------------------------------.................................----.---.----------------..--..........---------------------------------------------------------------------------
(PID.TID 0000.0001) //      2 ----------------------------------------------------------------------...............................-----.---.----------------.----.........-----------------------------------------------------------.---------------
(PID.TID 0000.0001) //      1 ------------------------------------------------------------------------...............................--..--..---------------..--...........-----------------------------------------------------------.-------...----.
(PID.TID 0000.0001) //      0 ..--------------------------------....--------------------------------.............................--..-........--------------.---..........--....--------------------------------....-----------------..------.........
(PID.TID 0000.0001) //     -1 ..--------------------------------....--------------------------------.............................-----.-....-.-------------------........---....--------------------------------....-----------------.-------.........
(PID.TID 0000.0001) // =======================================================
(PID.TID 0000.0001) // END OF FIELD                                          =
(PID.TID 0000.0001) // =======================================================
(PID.TID 0000.0001) 
(PID.TID 0000.0001)  PACKAGES_BOOT: opening data.pkg
(PID.TID 0000.0001)  OPEN_COPY_DATA_FILE: opening file data.pkg
(PID.TID 0000.0001) // =======================================================
(PID.TID 0000.0001) // Parameter file "data.pkg"
(PID.TID 0000.0001) // =======================================================
(PID.TID 0000.0001) ># Packages
(PID.TID 0000.0001) > &PACKAGES
(PID.TID 0000.0001) > useGMRedi=.TRUE.,
(PID.TID 0000.0001) > useBulkforce=.TRUE.,
(PID.TID 0000.0001) > useThSIce=.TRUE.,
(PID.TID 0000.0001) > &
(PID.TID 0000.0001) 
(PID.TID 0000.0001)  PACKAGES_BOOT: finished reading data.pkg
(PID.TID 0000.0001)  GM_READPARMS: opening data.gmredi
(PID.TID 0000.0001)  OPEN_COPY_DATA_FILE: opening file data.gmredi
(PID.TID 0000.0001) // =======================================================
(PID.TID 0000.0001) // Parameter file "data.gmredi"
(PID.TID 0000.0001) // =======================================================
(PID.TID 0000.0001) ># GM+Redi package parameters:
(PID.TID 0000.0001) >
(PID.TID 0000.0001) >#-from MOM :
(PID.TID 0000.0001) ># GM_background_K: 	G & Mc.W  diffusion coefficient
(PID.TID 0000.0001) ># GM_maxSlope    :	max slope of isopycnals
(PID.TID 0000.0001) ># GM_Scrit       :	transition for scaling diffusion coefficient
(PID.TID 0000.0001) ># GM_Sd          :	half width scaling for diffusion coefficient
(PID.TID 0000.0001) ># GM_taper_scheme:	slope clipping or one of the tapering schemes
(PID.TID 0000.0001) ># GM_Kmin_horiz  :	horizontal diffusion minimum value
(PID.TID 0000.0001) >
(PID.TID 0000.0001) >#-Option parameters (needs to "define" options in GMREDI_OPTIONS.h")
(PID.TID 0000.0001) ># GM_isopycK     :	isopycnal diffusion coefficient (default=GM_background_K)
(PID.TID 0000.0001) ># GM_AdvForm     :	turn on GM Advective form       (default=Skew flux form)
(PID.TID 0000.0001) >
(PID.TID 0000.0001) > &GM_PARM01
(PID.TID 0000.0001) >  GM_background_K    = 800.,
(PID.TID 0000.0001) >  GM_taper_scheme    = 'gkw91',
(PID.TID 0000.0001) >  GM_maxSlope        = 1.e-2,
(PID.TID 0000.0001) >  GM_Kmin_horiz      = 50.,
(PID.TID 0000.0001) >  GM_Scrit           = 4.e-3,
(PID.TID 0000.0001) >  GM_Sd              = 1.e-3,
(PID.TID 0000.0001) ># GM_Visbeck_alpha   = 0.,
(PID.TID 0000.0001) ># GM_Visbeck_length  = 2.e+5,
(PID.TID 0000.0001) ># GM_Visbeck_depth   = 1.e+3,
(PID.TID 0000.0001) ># GM_Visbeck_maxval_K= 2.5e+3,
(PID.TID 0000.0001) > &end
(PID.TID 0000.0001) >
(PID.TID 0000.0001) >
(PID.TID 0000.0001) 
(PID.TID 0000.0001)  GM_READPARMS: finished reading data.gmredi
(PID.TID 0000.0001)  BULKF_READPARMS: opening data.blk
(PID.TID 0000.0001)  OPEN_COPY_DATA_FILE: opening file data.blk
(PID.TID 0000.0001) // =======================================================
(PID.TID 0000.0001) // Parameter file "data.blk"
(PID.TID 0000.0001) // =======================================================
(PID.TID 0000.0001) > &BULKF_CONST
(PID.TID 0000.0001) > Tf0kel = 273.15,
(PID.TID 0000.0001) > p0     = 1013.,
(PID.TID 0000.0001) > Rgas   = 287.,
(PID.TID 0000.0001) >#blk_taveFreq=1.,
(PID.TID 0000.0001) > &
(PID.TID 0000.0001) >
(PID.TID 0000.0001) > &BULKF_PARM01
(PID.TID 0000.0001) > RainFile=       'ncep_precip_cs.bin',
(PID.TID 0000.0001) > SolarFile=      'ncep_downsolar_cs.bin',
(PID.TID 0000.0001) > AirTempFile=    'ncep_tair_cs.bin',
(PID.TID 0000.0001) > AirhumidityFile='ncep_qair_cs.bin',
(PID.TID 0000.0001) > LongwaveFile=   'ncep_downlw_cs.bin',
(PID.TID 0000.0001) > UWindFile=      ' ',
(PID.TID 0000.0001) > VWindFile=      ' ',
(PID.TID 0000.0001) > WspeedFile=     'ncep_windspeed_cs.bin',
(PID.TID 0000.0001) > RunoffFile=     ' ',
(PID.TID 0000.0001) > QnetFile=       ' ',
(PID.TID 0000.0001) > EmPFile=        ' ',
(PID.TID 0000.0001) > CloudFile=      ' ',
(PID.TID 0000.0001) > &
(PID.TID 0000.0001) >
(PID.TID 0000.0001) > &BULKF_PARM02
(PID.TID 0000.0001) > qnet_off=0.0,
(PID.TID 0000.0001) > empmr_off=0.0,
(PID.TID 0000.0001) > conservcycle=311040000.,
(PID.TID 0000.0001) > &
(PID.TID 0000.0001) >
(PID.TID 0000.0001) 
(PID.TID 0000.0001)  BULKF_READPARMS: read BULKF_CONST
(PID.TID 0000.0001)  BULKF_READPARMS: read BULKF_PARM01
 BlkF: rhoa     =  1.3
 BlkF: rhofw    =  1000.
 BlkF: cpair    =  1004.
 BlkF: cpwv     =  1810.
 BlkF: Lvap     =  2500000.
 BlkF: Lfresh   =  334000.
 BlkF: Tf0kel   =  273.15
 BlkF: cdrag_1  =  0.0027
 BlkF: cdrag_2  =  0.000142
 BlkF: cdrag_3  =  7.64E-05
 BlkF: stefan   =  5.67E-08
 BlkF: xkar     =  0.4
 BlkF: Rvap     =  461.
 BlkF: p0       =  1013.
 BlkF: Qcoef    =  0.00375164857
 BlkF: humid_fac=  0.606
 BlkF: saltsat  =  0.98
 BlkF: gamma_blk=  0.01
 BlkF: Lvap_ice =  2830000.
 BlkF: Rgas     =  287.
 BlkF: Sha      =  1003.4965
 BlkF: atm_emissivity  =  0.9
 BlkF: ocean_emissivity=  0.985
 BlkF: snow_emissivity =  0.98
 BlkF: ice_emissivity  =  0.98
 BlkF: blk_taveFreq=  31104000.
(PID.TID 0000.0001)  THSICE_READPARMS: opening data.ice
(PID.TID 0000.0001)  OPEN_COPY_DATA_FILE: opening file data.ice
(PID.TID 0000.0001) // =======================================================
(PID.TID 0000.0001) // Parameter file "data.ice"
(PID.TID 0000.0001) // =======================================================
(PID.TID 0000.0001) > &THSICE_CONST
(PID.TID 0000.0001) > Tf0kel  = 273.15,
(PID.TID 0000.0001) >#- for full ice-fraction :
(PID.TID 0000.0001) >#icemaskmin = 1.,
(PID.TID 0000.0001) >#himin0     = 0.01,
(PID.TID 0000.0001) >#frac_energy= 0.,
(PID.TID 0000.0001) >#hihig      =100.,
(PID.TID 0000.0001) >#- with fractional ice:
(PID.TID 0000.0001) > icemaskmin = 0.05,
(PID.TID 0000.0001) > hiMax      = 10.,
(PID.TID 0000.0001) > hsMax      = 10.,
(PID.TID 0000.0001) > iceMaskmax = 0.90,
(PID.TID 0000.0001) > &
(PID.TID 0000.0001) >
(PID.TID 0000.0001) > &THSICE_PARM01
(PID.TID 0000.0001) > StartIceModel=1,
(PID.TID 0000.0001) > stressReduction=1.,
(PID.TID 0000.0001) >#thSIce_taveFreq=2592000.,
(PID.TID 0000.0001) >#thSIce_diagFreq=2592000.,
(PID.TID 0000.0001) >#thSIce_monFreq=864000.,
(PID.TID 0000.0001) > &
(PID.TID 0000.0001) >
(PID.TID 0000.0001) 
(PID.TID 0000.0001)  THSICE_READPARMS: read THSICE_CONST
(PID.TID 0000.0001)  THSICE_READPARMS: read THSICE_PARM01
 ThSI: rhos    =  330.
 ThSI: rhoi    =  900.
 ThSI: rhosw   =  1035.
 ThSI: rhofw   =  1000.
 ThSI: rhoiw   =  135.
 ThSI: cpice   =  2106.
 ThSI: cpwater =  3994.
 ThSI: kice    =  2.03
 ThSI: ksnow   =  0.3
 ThSI: transcoef=  0.006
 ThSI: Lfresh  =  334000.
 ThSI: qsnow   =  334000.
 ThSI: albsnodry=  0.85
 ThSI: albsnowet=  0.75
 ThSI: albicemax=  0.65
 ThSI: albicemin=  0.2
 ThSI: halb    =  0.5
 ThSI: i0      =  0.3
 ThSI: ksolar  =  1.5
 ThSI: saltice =  4.
 ThSI: S_winton=  1.
 ThSI: mu_Tf   =  0.054
 ThSI: Tf0kel  =  273.15
 ThSI: Tmlt1   = -0.054
 ThSI: himin   =  0.01
 ThSI: Terrmax =  0.5
 ThSI: nitMaxTsf= 20
 ThSI: hiMax   =  10.
 ThSI: hsMax   =  10.
 ThSI: iceMaskmax=  0.9
 ThSI: iceMaskmin=  0.05
 ThSI: himin0  =  0.2
 ThSI: frac_energy  0.4
 ThSI: hihig   =  2.5
 ThSI: stressReduction =  1.
 ThSI: thSIce_deltaT  =  86400.
 ThSI: thSIce_taveFreq=  31104000.
 ThSI: thSIce_diagFreq=  31104000.
 ThSI: thSIce_monFreq =  1.
 ThSI: startIceModel = 1
(PID.TID 0000.0001) 
(PID.TID 0000.0001) // ===================================
(PID.TID 0000.0001) // GAD parameters :
(PID.TID 0000.0001) // ===================================
(PID.TID 0000.0001) tempAdvScheme =   /* Temp. advection scheme selector */
(PID.TID 0000.0001)                       2
(PID.TID 0000.0001)     ;
(PID.TID 0000.0001) tempMultiDimAdvec =   /* use Muti-Dim Advec method for Temp */
(PID.TID 0000.0001)                   F
(PID.TID 0000.0001)     ;
(PID.TID 0000.0001) tempAdamsBashforth =   /* use Adams-Bashforth time-stepping for Temp */
(PID.TID 0000.0001)                   T
(PID.TID 0000.0001)     ;
(PID.TID 0000.0001) saltAdvScheme =   /* Salt. advection scheme selector */
(PID.TID 0000.0001)                       2
(PID.TID 0000.0001)     ;
(PID.TID 0000.0001) saltMultiDimAdvec =   /* use Muti-Dim Advec method for Salt */
(PID.TID 0000.0001)                   F
(PID.TID 0000.0001)     ;
(PID.TID 0000.0001) saltAdamsBashforth =   /* use Adams-Bashforth time-stepping for Salt */
(PID.TID 0000.0001)                   T
(PID.TID 0000.0001)     ;
(PID.TID 0000.0001) // ===================================
(PID.TID 0000.0001) GMREDI_CHECK: #define GMREDI
(PID.TID 0000.0001) GM_AdvForm =  /* if FALSE => use SkewFlux Form */
(PID.TID 0000.0001)                   F
(PID.TID 0000.0001)     ;
(PID.TID 0000.0001) GM_AdvSeparate = /* Calc Bolus & Euler Adv. separately */
(PID.TID 0000.0001)                   F
(PID.TID 0000.0001)     ;
(PID.TID 0000.0001) GM_ExtraDiag =  /* Tensor Extra Diag (line 1&2) non 0 */
(PID.TID 0000.0001)                   F
(PID.TID 0000.0001)     ;
(PID.TID 0000.0001) GM_isopycK =   /* Background Isopyc. Diffusivity ( m^2/s ) */
(PID.TID 0000.0001)                 8.000000000000000E+02
(PID.TID 0000.0001)     ;
(PID.TID 0000.0001)  GM_skewflx*K =   /* Background GM_SkewFlx Diffusivity ( m^2/s ) */
(PID.TID 0000.0001)                 8.000000000000000E+02
(PID.TID 0000.0001)     ;
(PID.TID 0000.0001)  GM_advec*K =   /* Backg. GM-Advec(=Bolus) Diffusivity ( m^2/s ) */
(PID.TID 0000.0001)                 0.000000000000000E+00
(PID.TID 0000.0001)     ;
(PID.TID 0000.0001)  GM_Visbeck_alpha =   /* Visbeck alpha coeff. ( ) */
(PID.TID 0000.0001)                 0.000000000000000E+00
(PID.TID 0000.0001)     ;
(PID.TID 0000.0001)  Tapering/Cliping : gkw91
(PID.TID 0000.0001)  GM_Small_Number =  /* epsilon used in slope calc */
(PID.TID 0000.0001)                 1.000000000000000E-12
(PID.TID 0000.0001)     ;
(PID.TID 0000.0001)  GM_slopeSqCutoff =  /* Slope^2 cut-off value */
(PID.TID 0000.0001)                 1.000000000000000E+48
(PID.TID 0000.0001)     ;
(PID.TID 0000.0001) // CG2D normalisation factor =          0.1915656415494955346241757E-03
(PID.TID 0000.0001) 
 ini_cg2d: sumArea,cg2dTolerance =  3.63886737508162E+14  5.80901636017533E-07
(PID.TID 0000.0001) CONFIG_CHECK: OK
(PID.TID 0000.0001) // =======================================================
(PID.TID 0000.0001) // Model configuration
(PID.TID 0000.0001) // =======================================================
(PID.TID 0000.0001) //
(PID.TID 0000.0001) // "Physical" paramters ( PARM01 in namelist )
(PID.TID 0000.0001) //
(PID.TID 0000.0001) buoyancyRelation = OCEANIC
(PID.TID 0000.0001) tRef =   /* Reference temperature profile ( oC or oK ) */
(PID.TID 0000.0001)    15 @  2.000000000000000E+01              /* K =  1: 15 */
(PID.TID 0000.0001)     ;
(PID.TID 0000.0001) sRef =   /* Reference salinity profile ( ppt ) */
(PID.TID 0000.0001)    15 @  3.500000000000000E+01              /* K =  1: 15 */
(PID.TID 0000.0001)     ;
(PID.TID 0000.0001) viscAh =   /* Lateral eddy viscosity ( m^2/s ) */
(PID.TID 0000.0001)                 3.000000000000000E+05
(PID.TID 0000.0001)     ;
(PID.TID 0000.0001) viscAh =   /* Lateral biharmonic viscosity ( m^4/s ) */
(PID.TID 0000.0001)                 0.000000000000000E+00
(PID.TID 0000.0001)     ;
(PID.TID 0000.0001) no_slip_sides =  /* Viscous BCs: No-slip sides */
(PID.TID 0000.0001)                   T
(PID.TID 0000.0001)     ;
(PID.TID 0000.0001) viscAr =   /* Vertical eddy viscosity ( units of r^2/s ) */
(PID.TID 0000.0001)                 1.000000000000000E-03
(PID.TID 0000.0001)     ;
(PID.TID 0000.0001) diffKhT =   /* Laplacian diffusion of heat laterally ( m^2/s ) */
(PID.TID 0000.0001)                 0.000000000000000E+00
(PID.TID 0000.0001)     ;
(PID.TID 0000.0001) diffK4T =   /* Bihaarmonic diffusion of heat laterally ( m^4/s ) */
(PID.TID 0000.0001)                 0.000000000000000E+00
(PID.TID 0000.0001)     ;
(PID.TID 0000.0001) diffKrT =   /* Laplacian diffusion of heat vertically ( m^2/s ) */
(PID.TID 0000.0001)                 3.000000000000000E-05
(PID.TID 0000.0001)     ;
(PID.TID 0000.0001) diffKhS =   /* Laplacian diffusion of salt laterally ( m^2/s ) */
(PID.TID 0000.0001)                 0.000000000000000E+00
(PID.TID 0000.0001)     ;
(PID.TID 0000.0001) diffK4S =   /* Bihaarmonic diffusion of salt laterally ( m^4/s ) */
(PID.TID 0000.0001)                 0.000000000000000E+00
(PID.TID 0000.0001)     ;
(PID.TID 0000.0001) diffKrS =   /* Laplacian diffusion of salt vertically ( m^2/s ) */
(PID.TID 0000.0001)                 3.000000000000000E-05
(PID.TID 0000.0001)     ;
(PID.TID 0000.0001)  Equation of State : eosType = JMD95Z
(PID.TID 0000.0001) tAlpha =   /* Linear EOS thermal expansion coefficient ( 1/degree ) */
(PID.TID 0000.0001)                 1.234567000000000E+05
(PID.TID 0000.0001)     ;
(PID.TID 0000.0001) sBeta =   /* Linear EOS haline contraction coefficient ( 1/ppt ) */
(PID.TID 0000.0001)                 1.234567000000000E+05
(PID.TID 0000.0001)     ;
(PID.TID 0000.0001) rhonil =   /* Reference density ( kg/m^3 ) */
(PID.TID 0000.0001)                 1.035000000000000E+03
(PID.TID 0000.0001)     ;
(PID.TID 0000.0001) rhoConst =   /* Reference density ( kg/m^3 ) */
(PID.TID 0000.0001)                 1.035000000000000E+03
(PID.TID 0000.0001)     ;
(PID.TID 0000.0001) rhoConstFresh =   /* Reference density ( kg/m^3 ) */
(PID.TID 0000.0001)                 1.000000000000000E+03
(PID.TID 0000.0001)     ;
(PID.TID 0000.0001) gravity =   /* Gravitational acceleration ( m/s^2 ) */
(PID.TID 0000.0001)                 9.810000000000000E+00
(PID.TID 0000.0001)     ;
(PID.TID 0000.0001) gBaro =   /* Barotropic gravity ( m/s^2 ) */
(PID.TID 0000.0001)                 9.810000000000000E+00
(PID.TID 0000.0001)     ;
(PID.TID 0000.0001) rotationPeriod =   /* Rotation Period ( s ) */
(PID.TID 0000.0001)                 8.640000000000000E+04
(PID.TID 0000.0001)     ;
(PID.TID 0000.0001) omega =   /* Angular velocity ( rad/s ) */
(PID.TID 0000.0001)                 7.272205216643040E-05
(PID.TID 0000.0001)     ;
(PID.TID 0000.0001) f0 =   /* Reference coriolis parameter ( 1/s ) */
(PID.TID 0000.0001)                 1.000000000000000E-04
(PID.TID 0000.0001)     ;
(PID.TID 0000.0001) beta =   /* Beta ( 1/(m.s) ) */
(PID.TID 0000.0001)                 9.999999999999999E-12
(PID.TID 0000.0001)     ;
(PID.TID 0000.0001) freeSurfFac =   /* Implicit free surface factor */
(PID.TID 0000.0001)                 1.000000000000000E+00
(PID.TID 0000.0001)     ;
(PID.TID 0000.0001) implicitFreeSurface =   /* Implicit free surface on/off flag */
(PID.TID 0000.0001)                   T
(PID.TID 0000.0001)     ;
(PID.TID 0000.0001) rigidLid =   /* Rigid lid on/off flag */
(PID.TID 0000.0001)                   F
(PID.TID 0000.0001)     ;
(PID.TID 0000.0001) implicSurfPress =   /* Surface Pressure implicit factor (0-1)*/
(PID.TID 0000.0001)                 1.000000000000000E+00
(PID.TID 0000.0001)     ;
(PID.TID 0000.0001) implicDiv2Dflow =   /* Barot. Flow Div. implicit factor (0-1)*/
(PID.TID 0000.0001)                 1.000000000000000E+00
(PID.TID 0000.0001)     ;
(PID.TID 0000.0001) exactConserv =   /* Exact Volume Conservation on/off flag*/
(PID.TID 0000.0001)                   T
(PID.TID 0000.0001)     ;
(PID.TID 0000.0001) uniformLin_PhiSurf =   /* use uniform Bo_surf on/off flag*/
(PID.TID 0000.0001)                   T
(PID.TID 0000.0001)     ;
(PID.TID 0000.0001) nonlinFreeSurf =   /* Non-linear Free Surf. options (-1,0,1,2,3)*/
(PID.TID 0000.0001)                       0
(PID.TID 0000.0001)     ;
(PID.TID 0000.0001)      -1,0= Off ; 1,2,3= On, 2=+rescale gU,gV, 3=+update cg2d solv.
(PID.TID 0000.0001) hFacInf =   /* lower threshold for hFac (nonlinFreeSurf only)*/
(PID.TID 0000.0001)                 2.000000000000000E-01
(PID.TID 0000.0001)     ;
(PID.TID 0000.0001) hFacSup =   /* upper threshold for hFac (nonlinFreeSurf only)*/
(PID.TID 0000.0001)                 2.000000000000000E+00
(PID.TID 0000.0001)     ;
(PID.TID 0000.0001) select_rStar =   /* r* Coordinate options (not yet implemented)*/
(PID.TID 0000.0001)                       0
(PID.TID 0000.0001)     ;
(PID.TID 0000.0001) useRealFreshWaterFlux =   /* Real Fresh Water Flux on/off flag*/
(PID.TID 0000.0001)                   F
(PID.TID 0000.0001)     ;
(PID.TID 0000.0001) convertFW2Salt = /* convert F.W. Flux to Salt Flux (-1=use local S)(ppt)*/
(PID.TID 0000.0001)                 3.500000000000000E+01
(PID.TID 0000.0001)     ;
(PID.TID 0000.0001) multiDimAdvection =   /* enable/disable Multi-Dim Advection */
(PID.TID 0000.0001)                   T
(PID.TID 0000.0001)     ;
(PID.TID 0000.0001) staggerTimeStep =   /* Stagger time stepping on/off flag */
(PID.TID 0000.0001)                   F
(PID.TID 0000.0001)     ;
(PID.TID 0000.0001) momStepping =  /* Momentum equation on/off flag */
(PID.TID 0000.0001)                   T
(PID.TID 0000.0001)     ;
(PID.TID 0000.0001) momAdvection =  /* Momentum advection on/off flag */
(PID.TID 0000.0001)                   T
(PID.TID 0000.0001)     ;
(PID.TID 0000.0001) momViscosity =  /* Momentum viscosity on/off flag */
(PID.TID 0000.0001)                   T
(PID.TID 0000.0001)     ;
(PID.TID 0000.0001) useCoriolis =  /* Coriolis on/off flag */
(PID.TID 0000.0001)                   T
(PID.TID 0000.0001)     ;
(PID.TID 0000.0001) momForcing =  /* Momentum forcing on/off flag */
(PID.TID 0000.0001)                   T
(PID.TID 0000.0001)     ;
(PID.TID 0000.0001) momPressureForcing =  /* Momentum pressure term on/off flag */
(PID.TID 0000.0001)                   T
(PID.TID 0000.0001)     ;
(PID.TID 0000.0001) tempStepping =  /* Temperature equation on/off flag */
(PID.TID 0000.0001)                   T
(PID.TID 0000.0001)     ;
(PID.TID 0000.0001) tempAdvection=  /* Temperature advection on/off flag */
(PID.TID 0000.0001)                   T
(PID.TID 0000.0001)     ;
(PID.TID 0000.0001) tempForcing  =  /* Temperature forcing on/off flag */
(PID.TID 0000.0001)                   T
(PID.TID 0000.0001)     ;
(PID.TID 0000.0001) saltStepping =  /* Salinity equation on/off flag */
(PID.TID 0000.0001)                   T
(PID.TID 0000.0001)     ;
(PID.TID 0000.0001) saltAdvection=  /* Salinity advection on/off flag */
(PID.TID 0000.0001)                   T
(PID.TID 0000.0001)     ;
(PID.TID 0000.0001) saltForcing  =  /* Salinity forcing on/off flag */
(PID.TID 0000.0001)                   T
(PID.TID 0000.0001)     ;
(PID.TID 0000.0001) nonHydrostatic =  /* Non-Hydrostatic on/off flag */
(PID.TID 0000.0001)                   F
(PID.TID 0000.0001)     ;
(PID.TID 0000.0001) useCDscheme =  /* CD scheme on/off flag */
(PID.TID 0000.0001)                   F
(PID.TID 0000.0001)     ;
(PID.TID 0000.0001) useJamartWetPoints= /* Coriolis WetPoints method flag */
(PID.TID 0000.0001)                   F
(PID.TID 0000.0001)     ;
(PID.TID 0000.0001) //
(PID.TID 0000.0001) // Elliptic solver(s) paramters ( PARM02 in namelist )
(PID.TID 0000.0001) //
(PID.TID 0000.0001) cg2dMaxIters =   /* Upper limit on 2d con. grad iterations  */
(PID.TID 0000.0001)                     200
(PID.TID 0000.0001)     ;
(PID.TID 0000.0001) cg2dChkResFreq =   /* 2d con. grad convergence test frequency */
(PID.TID 0000.0001)                       1
(PID.TID 0000.0001)     ;
(PID.TID 0000.0001) cg2dTargetResidual =   /* 2d con. grad target residual  */
(PID.TID 0000.0001)                 1.000000000000000E-07
(PID.TID 0000.0001)     ;
(PID.TID 0000.0001) //
(PID.TID 0000.0001) // Time stepping paramters ( PARM03 in namelist )
(PID.TID 0000.0001) //
(PID.TID 0000.0001) nIter0 =   /* Base timestep number  */
(PID.TID 0000.0001)                   72000
(PID.TID 0000.0001)     ;
(PID.TID 0000.0001) nTimeSteps =   /* Number of timesteps */
(PID.TID 0000.0001)                      20
(PID.TID 0000.0001)     ;
(PID.TID 0000.0001) deltatTmom =   /* Momentum equation timestep ( s ) */
(PID.TID 0000.0001)                 1.200000000000000E+03
(PID.TID 0000.0001)     ;
(PID.TID 0000.0001) deltaTfreesurf =   /* FreeSurface equation timestep ( s ) */
(PID.TID 0000.0001)                 8.640000000000000E+04
(PID.TID 0000.0001)     ;
(PID.TID 0000.0001) deltatTtracer =   /* Tracer equation timestep ( s ) */
(PID.TID 0000.0001)                 8.640000000000000E+04
(PID.TID 0000.0001)     ;
(PID.TID 0000.0001) deltatTClock  =   /* Model clock timestep ( s ) */
(PID.TID 0000.0001)                 8.640000000000000E+04
(PID.TID 0000.0001)     ;
(PID.TID 0000.0001) cAdjFreq =   /* Convective adjustment interval ( s ) */
(PID.TID 0000.0001)                 0.000000000000000E+00
(PID.TID 0000.0001)     ;
(PID.TID 0000.0001) forcing_In_AB =   /* put T,S Forcing in Adams-Bash. stepping */
(PID.TID 0000.0001)                   F
(PID.TID 0000.0001)     ;
(PID.TID 0000.0001) abeps =   /* Adams-Bashforth stabilizing weight */
(PID.TID 0000.0001)                 1.000000000000000E-01
(PID.TID 0000.0001)     ;
(PID.TID 0000.0001) startTime =   /* Run start time ( s ). */
(PID.TID 0000.0001)                 6.220800000000000E+09
(PID.TID 0000.0001)     ;
(PID.TID 0000.0001) endTime =   /* Integration ending time ( s ). */
(PID.TID 0000.0001)                 6.222528000000000E+09
(PID.TID 0000.0001)     ;
(PID.TID 0000.0001) pChkPtFreq =   /* Permanent restart/checkpoint file interval ( s ). */
(PID.TID 0000.0001)                 3.110400000000000E+07
(PID.TID 0000.0001)     ;
(PID.TID 0000.0001) chkPtFreq =   /* Rolling restart/checkpoint file interval ( s ). */
(PID.TID 0000.0001)                 0.000000000000000E+00
(PID.TID 0000.0001)     ;
(PID.TID 0000.0001) dumpFreq =   /* Model state write out interval ( s ). */
(PID.TID 0000.0001)                 3.110400000000000E+07
(PID.TID 0000.0001)     ;
(PID.TID 0000.0001) externForcingPeriod =   /* forcing period (s) */
(PID.TID 0000.0001)                 2.592000000000000E+06
(PID.TID 0000.0001)     ;
(PID.TID 0000.0001) externForcingCycle =   /* period of the cyle (s). */
(PID.TID 0000.0001)                 3.110400000000000E+07
(PID.TID 0000.0001)     ;
(PID.TID 0000.0001) tauThetaClimRelax =   /* relaxation time scale (s) */
(PID.TID 0000.0001)                 5.184000000000000E+06
(PID.TID 0000.0001)     ;
(PID.TID 0000.0001) tauSaltClimRelax =   /* relaxation time scale (s) */
(PID.TID 0000.0001)                 1.555200000000000E+07
(PID.TID 0000.0001)     ;
(PID.TID 0000.0001) latBandClimRelax =   /* max. Lat. where relaxation */
(PID.TID 0000.0001)                 5.000000000000000E+01
(PID.TID 0000.0001)     ;
(PID.TID 0000.0001) //
(PID.TID 0000.0001) // Gridding paramters ( PARM04 in namelist )
(PID.TID 0000.0001) //
(PID.TID 0000.0001) usingCartesianGrid =   /* Cartesian coordinates flag ( True / False ) */
(PID.TID 0000.0001)                   F
(PID.TID 0000.0001)     ;
(PID.TID 0000.0001) usingSphericalPolarGrid =   /* Spherical coordinates flag ( True / False ) */
(PID.TID 0000.0001)                   F
(PID.TID 0000.0001)     ;
(PID.TID 0000.0001) groundAtK1 =   /* Lower Boundary (ground) at the surface(k=1) ( T / F ) */
(PID.TID 0000.0001)                   F
(PID.TID 0000.0001)     ;
(PID.TID 0000.0001) Ro_SeaLevel =   /* r(1) ( units of r ) */
(PID.TID 0000.0001)                 0.000000000000000E+00
(PID.TID 0000.0001)     ;
(PID.TID 0000.0001) rkFac =   /* minus Vertical index orientation  */
(PID.TID 0000.0001)                 1.000000000000000E+00
(PID.TID 0000.0001)     ;
(PID.TID 0000.0001) horiVertRatio =   /* Ratio on units : Horiz - Vertical */
(PID.TID 0000.0001)                 1.000000000000000E+00
(PID.TID 0000.0001)     ;
(PID.TID 0000.0001) drC =   /* C spacing ( units of r ) */
(PID.TID 0000.0001)                 2.500000000000000E+01,      /* K =  1 */
(PID.TID 0000.0001)                 6.000000000000000E+01,      /* K =  2 */
(PID.TID 0000.0001)                 8.500000000000000E+01,      /* K =  3 */
(PID.TID 0000.0001)                 1.200000000000000E+02,      /* K =  4 */
(PID.TID 0000.0001)                 1.650000000000000E+02,      /* K =  5 */
(PID.TID 0000.0001)                 2.150000000000000E+02,      /* K =  6 */
(PID.TID 0000.0001)                 2.650000000000000E+02,      /* K =  7 */
(PID.TID 0000.0001)                 3.150000000000000E+02,      /* K =  8 */
(PID.TID 0000.0001)                 3.650000000000000E+02,      /* K =  9 */
(PID.TID 0000.0001)                 4.150000000000000E+02,      /* K = 10 */
(PID.TID 0000.0001)                 4.650000000000000E+02,      /* K = 11 */
(PID.TID 0000.0001)                 5.150000000000000E+02,      /* K = 12 */
(PID.TID 0000.0001)                 5.650000000000000E+02,      /* K = 13 */
(PID.TID 0000.0001)                 6.150000000000000E+02,      /* K = 14 */
(PID.TID 0000.0001)                 6.650000000000000E+02       /* K = 15 */
(PID.TID 0000.0001)     ;
(PID.TID 0000.0001) drF =   /* W spacing ( units of r ) */
(PID.TID 0000.0001)                 5.000000000000000E+01,      /* K =  1 */
(PID.TID 0000.0001)                 7.000000000000000E+01,      /* K =  2 */
(PID.TID 0000.0001)                 1.000000000000000E+02,      /* K =  3 */
(PID.TID 0000.0001)                 1.400000000000000E+02,      /* K =  4 */
(PID.TID 0000.0001)                 1.900000000000000E+02,      /* K =  5 */
(PID.TID 0000.0001)                 2.400000000000000E+02,      /* K =  6 */
(PID.TID 0000.0001)                 2.900000000000000E+02,      /* K =  7 */
(PID.TID 0000.0001)                 3.400000000000000E+02,      /* K =  8 */
(PID.TID 0000.0001)                 3.900000000000000E+02,      /* K =  9 */
(PID.TID 0000.0001)                 4.400000000000000E+02,      /* K = 10 */
(PID.TID 0000.0001)                 4.900000000000000E+02,      /* K = 11 */
(PID.TID 0000.0001)                 5.400000000000000E+02,      /* K = 12 */
(PID.TID 0000.0001)                 5.900000000000000E+02,      /* K = 13 */
(PID.TID 0000.0001)                 6.400000000000000E+02,      /* K = 14 */
(PID.TID 0000.0001)                 6.900000000000000E+02       /* K = 15 */
(PID.TID 0000.0001)     ;
(PID.TID 0000.0001) delX =   /* U spacing ( m - cartesian, degrees - spherical ) */
(PID.TID 0000.0001)   192 @  1.234567000000000E+05              /* I =  1:192 */
(PID.TID 0000.0001)     ;
(PID.TID 0000.0001) delY =   /* V spacing ( m - cartesian, degrees - spherical ) */
(PID.TID 0000.0001)    32 @  1.234567000000000E+05              /* J =  1: 32 */
(PID.TID 0000.0001)     ;
(PID.TID 0000.0001) phiMin =    /* South edge (ignored - cartesian, degrees - spherical ) */
(PID.TID 0000.0001)                 0.000000000000000E+00
(PID.TID 0000.0001)     ;
(PID.TID 0000.0001) thetaMin =    /* West edge ( ignored - cartesian, degrees - spherical ) */
(PID.TID 0000.0001)                 0.000000000000000E+00
(PID.TID 0000.0001)     ;
(PID.TID 0000.0001) rSphere =    /* Radius ( ignored - cartesian, m - spherical ) */
(PID.TID 0000.0001)                 6.370000000000000E+06
(PID.TID 0000.0001)     ;
(PID.TID 0000.0001) xcoord =   /* P-point X coord ( m - cartesian, degrees - spherical ) */
(PID.TID 0000.0001)                -4.439521994760536E+01,      /* I =  1 */
(PID.TID 0000.0001)                -4.295641272275883E+01,      /* I =  2 */
(PID.TID 0000.0001)                -4.122055553388957E+01,      /* I =  3 */
(PID.TID 0000.0001)                -3.923446288487304E+01,      /* I =  4 */
(PID.TID 0000.0001)                -3.702585158682200E+01,      /* I =  5 */
(PID.TID 0000.0001)                -3.461179367094151E+01,      /* I =  6 */
(PID.TID 0000.0001)                -3.200434569041793E+01,      /* I =  7 */
(PID.TID 0000.0001)                -2.921355965632675E+01,      /* I =  8 */
(PID.TID 0000.0001)                -2.624932223028290E+01,      /* I =  9 */
(PID.TID 0000.0001)                -2.312261250426344E+01,      /* I = 10 */
(PID.TID 0000.0001)                -1.984640717127058E+01,      /* I = 11 */
(PID.TID 0000.0001)                -1.643630800555134E+01,      /* I = 12 */
(PID.TID 0000.0001)                -1.291089806302069E+01,      /* I = 13 */
(PID.TID 0000.0001)                -9.291807802719402E+00,      /* I = 14 */
(PID.TID 0000.0001)                -5.603475335822332E+00,      /* I = 15 */
(PID.TID 0000.0001)                -1.872608513033445E+00,      /* I = 16 */
(PID.TID 0000.0001)                 1.872608513033445E+00,      /* I = 17 */
(PID.TID 0000.0001)                 5.603475335822332E+00,      /* I = 18 */
(PID.TID 0000.0001)                 9.291807802719402E+00,      /* I = 19 */
(PID.TID 0000.0001)                 1.291089806302069E+01,      /* I = 20 */
(PID.TID 0000.0001)                 1.643630800555134E+01,      /* I = 21 */
(PID.TID 0000.0001)                 1.984640717127058E+01,      /* I = 22 */
(PID.TID 0000.0001)                 2.312261250426344E+01,      /* I = 23 */
(PID.TID 0000.0001)                 2.624932223028290E+01,      /* I = 24 */
(PID.TID 0000.0001)                 2.921355965632675E+01,      /* I = 25 */
(PID.TID 0000.0001)                 3.200434569041793E+01,      /* I = 26 */
(PID.TID 0000.0001)                 3.461179367094151E+01,      /* I = 27 */
(PID.TID 0000.0001)                 3.702585158682200E+01,      /* I = 28 */
(PID.TID 0000.0001)                 3.923446288487304E+01,      /* I = 29 */
(PID.TID 0000.0001)                 4.122055553388957E+01,      /* I = 30 */
(PID.TID 0000.0001)                 4.295641272275883E+01,      /* I = 31 */
(PID.TID 0000.0001)                 4.439521994760536E+01,      /* I = 32 */
(PID.TID 0000.0001)                 4.560478005239464E+01,      /* I = 33 */
(PID.TID 0000.0001)                 4.704358727724117E+01,      /* I = 34 */
(PID.TID 0000.0001)                 4.877944446611043E+01,      /* I = 35 */
(PID.TID 0000.0001)                 5.076553711512697E+01,      /* I = 36 */
(PID.TID 0000.0001)                 5.297414841317801E+01,      /* I = 37 */
(PID.TID 0000.0001)                 5.538820632905850E+01,      /* I = 38 */
(PID.TID 0000.0001)                 5.799565430958209E+01,      /* I = 39 */
(PID.TID 0000.0001)                 6.078644034367325E+01,      /* I = 40 */
(PID.TID 0000.0001)                 6.375067776971711E+01,      /* I = 41 */
(PID.TID 0000.0001)                 6.687738749573657E+01,      /* I = 42 */
(PID.TID 0000.0001)                 7.015359282872943E+01,      /* I = 43 */
(PID.TID 0000.0001)                 7.356369199444866E+01,      /* I = 44 */
(PID.TID 0000.0001)                 7.708910193697932E+01,      /* I = 45 */
(PID.TID 0000.0001)                 8.070819219728060E+01,      /* I = 46 */
(PID.TID 0000.0001)                 8.439652466417766E+01,      /* I = 47 */
(PID.TID 0000.0001)                 8.812739148696656E+01,      /* I = 48 */
(PID.TID 0000.0001)                 9.187260851303344E+01,      /* I = 49 */
(PID.TID 0000.0001)                 9.560347533582234E+01,      /* I = 50 */
(PID.TID 0000.0001)                 9.929180780271940E+01,      /* I = 51 */
(PID.TID 0000.0001)                 1.029108980630207E+02,      /* I = 52 */
(PID.TID 0000.0001)                 1.064363080055513E+02,      /* I = 53 */
(PID.TID 0000.0001)                 1.098464071712706E+02,      /* I = 54 */
(PID.TID 0000.0001)                 1.131226125042634E+02,      /* I = 55 */
(PID.TID 0000.0001)                 1.162493222302829E+02,      /* I = 56 */
(PID.TID 0000.0001)                 1.192135596563268E+02,      /* I = 57 */
(PID.TID 0000.0001)                 1.220043456904179E+02,      /* I = 58 */
(PID.TID 0000.0001)                 1.246117936709415E+02,      /* I = 59 */
(PID.TID 0000.0001)                 1.270258515868220E+02,      /* I = 60 */
(PID.TID 0000.0001)                 1.292344628848730E+02,      /* I = 61 */
(PID.TID 0000.0001)                 1.312205555338896E+02,      /* I = 62 */
(PID.TID 0000.0001)                 1.329564127227588E+02,      /* I = 63 */
(PID.TID 0000.0001)                 1.343952199476053E+02,      /* I = 64 */
(PID.TID 0000.0001)                 4.500000000000000E+01,      /* I = 65 */
(PID.TID 0000.0001)                 4.620805468796297E+01,      /* I = 66 */
(PID.TID 0000.0001)                 4.781369642513039E+01,      /* I = 67 */
(PID.TID 0000.0001)                 4.971767671143929E+01,      /* I = 68 */
(PID.TID 0000.0001)                 5.187738319787235E+01,      /* I = 69 */
(PID.TID 0000.0001)                 5.427004371478710E+01,      /* I = 70 */
(PID.TID 0000.0001)                 5.688128325334060E+01,      /* I = 71 */
(PID.TID 0000.0001)                 5.970018167786760E+01,      /* I = 72 */
(PID.TID 0000.0001)                 6.271654991792347E+01,      /* I = 73 */
(PID.TID 0000.0001)                 6.591914604853015E+01,      /* I = 74 */
(PID.TID 0000.0001)                 6.929439270484148E+01,      /* I = 75 */
(PID.TID 0000.0001)                 7.282545807616151E+01,      /* I = 76 */
(PID.TID 0000.0001)                 7.649168830618933E+01,      /* I = 77 */
(PID.TID 0000.0001)                 8.026842803787176E+01,      /* I = 78 */
(PID.TID 0000.0001)                 8.412726743124185E+01,      /* I = 79 */
(PID.TID 0000.0001)                 8.803672008547504E+01,      /* I = 80 */
(PID.TID 0000.0001)                 9.196327991452496E+01,      /* I = 81 */
(PID.TID 0000.0001)                 9.587273256875815E+01,      /* I = 82 */
(PID.TID 0000.0001)                 9.973157196212824E+01,      /* I = 83 */
(PID.TID 0000.0001)                 1.035083116938107E+02,      /* I = 84 */
(PID.TID 0000.0001)                 1.071745419238385E+02,      /* I = 85 */
(PID.TID 0000.0001)                 1.107056072951585E+02,      /* I = 86 */
(PID.TID 0000.0001)                 1.140808539514698E+02,      /* I = 87 */
(PID.TID 0000.0001)                 1.172834500820765E+02,      /* I = 88 */
(PID.TID 0000.0001)                 1.202998183221324E+02,      /* I = 89 */
(PID.TID 0000.0001)                 1.231187167466594E+02,      /* I = 90 */
(PID.TID 0000.0001)                 1.257299562852129E+02,      /* I = 91 */
(PID.TID 0000.0001)                 1.281226168021277E+02,      /* I = 92 */
(PID.TID 0000.0001)                 1.302823232885607E+02,      /* I = 93 */
(PID.TID 0000.0001)                 1.321863035748696E+02,      /* I = 94 */
(PID.TID 0000.0001)                 1.337919453120370E+02,      /* I = 95 */
(PID.TID 0000.0001)                 1.350000000000000E+02,      /* I = 96 */
(PID.TID 0000.0001)                 1.356047800523947E+02,      /* I = 97 */
(PID.TID 0000.0001)                 1.358367907661329E+02,      /* I = 98 */
(PID.TID 0000.0001)                 1.359720382181193E+02,      /* I = 99 */
(PID.TID 0000.0001)                 1.360654656901789E+02,      /* I =100 */
(PID.TID 0000.0001)                 1.361344533147042E+02,      /* I =101 */
(PID.TID 0000.0001)                 1.361871219420981E+02,      /* I =102 */
(PID.TID 0000.0001)                 1.362280794509603E+02,      /* I =103 */
(PID.TID 0000.0001)                 1.362602511071934E+02,      /* I =104 */
(PID.TID 0000.0001)                 1.362856280326734E+02,      /* I =105 */
(PID.TID 0000.0001)                 1.363056266270901E+02,      /* I =106 */
(PID.TID 0000.0001)                 1.363212817739446E+02,      /* I =107 */
(PID.TID 0000.0001)                 1.363333595910255E+02,      /* I =108 */
(PID.TID 0000.0001)                 1.363424272425760E+02,      /* I =109 */
(PID.TID 0000.0001)                 1.363488978790713E+02,      /* I =110 */
(PID.TID 0000.0001)                 1.363530600590580E+02,      /* I =111 */
(PID.TID 0000.0001)     2 @  1.363550967500717E+02,             /* I =112:113 */
(PID.TID 0000.0001)                 1.363530600590580E+02,      /* I =114 */
(PID.TID 0000.0001)                 1.363488978790713E+02,      /* I =115 */
(PID.TID 0000.0001)                 1.363424272425760E+02,      /* I =116 */
(PID.TID 0000.0001)                 1.363333595910255E+02,      /* I =117 */
(PID.TID 0000.0001)                 1.363212817739446E+02,      /* I =118 */
(PID.TID 0000.0001)                 1.363056266270901E+02,      /* I =119 */
(PID.TID 0000.0001)                 1.362856280326734E+02,      /* I =120 */
(PID.TID 0000.0001)                 1.362602511071934E+02,      /* I =121 */
(PID.TID 0000.0001)                 1.362280794509603E+02,      /* I =122 */
(PID.TID 0000.0001)                 1.361871219420981E+02,      /* I =123 */
(PID.TID 0000.0001)                 1.361344533147042E+02,      /* I =124 */
(PID.TID 0000.0001)                 1.360654656901789E+02,      /* I =125 */
(PID.TID 0000.0001)                 1.359720382181193E+02,      /* I =126 */
(PID.TID 0000.0001)                 1.358367907661329E+02,      /* I =127 */
(PID.TID 0000.0001)                 1.356047800523947E+02,      /* I =128 */
(PID.TID 0000.0001)                -1.343952199476053E+02,      /* I =129 */
(PID.TID 0000.0001)                -1.341632092338671E+02,      /* I =130 */
(PID.TID 0000.0001)                -1.340279617818807E+02,      /* I =131 */
(PID.TID 0000.0001)                -1.339345343098211E+02,      /* I =132 */
(PID.TID 0000.0001)                -1.338655466852958E+02,      /* I =133 */
(PID.TID 0000.0001)                -1.338128780579019E+02,      /* I =134 */
(PID.TID 0000.0001)                -1.337719205490397E+02,      /* I =135 */
(PID.TID 0000.0001)                -1.337397488928066E+02,      /* I =136 */
(PID.TID 0000.0001)                -1.337143719673266E+02,      /* I =137 */
(PID.TID 0000.0001)                -1.336943733729099E+02,      /* I =138 */
(PID.TID 0000.0001)                -1.336787182260554E+02,      /* I =139 */
(PID.TID 0000.0001)                -1.336666404089745E+02,      /* I =140 */
(PID.TID 0000.0001)                -1.336575727574240E+02,      /* I =141 */
(PID.TID 0000.0001)                -1.336511021209287E+02,      /* I =142 */
(PID.TID 0000.0001)                -1.336469399409420E+02,      /* I =143 */
(PID.TID 0000.0001)     2 @ -1.336449032499283E+02,             /* I =144:145 */
(PID.TID 0000.0001)                -1.336469399409420E+02,      /* I =146 */
(PID.TID 0000.0001)                -1.336511021209287E+02,      /* I =147 */
(PID.TID 0000.0001)                -1.336575727574240E+02,      /* I =148 */
(PID.TID 0000.0001)                -1.336666404089745E+02,      /* I =149 */
(PID.TID 0000.0001)                -1.336787182260554E+02,      /* I =150 */
(PID.TID 0000.0001)                -1.336943733729099E+02,      /* I =151 */
(PID.TID 0000.0001)                -1.337143719673266E+02,      /* I =152 */
(PID.TID 0000.0001)                -1.337397488928066E+02,      /* I =153 */
(PID.TID 0000.0001)                -1.337719205490397E+02,      /* I =154 */
(PID.TID 0000.0001)                -1.338128780579019E+02,      /* I =155 */
(PID.TID 0000.0001)                -1.338655466852958E+02,      /* I =156 */
(PID.TID 0000.0001)                -1.339345343098211E+02,      /* I =157 */
(PID.TID 0000.0001)                -1.340279617818807E+02,      /* I =158 */
(PID.TID 0000.0001)                -1.341632092338671E+02,      /* I =159 */
(PID.TID 0000.0001)                -1.343952199476053E+02,      /* I =160 */
(PID.TID 0000.0001)                -1.350000000000000E+02,      /* I =161 */
(PID.TID 0000.0001)                -1.362080546879630E+02,      /* I =162 */
(PID.TID 0000.0001)                -1.378136964251304E+02,      /* I =163 */
(PID.TID 0000.0001)                -1.397176767114393E+02,      /* I =164 */
(PID.TID 0000.0001)                -1.418773831978723E+02,      /* I =165 */
(PID.TID 0000.0001)                -1.442700437147871E+02,      /* I =166 */
(PID.TID 0000.0001)                -1.468812832533406E+02,      /* I =167 */
(PID.TID 0000.0001)                -1.497001816778676E+02,      /* I =168 */
(PID.TID 0000.0001)                -1.527165499179235E+02,      /* I =169 */
(PID.TID 0000.0001)                -1.559191460485302E+02,      /* I =170 */
(PID.TID 0000.0001)                -1.592943927048415E+02,      /* I =171 */
(PID.TID 0000.0001)                -1.628254580761615E+02,      /* I =172 */
(PID.TID 0000.0001)                -1.664916883061893E+02,      /* I =173 */
(PID.TID 0000.0001)                -1.702684280378718E+02,      /* I =174 */
(PID.TID 0000.0001)                -1.741272674312418E+02,      /* I =175 */
(PID.TID 0000.0001)                -1.780367200854751E+02,      /* I =176 */
(PID.TID 0000.0001)                 1.780367200854751E+02,      /* I =177 */
(PID.TID 0000.0001)                 1.741272674312418E+02,      /* I =178 */
(PID.TID 0000.0001)                 1.702684280378718E+02,      /* I =179 */
(PID.TID 0000.0001)                 1.664916883061893E+02,      /* I =180 */
(PID.TID 0000.0001)                 1.628254580761615E+02,      /* I =181 */
(PID.TID 0000.0001)                 1.592943927048415E+02,      /* I =182 */
(PID.TID 0000.0001)                 1.559191460485302E+02,      /* I =183 */
(PID.TID 0000.0001)                 1.527165499179235E+02,      /* I =184 */
(PID.TID 0000.0001)                 1.497001816778676E+02,      /* I =185 */
(PID.TID 0000.0001)                 1.468812832533406E+02,      /* I =186 */
(PID.TID 0000.0001)                 1.442700437147871E+02,      /* I =187 */
(PID.TID 0000.0001)                 1.418773831978723E+02,      /* I =188 */
(PID.TID 0000.0001)                 1.397176767114393E+02,      /* I =189 */
(PID.TID 0000.0001)                 1.378136964251304E+02,      /* I =190 */
(PID.TID 0000.0001)                 1.362080546879630E+02,      /* I =191 */
(PID.TID 0000.0001)                 1.350000000000000E+02       /* I =192 */
(PID.TID 0000.0001)     ;
(PID.TID 0000.0001) ycoord =   /* P-point Y coord ( m - cartesian, degrees - spherical ) */
(PID.TID 0000.0001)                -3.497677942598243E+01,      /* J =  1 */
(PID.TID 0000.0001)                -3.374005967394886E+01,      /* J =  2 */
(PID.TID 0000.0001)                -3.220655175667454E+01,      /* J =  3 */
(PID.TID 0000.0001)                -3.045756348838641E+01,      /* J =  4 */
(PID.TID 0000.0001)                -2.853728129852918E+01,      /* J =  5 */
(PID.TID 0000.0001)                -2.647426640173173E+01,      /* J =  6 */
(PID.TID 0000.0001)                -2.428936657094636E+01,      /* J =  7 */
(PID.TID 0000.0001)                -2.199915808312262E+01,      /* J =  8 */
(PID.TID 0000.0001)                -1.961768597440146E+01,      /* J =  9 */
(PID.TID 0000.0001)                -1.715743888281371E+01,      /* J = 10 */
(PID.TID 0000.0001)                -1.462993396899330E+01,      /* J = 11 */
(PID.TID 0000.0001)                -1.204608340464756E+01,      /* J = 12 */
(PID.TID 0000.0001)                -9.416429130284818E+00,      /* J = 13 */
(PID.TID 0000.0001)                -6.751293662992216E+00,      /* J = 14 */
(PID.TID 0000.0001)                -4.060875511835959E+00,      /* J = 15 */
(PID.TID 0000.0001)                -1.355307764409121E+00,      /* J = 16 */
(PID.TID 0000.0001)                 1.355307764409121E+00,      /* J = 17 */
(PID.TID 0000.0001)                 4.060875511835959E+00,      /* J = 18 */
(PID.TID 0000.0001)                 6.751293662992216E+00,      /* J = 19 */
(PID.TID 0000.0001)                 9.416429130284818E+00,      /* J = 20 */
(PID.TID 0000.0001)                 1.204608340464756E+01,      /* J = 21 */
(PID.TID 0000.0001)                 1.462993396899330E+01,      /* J = 22 */
(PID.TID 0000.0001)                 1.715743888281371E+01,      /* J = 23 */
(PID.TID 0000.0001)                 1.961768597440146E+01,      /* J = 24 */
(PID.TID 0000.0001)                 2.199915808312262E+01,      /* J = 25 */
(PID.TID 0000.0001)                 2.428936657094636E+01,      /* J = 26 */
(PID.TID 0000.0001)                 2.647426640173173E+01,      /* J = 27 */
(PID.TID 0000.0001)                 2.853728129852918E+01,      /* J = 28 */
(PID.TID 0000.0001)                 3.045756348838641E+01,      /* J = 29 */
(PID.TID 0000.0001)                 3.220655175667454E+01,      /* J = 30 */
(PID.TID 0000.0001)                 3.374005967394886E+01,      /* J = 31 */
(PID.TID 0000.0001)                 3.497677942598243E+01       /* J = 32 */
(PID.TID 0000.0001)     ;
(PID.TID 0000.0001) rcoord =   /* P-point R coordinate (  units of r ) */
(PID.TID 0000.0001)                -2.500000000000000E+01,      /* K =  1 */
(PID.TID 0000.0001)                -8.500000000000000E+01,      /* K =  2 */
(PID.TID 0000.0001)                -1.700000000000000E+02,      /* K =  3 */
(PID.TID 0000.0001)                -2.900000000000000E+02,      /* K =  4 */
(PID.TID 0000.0001)                -4.550000000000000E+02,      /* K =  5 */
(PID.TID 0000.0001)                -6.700000000000000E+02,      /* K =  6 */
(PID.TID 0000.0001)                -9.350000000000000E+02,      /* K =  7 */
(PID.TID 0000.0001)                -1.250000000000000E+03,      /* K =  8 */
(PID.TID 0000.0001)                -1.615000000000000E+03,      /* K =  9 */
(PID.TID 0000.0001)                -2.030000000000000E+03,      /* K = 10 */
(PID.TID 0000.0001)                -2.495000000000000E+03,      /* K = 11 */
(PID.TID 0000.0001)                -3.010000000000000E+03,      /* K = 12 */
(PID.TID 0000.0001)                -3.575000000000000E+03,      /* K = 13 */
(PID.TID 0000.0001)                -4.190000000000000E+03,      /* K = 14 */
(PID.TID 0000.0001)                -4.855000000000000E+03       /* K = 15 */
(PID.TID 0000.0001)     ;
(PID.TID 0000.0001) rF =   /* W-Interf. R coordinate (  units of r ) */
(PID.TID 0000.0001)                 0.000000000000000E+00,      /* K =  1 */
(PID.TID 0000.0001)                -5.000000000000000E+01,      /* K =  2 */
(PID.TID 0000.0001)                -1.200000000000000E+02,      /* K =  3 */
(PID.TID 0000.0001)                -2.200000000000000E+02,      /* K =  4 */
(PID.TID 0000.0001)                -3.600000000000000E+02,      /* K =  5 */
(PID.TID 0000.0001)                -5.500000000000000E+02,      /* K =  6 */
(PID.TID 0000.0001)                -7.900000000000000E+02,      /* K =  7 */
(PID.TID 0000.0001)                -1.080000000000000E+03,      /* K =  8 */
(PID.TID 0000.0001)                -1.420000000000000E+03,      /* K =  9 */
(PID.TID 0000.0001)                -1.810000000000000E+03,      /* K = 10 */
(PID.TID 0000.0001)                -2.250000000000000E+03,      /* K = 11 */
(PID.TID 0000.0001)                -2.740000000000000E+03,      /* K = 12 */
(PID.TID 0000.0001)                -3.280000000000000E+03,      /* K = 13 */
(PID.TID 0000.0001)                -3.870000000000000E+03,      /* K = 14 */
(PID.TID 0000.0001)                -4.510000000000000E+03,      /* K = 15 */
(PID.TID 0000.0001)                -5.200000000000000E+03       /* K = 16 */
(PID.TID 0000.0001)     ;
(PID.TID 0000.0001) dxF =  /* dxF(:,1,:,1) ( m - cartesian, degrees - spherical ) */
(PID.TID 0000.0001)                 1.202082051331828E+05,      /* I =  1 */
(PID.TID 0000.0001)                 1.563594089971120E+05,      /* I =  2 */
(PID.TID 0000.0001)                 1.835530058121492E+05,      /* I =  3 */
(PID.TID 0000.0001)                 2.045883481718707E+05,      /* I =  4 */
(PID.TID 0000.0001)                 2.218350349844185E+05,      /* I =  5 */
(PID.TID 0000.0001)                 2.364352994647058E+05,      /* I =  6 */
(PID.TID 0000.0001)                 2.490022710862746E+05,      /* I =  7 */
(PID.TID 0000.0001)                 2.598919724358304E+05,      /* I =  8 */
(PID.TID 0000.0001)                 2.693210245495156E+05,      /* I =  9 */
(PID.TID 0000.0001)                 2.774243179696503E+05,      /* I = 10 */
(PID.TID 0000.0001)                 2.842862532064524E+05,      /* I = 11 */
(PID.TID 0000.0001)                 2.899590699694043E+05,      /* I = 12 */
(PID.TID 0000.0001)                 2.944742915095688E+05,      /* I = 13 */
(PID.TID 0000.0001)                 2.978501920522794E+05,      /* I = 14 */
(PID.TID 0000.0001)                 3.000967749619962E+05,      /* I = 15 */
(PID.TID 0000.0001)     2 @  3.012190981969055E+05,             /* I = 16: 17 */
(PID.TID 0000.0001)                 3.000967749619962E+05,      /* I = 18 */
(PID.TID 0000.0001)                 2.978501920522794E+05,      /* I = 19 */
(PID.TID 0000.0001)                 2.944742915095688E+05,      /* I = 20 */
(PID.TID 0000.0001)                 2.899590699694043E+05,      /* I = 21 */
(PID.TID 0000.0001)                 2.842862532064524E+05,      /* I = 22 */
(PID.TID 0000.0001)                 2.774243179696503E+05,      /* I = 23 */
(PID.TID 0000.0001)                 2.693210245495156E+05,      /* I = 24 */
(PID.TID 0000.0001)                 2.598919724358304E+05,      /* I = 25 */
(PID.TID 0000.0001)                 2.490022710862746E+05,      /* I = 26 */
(PID.TID 0000.0001)                 2.364352994647058E+05,      /* I = 27 */
(PID.TID 0000.0001)                 2.218350349844185E+05,      /* I = 28 */
(PID.TID 0000.0001)                 2.045883481718707E+05,      /* I = 29 */
(PID.TID 0000.0001)                 1.835530058121492E+05,      /* I = 30 */
(PID.TID 0000.0001)                 1.563594089971120E+05,      /* I = 31 */
(PID.TID 0000.0001)     2 @  1.202082051331828E+05,             /* I = 32: 33 */
(PID.TID 0000.0001)                 1.563594089971120E+05,      /* I = 34 */
(PID.TID 0000.0001)                 1.835530058121492E+05,      /* I = 35 */
(PID.TID 0000.0001)                 2.045883481718707E+05,      /* I = 36 */
(PID.TID 0000.0001)                 2.218350349844185E+05,      /* I = 37 */
(PID.TID 0000.0001)                 2.364352994647058E+05,      /* I = 38 */
(PID.TID 0000.0001)                 2.490022710862746E+05,      /* I = 39 */
(PID.TID 0000.0001)                 2.598919724358304E+05,      /* I = 40 */
(PID.TID 0000.0001)                 2.693210245495156E+05,      /* I = 41 */
(PID.TID 0000.0001)                 2.774243179696503E+05,      /* I = 42 */
(PID.TID 0000.0001)                 2.842862532064524E+05,      /* I = 43 */
(PID.TID 0000.0001)                 2.899590699694043E+05,      /* I = 44 */
(PID.TID 0000.0001)                 2.944742915095688E+05,      /* I = 45 */
(PID.TID 0000.0001)                 2.978501920522794E+05,      /* I = 46 */
(PID.TID 0000.0001)                 3.000967749619962E+05,      /* I = 47 */
(PID.TID 0000.0001)     2 @  3.012190981969055E+05,             /* I = 48: 49 */
(PID.TID 0000.0001)                 3.000967749619962E+05,      /* I = 50 */
(PID.TID 0000.0001)                 2.978501920522794E+05,      /* I = 51 */
(PID.TID 0000.0001)                 2.944742915095688E+05,      /* I = 52 */
(PID.TID 0000.0001)                 2.899590699694043E+05,      /* I = 53 */
(PID.TID 0000.0001)                 2.842862532064524E+05,      /* I = 54 */
(PID.TID 0000.0001)                 2.774243179696503E+05,      /* I = 55 */
(PID.TID 0000.0001)                 2.693210245495156E+05,      /* I = 56 */
(PID.TID 0000.0001)                 2.598919724358304E+05,      /* I = 57 */
(PID.TID 0000.0001)                 2.490022710862746E+05,      /* I = 58 */
(PID.TID 0000.0001)                 2.364352994647058E+05,      /* I = 59 */
(PID.TID 0000.0001)                 2.218350349844185E+05,      /* I = 60 */
(PID.TID 0000.0001)                 2.045883481718707E+05,      /* I = 61 */
(PID.TID 0000.0001)                 1.835530058121492E+05,      /* I = 62 */
(PID.TID 0000.0001)                 1.563594089971120E+05,      /* I = 63 */
(PID.TID 0000.0001)     2 @  1.202082051331828E+05,             /* I = 64: 65 */
(PID.TID 0000.0001)                 1.563594089971120E+05,      /* I = 66 */
(PID.TID 0000.0001)                 1.835530058121492E+05,      /* I = 67 */
(PID.TID 0000.0001)                 2.045883481718707E+05,      /* I = 68 */
(PID.TID 0000.0001)                 2.218350349844185E+05,      /* I = 69 */
(PID.TID 0000.0001)                 2.364352994647058E+05,      /* I = 70 */
(PID.TID 0000.0001)                 2.490022710862746E+05,      /* I = 71 */
(PID.TID 0000.0001)                 2.598919724358304E+05,      /* I = 72 */
(PID.TID 0000.0001)                 2.693210245495156E+05,      /* I = 73 */
(PID.TID 0000.0001)                 2.774243179696503E+05,      /* I = 74 */
(PID.TID 0000.0001)                 2.842862532064524E+05,      /* I = 75 */
(PID.TID 0000.0001)                 2.899590699694043E+05,      /* I = 76 */
(PID.TID 0000.0001)                 2.944742915095688E+05,      /* I = 77 */
(PID.TID 0000.0001)                 2.978501920522794E+05,      /* I = 78 */
(PID.TID 0000.0001)                 3.000967749619962E+05,      /* I = 79 */
(PID.TID 0000.0001)     2 @  3.012190981969055E+05,             /* I = 80: 81 */
(PID.TID 0000.0001)                 3.000967749619962E+05,      /* I = 82 */
(PID.TID 0000.0001)                 2.978501920522794E+05,      /* I = 83 */
(PID.TID 0000.0001)                 2.944742915095688E+05,      /* I = 84 */
(PID.TID 0000.0001)                 2.899590699694043E+05,      /* I = 85 */
(PID.TID 0000.0001)                 2.842862532064524E+05,      /* I = 86 */
(PID.TID 0000.0001)                 2.774243179696503E+05,      /* I = 87 */
(PID.TID 0000.0001)                 2.693210245495156E+05,      /* I = 88 */
(PID.TID 0000.0001)                 2.598919724358304E+05,      /* I = 89 */
(PID.TID 0000.0001)                 2.490022710862746E+05,      /* I = 90 */
(PID.TID 0000.0001)                 2.364352994647058E+05,      /* I = 91 */
(PID.TID 0000.0001)                 2.218350349844185E+05,      /* I = 92 */
(PID.TID 0000.0001)                 2.045883481718707E+05,      /* I = 93 */
(PID.TID 0000.0001)                 1.835530058121492E+05,      /* I = 94 */
(PID.TID 0000.0001)                 1.563594089971120E+05,      /* I = 95 */
(PID.TID 0000.0001)     2 @  1.202082051331828E+05,             /* I = 96: 97 */
(PID.TID 0000.0001)                 1.563594089971120E+05,      /* I = 98 */
(PID.TID 0000.0001)                 1.835530058121492E+05,      /* I = 99 */
(PID.TID 0000.0001)                 2.045883481718707E+05,      /* I =100 */
(PID.TID 0000.0001)                 2.218350349844185E+05,      /* I =101 */
(PID.TID 0000.0001)                 2.364352994647058E+05,      /* I =102 */
(PID.TID 0000.0001)                 2.490022710862746E+05,      /* I =103 */
(PID.TID 0000.0001)                 2.598919724358304E+05,      /* I =104 */
(PID.TID 0000.0001)                 2.693210245495156E+05,      /* I =105 */
(PID.TID 0000.0001)                 2.774243179696503E+05,      /* I =106 */
(PID.TID 0000.0001)                 2.842862532064524E+05,      /* I =107 */
(PID.TID 0000.0001)                 2.899590699694043E+05,      /* I =108 */
(PID.TID 0000.0001)                 2.944742915095688E+05,      /* I =109 */
(PID.TID 0000.0001)                 2.978501920522794E+05,      /* I =110 */
(PID.TID 0000.0001)                 3.000967749619962E+05,      /* I =111 */
(PID.TID 0000.0001)     2 @  3.012190981969055E+05,             /* I =112:113 */
(PID.TID 0000.0001)                 3.000967749619962E+05,      /* I =114 */
(PID.TID 0000.0001)                 2.978501920522794E+05,      /* I =115 */
(PID.TID 0000.0001)                 2.944742915095688E+05,      /* I =116 */
(PID.TID 0000.0001)                 2.899590699694043E+05,      /* I =117 */
(PID.TID 0000.0001)                 2.842862532064524E+05,      /* I =118 */
(PID.TID 0000.0001)                 2.774243179696503E+05,      /* I =119 */
(PID.TID 0000.0001)                 2.693210245495156E+05,      /* I =120 */
(PID.TID 0000.0001)                 2.598919724358304E+05,      /* I =121 */
(PID.TID 0000.0001)                 2.490022710862746E+05,      /* I =122 */
(PID.TID 0000.0001)                 2.364352994647058E+05,      /* I =123 */
(PID.TID 0000.0001)                 2.218350349844185E+05,      /* I =124 */
(PID.TID 0000.0001)                 2.045883481718707E+05,      /* I =125 */
(PID.TID 0000.0001)                 1.835530058121492E+05,      /* I =126 */
(PID.TID 0000.0001)                 1.563594089971120E+05,      /* I =127 */
(PID.TID 0000.0001)     2 @  1.202082051331828E+05,             /* I =128:129 */
(PID.TID 0000.0001)                 1.563594089971120E+05,      /* I =130 */
(PID.TID 0000.0001)                 1.835530058121492E+05,      /* I =131 */
(PID.TID 0000.0001)                 2.045883481718707E+05,      /* I =132 */
(PID.TID 0000.0001)                 2.218350349844185E+05,      /* I =133 */
(PID.TID 0000.0001)                 2.364352994647058E+05,      /* I =134 */
(PID.TID 0000.0001)                 2.490022710862746E+05,      /* I =135 */
(PID.TID 0000.0001)                 2.598919724358304E+05,      /* I =136 */
(PID.TID 0000.0001)                 2.693210245495156E+05,      /* I =137 */
(PID.TID 0000.0001)                 2.774243179696503E+05,      /* I =138 */
(PID.TID 0000.0001)                 2.842862532064524E+05,      /* I =139 */
(PID.TID 0000.0001)                 2.899590699694043E+05,      /* I =140 */
(PID.TID 0000.0001)                 2.944742915095688E+05,      /* I =141 */
(PID.TID 0000.0001)                 2.978501920522794E+05,      /* I =142 */
(PID.TID 0000.0001)                 3.000967749619962E+05,      /* I =143 */
(PID.TID 0000.0001)     2 @  3.012190981969055E+05,             /* I =144:145 */
(PID.TID 0000.0001)                 3.000967749619962E+05,      /* I =146 */
(PID.TID 0000.0001)                 2.978501920522794E+05,      /* I =147 */
(PID.TID 0000.0001)                 2.944742915095688E+05,      /* I =148 */
(PID.TID 0000.0001)                 2.899590699694043E+05,      /* I =149 */
(PID.TID 0000.0001)                 2.842862532064524E+05,      /* I =150 */
(PID.TID 0000.0001)                 2.774243179696503E+05,      /* I =151 */
(PID.TID 0000.0001)                 2.693210245495156E+05,      /* I =152 */
(PID.TID 0000.0001)                 2.598919724358304E+05,      /* I =153 */
(PID.TID 0000.0001)                 2.490022710862746E+05,      /* I =154 */
(PID.TID 0000.0001)                 2.364352994647058E+05,      /* I =155 */
(PID.TID 0000.0001)                 2.218350349844185E+05,      /* I =156 */
(PID.TID 0000.0001)                 2.045883481718707E+05,      /* I =157 */
(PID.TID 0000.0001)                 1.835530058121492E+05,      /* I =158 */
(PID.TID 0000.0001)                 1.563594089971120E+05,      /* I =159 */
(PID.TID 0000.0001)     2 @  1.202082051331828E+05,             /* I =160:161 */
(PID.TID 0000.0001)                 1.563594089971120E+05,      /* I =162 */
(PID.TID 0000.0001)                 1.835530058121492E+05,      /* I =163 */
(PID.TID 0000.0001)                 2.045883481718707E+05,      /* I =164 */
(PID.TID 0000.0001)                 2.218350349844185E+05,      /* I =165 */
(PID.TID 0000.0001)                 2.364352994647058E+05,      /* I =166 */
(PID.TID 0000.0001)                 2.490022710862746E+05,      /* I =167 */
(PID.TID 0000.0001)                 2.598919724358304E+05,      /* I =168 */
(PID.TID 0000.0001)                 2.693210245495156E+05,      /* I =169 */
(PID.TID 0000.0001)                 2.774243179696503E+05,      /* I =170 */
(PID.TID 0000.0001)                 2.842862532064524E+05,      /* I =171 */
(PID.TID 0000.0001)                 2.899590699694043E+05,      /* I =172 */
(PID.TID 0000.0001)                 2.944742915095688E+05,      /* I =173 */
(PID.TID 0000.0001)                 2.978501920522794E+05,      /* I =174 */
(PID.TID 0000.0001)                 3.000967749619962E+05,      /* I =175 */
(PID.TID 0000.0001)     2 @  3.012190981969055E+05,             /* I =176:177 */
(PID.TID 0000.0001)                 3.000967749619962E+05,      /* I =178 */
(PID.TID 0000.0001)                 2.978501920522794E+05,      /* I =179 */
(PID.TID 0000.0001)                 2.944742915095688E+05,      /* I =180 */
(PID.TID 0000.0001)                 2.899590699694043E+05,      /* I =181 */
(PID.TID 0000.0001)                 2.842862532064524E+05,      /* I =182 */
(PID.TID 0000.0001)                 2.774243179696503E+05,      /* I =183 */
(PID.TID 0000.0001)                 2.693210245495156E+05,      /* I =184 */
(PID.TID 0000.0001)                 2.598919724358304E+05,      /* I =185 */
(PID.TID 0000.0001)                 2.490022710862746E+05,      /* I =186 */
(PID.TID 0000.0001)                 2.364352994647058E+05,      /* I =187 */
(PID.TID 0000.0001)                 2.218350349844185E+05,      /* I =188 */
(PID.TID 0000.0001)                 2.045883481718707E+05,      /* I =189 */
(PID.TID 0000.0001)                 1.835530058121492E+05,      /* I =190 */
(PID.TID 0000.0001)                 1.563594089971120E+05,      /* I =191 */
(PID.TID 0000.0001)                 1.202082051331828E+05       /* I =192 */
(PID.TID 0000.0001)     ;
(PID.TID 0000.0001) dxF =  /* dxF(1,:,1,:) ( m - cartesian, degrees - spherical ) */
(PID.TID 0000.0001)                 1.202082051331828E+05,      /* J =  1 */
(PID.TID 0000.0001)                 1.572908084538706E+05,      /* J =  2 */
(PID.TID 0000.0001)                 1.840412227747703E+05,      /* J =  3 */
(PID.TID 0000.0001)                 2.048868197919576E+05,      /* J =  4 */
(PID.TID 0000.0001)                 2.220405216043041E+05,      /* J =  5 */
(PID.TID 0000.0001)                 2.365892017348392E+05,      /* J =  6 */
(PID.TID 0000.0001)                 2.491250781852558E+05,      /* J =  7 */
(PID.TID 0000.0001)                 2.599949918261881E+05,      /* J =  8 */
(PID.TID 0000.0001)                 2.694110134598581E+05,      /* J =  9 */
(PID.TID 0000.0001)                 2.775055554645015E+05,      /* J = 10 */
(PID.TID 0000.0001)                 2.843615645344775E+05,      /* J = 11 */
(PID.TID 0000.0001)                 2.900303768613599E+05,      /* J = 12 */
(PID.TID 0000.0001)                 2.945429307892709E+05,      /* J = 13 */
(PID.TID 0000.0001)                 2.979171143158405E+05,      /* J = 14 */
(PID.TID 0000.0001)                 3.001626787528886E+05,      /* J = 15 */
(PID.TID 0000.0001)     2 @  3.012844832048790E+05,             /* J = 16: 17 */
(PID.TID 0000.0001)                 3.001626787528886E+05,      /* J = 18 */
(PID.TID 0000.0001)                 2.979171143158405E+05,      /* J = 19 */
(PID.TID 0000.0001)                 2.945429307892709E+05,      /* J = 20 */
(PID.TID 0000.0001)                 2.900303768613599E+05,      /* J = 21 */
(PID.TID 0000.0001)                 2.843615645344775E+05,      /* J = 22 */
(PID.TID 0000.0001)                 2.775055554645015E+05,      /* J = 23 */
(PID.TID 0000.0001)                 2.694110134598581E+05,      /* J = 24 */
(PID.TID 0000.0001)                 2.599949918261881E+05,      /* J = 25 */
(PID.TID 0000.0001)                 2.491250781852558E+05,      /* J = 26 */
(PID.TID 0000.0001)                 2.365892017348392E+05,      /* J = 27 */
(PID.TID 0000.0001)                 2.220405216043041E+05,      /* J = 28 */
(PID.TID 0000.0001)                 2.048868197919576E+05,      /* J = 29 */
(PID.TID 0000.0001)                 1.840412227747703E+05,      /* J = 30 */
(PID.TID 0000.0001)                 1.572908084538706E+05,      /* J = 31 */
(PID.TID 0000.0001)                 1.202082051331828E+05       /* J = 32 */
(PID.TID 0000.0001)     ;
(PID.TID 0000.0001) dyF =  /* dyF(:,1,:,1) ( m - cartesian, degrees - spherical ) */
(PID.TID 0000.0001)                 1.202082051331828E+05,      /* I =  1 */
(PID.TID 0000.0001)                 1.572908084538706E+05,      /* I =  2 */
(PID.TID 0000.0001)                 1.840412227747703E+05,      /* I =  3 */
(PID.TID 0000.0001)                 2.048868197919576E+05,      /* I =  4 */
(PID.TID 0000.0001)                 2.220405216043041E+05,      /* I =  5 */
(PID.TID 0000.0001)                 2.365892017348392E+05,      /* I =  6 */
(PID.TID 0000.0001)                 2.491250781852558E+05,      /* I =  7 */
(PID.TID 0000.0001)                 2.599949918261881E+05,      /* I =  8 */
(PID.TID 0000.0001)                 2.694110134598581E+05,      /* I =  9 */
(PID.TID 0000.0001)                 2.775055554645015E+05,      /* I = 10 */
(PID.TID 0000.0001)                 2.843615645344775E+05,      /* I = 11 */
(PID.TID 0000.0001)                 2.900303768613599E+05,      /* I = 12 */
(PID.TID 0000.0001)                 2.945429307892709E+05,      /* I = 13 */
(PID.TID 0000.0001)                 2.979171143158405E+05,      /* I = 14 */
(PID.TID 0000.0001)                 3.001626787528886E+05,      /* I = 15 */
(PID.TID 0000.0001)     2 @  3.012844832048790E+05,             /* I = 16: 17 */
(PID.TID 0000.0001)                 3.001626787528886E+05,      /* I = 18 */
(PID.TID 0000.0001)                 2.979171143158405E+05,      /* I = 19 */
(PID.TID 0000.0001)                 2.945429307892709E+05,      /* I = 20 */
(PID.TID 0000.0001)                 2.900303768613599E+05,      /* I = 21 */
(PID.TID 0000.0001)                 2.843615645344775E+05,      /* I = 22 */
(PID.TID 0000.0001)                 2.775055554645015E+05,      /* I = 23 */
(PID.TID 0000.0001)                 2.694110134598581E+05,      /* I = 24 */
(PID.TID 0000.0001)                 2.599949918261881E+05,      /* I = 25 */
(PID.TID 0000.0001)                 2.491250781852558E+05,      /* I = 26 */
(PID.TID 0000.0001)                 2.365892017348392E+05,      /* I = 27 */
(PID.TID 0000.0001)                 2.220405216043041E+05,      /* I = 28 */
(PID.TID 0000.0001)                 2.048868197919576E+05,      /* I = 29 */
(PID.TID 0000.0001)                 1.840412227747703E+05,      /* I = 30 */
(PID.TID 0000.0001)                 1.572908084538706E+05,      /* I = 31 */
(PID.TID 0000.0001)     2 @  1.202082051331828E+05,             /* I = 32: 33 */
(PID.TID 0000.0001)                 1.572908084538706E+05,      /* I = 34 */
(PID.TID 0000.0001)                 1.840412227747703E+05,      /* I = 35 */
(PID.TID 0000.0001)                 2.048868197919576E+05,      /* I = 36 */
(PID.TID 0000.0001)                 2.220405216043041E+05,      /* I = 37 */
(PID.TID 0000.0001)                 2.365892017348392E+05,      /* I = 38 */
(PID.TID 0000.0001)                 2.491250781852558E+05,      /* I = 39 */
(PID.TID 0000.0001)                 2.599949918261881E+05,      /* I = 40 */
(PID.TID 0000.0001)                 2.694110134598581E+05,      /* I = 41 */
(PID.TID 0000.0001)                 2.775055554645015E+05,      /* I = 42 */
(PID.TID 0000.0001)                 2.843615645344775E+05,      /* I = 43 */
(PID.TID 0000.0001)                 2.900303768613599E+05,      /* I = 44 */
(PID.TID 0000.0001)                 2.945429307892709E+05,      /* I = 45 */
(PID.TID 0000.0001)                 2.979171143158405E+05,      /* I = 46 */
(PID.TID 0000.0001)                 3.001626787528886E+05,      /* I = 47 */
(PID.TID 0000.0001)     2 @  3.012844832048790E+05,             /* I = 48: 49 */
(PID.TID 0000.0001)                 3.001626787528886E+05,      /* I = 50 */
(PID.TID 0000.0001)                 2.979171143158405E+05,      /* I = 51 */
(PID.TID 0000.0001)                 2.945429307892709E+05,      /* I = 52 */
(PID.TID 0000.0001)                 2.900303768613599E+05,      /* I = 53 */
(PID.TID 0000.0001)                 2.843615645344775E+05,      /* I = 54 */
(PID.TID 0000.0001)                 2.775055554645015E+05,      /* I = 55 */
(PID.TID 0000.0001)                 2.694110134598581E+05,      /* I = 56 */
(PID.TID 0000.0001)                 2.599949918261881E+05,      /* I = 57 */
(PID.TID 0000.0001)                 2.491250781852558E+05,      /* I = 58 */
(PID.TID 0000.0001)                 2.365892017348392E+05,      /* I = 59 */
(PID.TID 0000.0001)                 2.220405216043041E+05,      /* I = 60 */
(PID.TID 0000.0001)                 2.048868197919576E+05,      /* I = 61 */
(PID.TID 0000.0001)                 1.840412227747703E+05,      /* I = 62 */
(PID.TID 0000.0001)                 1.572908084538706E+05,      /* I = 63 */
(PID.TID 0000.0001)     2 @  1.202082051331828E+05,             /* I = 64: 65 */
(PID.TID 0000.0001)                 1.572908084538706E+05,      /* I = 66 */
(PID.TID 0000.0001)                 1.840412227747703E+05,      /* I = 67 */
(PID.TID 0000.0001)                 2.048868197919576E+05,      /* I = 68 */
(PID.TID 0000.0001)                 2.220405216043041E+05,      /* I = 69 */
(PID.TID 0000.0001)                 2.365892017348392E+05,      /* I = 70 */
(PID.TID 0000.0001)                 2.491250781852558E+05,      /* I = 71 */
(PID.TID 0000.0001)                 2.599949918261881E+05,      /* I = 72 */
(PID.TID 0000.0001)                 2.694110134598581E+05,      /* I = 73 */
(PID.TID 0000.0001)                 2.775055554645015E+05,      /* I = 74 */
(PID.TID 0000.0001)                 2.843615645344775E+05,      /* I = 75 */
(PID.TID 0000.0001)                 2.900303768613599E+05,      /* I = 76 */
(PID.TID 0000.0001)                 2.945429307892709E+05,      /* I = 77 */
(PID.TID 0000.0001)                 2.979171143158405E+05,      /* I = 78 */
(PID.TID 0000.0001)                 3.001626787528886E+05,      /* I = 79 */
(PID.TID 0000.0001)     2 @  3.012844832048790E+05,             /* I = 80: 81 */
(PID.TID 0000.0001)                 3.001626787528886E+05,      /* I = 82 */
(PID.TID 0000.0001)                 2.979171143158405E+05,      /* I = 83 */
(PID.TID 0000.0001)                 2.945429307892709E+05,      /* I = 84 */
(PID.TID 0000.0001)                 2.900303768613599E+05,      /* I = 85 */
(PID.TID 0000.0001)                 2.843615645344775E+05,      /* I = 86 */
(PID.TID 0000.0001)                 2.775055554645015E+05,      /* I = 87 */
(PID.TID 0000.0001)                 2.694110134598581E+05,      /* I = 88 */
(PID.TID 0000.0001)                 2.599949918261881E+05,      /* I = 89 */
(PID.TID 0000.0001)                 2.491250781852558E+05,      /* I = 90 */
(PID.TID 0000.0001)                 2.365892017348392E+05,      /* I = 91 */
(PID.TID 0000.0001)                 2.220405216043041E+05,      /* I = 92 */
(PID.TID 0000.0001)                 2.048868197919576E+05,      /* I = 93 */
(PID.TID 0000.0001)                 1.840412227747703E+05,      /* I = 94 */
(PID.TID 0000.0001)                 1.572908084538706E+05,      /* I = 95 */
(PID.TID 0000.0001)     2 @  1.202082051331828E+05,             /* I = 96: 97 */
(PID.TID 0000.0001)                 1.572908084538706E+05,      /* I = 98 */
(PID.TID 0000.0001)                 1.840412227747703E+05,      /* I = 99 */
(PID.TID 0000.0001)                 2.048868197919576E+05,      /* I =100 */
(PID.TID 0000.0001)                 2.220405216043041E+05,      /* I =101 */
(PID.TID 0000.0001)                 2.365892017348392E+05,      /* I =102 */
(PID.TID 0000.0001)                 2.491250781852558E+05,      /* I =103 */
(PID.TID 0000.0001)                 2.599949918261881E+05,      /* I =104 */
(PID.TID 0000.0001)                 2.694110134598581E+05,      /* I =105 */
(PID.TID 0000.0001)                 2.775055554645015E+05,      /* I =106 */
(PID.TID 0000.0001)                 2.843615645344775E+05,      /* I =107 */
(PID.TID 0000.0001)                 2.900303768613599E+05,      /* I =108 */
(PID.TID 0000.0001)                 2.945429307892709E+05,      /* I =109 */
(PID.TID 0000.0001)                 2.979171143158405E+05,      /* I =110 */
(PID.TID 0000.0001)                 3.001626787528886E+05,      /* I =111 */
(PID.TID 0000.0001)     2 @  3.012844832048790E+05,             /* I =112:113 */
(PID.TID 0000.0001)                 3.001626787528886E+05,      /* I =114 */
(PID.TID 0000.0001)                 2.979171143158405E+05,      /* I =115 */
(PID.TID 0000.0001)                 2.945429307892709E+05,      /* I =116 */
(PID.TID 0000.0001)                 2.900303768613599E+05,      /* I =117 */
(PID.TID 0000.0001)                 2.843615645344775E+05,      /* I =118 */
(PID.TID 0000.0001)                 2.775055554645015E+05,      /* I =119 */
(PID.TID 0000.0001)                 2.694110134598581E+05,      /* I =120 */
(PID.TID 0000.0001)                 2.599949918261881E+05,      /* I =121 */
(PID.TID 0000.0001)                 2.491250781852558E+05,      /* I =122 */
(PID.TID 0000.0001)                 2.365892017348392E+05,      /* I =123 */
(PID.TID 0000.0001)                 2.220405216043041E+05,      /* I =124 */
(PID.TID 0000.0001)                 2.048868197919576E+05,      /* I =125 */
(PID.TID 0000.0001)                 1.840412227747703E+05,      /* I =126 */
(PID.TID 0000.0001)                 1.572908084538706E+05,      /* I =127 */
(PID.TID 0000.0001)     2 @  1.202082051331828E+05,             /* I =128:129 */
(PID.TID 0000.0001)                 1.572908084538706E+05,      /* I =130 */
(PID.TID 0000.0001)                 1.840412227747703E+05,      /* I =131 */
(PID.TID 0000.0001)                 2.048868197919576E+05,      /* I =132 */
(PID.TID 0000.0001)                 2.220405216043041E+05,      /* I =133 */
(PID.TID 0000.0001)                 2.365892017348392E+05,      /* I =134 */
(PID.TID 0000.0001)                 2.491250781852558E+05,      /* I =135 */
(PID.TID 0000.0001)                 2.599949918261881E+05,      /* I =136 */
(PID.TID 0000.0001)                 2.694110134598581E+05,      /* I =137 */
(PID.TID 0000.0001)                 2.775055554645015E+05,      /* I =138 */
(PID.TID 0000.0001)                 2.843615645344775E+05,      /* I =139 */
(PID.TID 0000.0001)                 2.900303768613599E+05,      /* I =140 */
(PID.TID 0000.0001)                 2.945429307892709E+05,      /* I =141 */
(PID.TID 0000.0001)                 2.979171143158405E+05,      /* I =142 */
(PID.TID 0000.0001)                 3.001626787528886E+05,      /* I =143 */
(PID.TID 0000.0001)     2 @  3.012844832048790E+05,             /* I =144:145 */
(PID.TID 0000.0001)                 3.001626787528886E+05,      /* I =146 */
(PID.TID 0000.0001)                 2.979171143158405E+05,      /* I =147 */
(PID.TID 0000.0001)                 2.945429307892709E+05,      /* I =148 */
(PID.TID 0000.0001)                 2.900303768613599E+05,      /* I =149 */
(PID.TID 0000.0001)                 2.843615645344775E+05,      /* I =150 */
(PID.TID 0000.0001)                 2.775055554645015E+05,      /* I =151 */
(PID.TID 0000.0001)                 2.694110134598581E+05,      /* I =152 */
(PID.TID 0000.0001)                 2.599949918261881E+05,      /* I =153 */
(PID.TID 0000.0001)                 2.491250781852558E+05,      /* I =154 */
(PID.TID 0000.0001)                 2.365892017348392E+05,      /* I =155 */
(PID.TID 0000.0001)                 2.220405216043041E+05,      /* I =156 */
(PID.TID 0000.0001)                 2.048868197919576E+05,      /* I =157 */
(PID.TID 0000.0001)                 1.840412227747703E+05,      /* I =158 */
(PID.TID 0000.0001)                 1.572908084538706E+05,      /* I =159 */
(PID.TID 0000.0001)     2 @  1.202082051331828E+05,             /* I =160:161 */
(PID.TID 0000.0001)                 1.572908084538706E+05,      /* I =162 */
(PID.TID 0000.0001)                 1.840412227747703E+05,      /* I =163 */
(PID.TID 0000.0001)                 2.048868197919576E+05,      /* I =164 */
(PID.TID 0000.0001)                 2.220405216043041E+05,      /* I =165 */
(PID.TID 0000.0001)                 2.365892017348392E+05,      /* I =166 */
(PID.TID 0000.0001)                 2.491250781852558E+05,      /* I =167 */
(PID.TID 0000.0001)                 2.599949918261881E+05,      /* I =168 */
(PID.TID 0000.0001)                 2.694110134598581E+05,      /* I =169 */
(PID.TID 0000.0001)                 2.775055554645015E+05,      /* I =170 */
(PID.TID 0000.0001)                 2.843615645344775E+05,      /* I =171 */
(PID.TID 0000.0001)                 2.900303768613599E+05,      /* I =172 */
(PID.TID 0000.0001)                 2.945429307892709E+05,      /* I =173 */
(PID.TID 0000.0001)                 2.979171143158405E+05,      /* I =174 */
(PID.TID 0000.0001)                 3.001626787528886E+05,      /* I =175 */
(PID.TID 0000.0001)     2 @  3.012844832048790E+05,             /* I =176:177 */
(PID.TID 0000.0001)                 3.001626787528886E+05,      /* I =178 */
(PID.TID 0000.0001)                 2.979171143158405E+05,      /* I =179 */
(PID.TID 0000.0001)                 2.945429307892709E+05,      /* I =180 */
(PID.TID 0000.0001)                 2.900303768613599E+05,      /* I =181 */
(PID.TID 0000.0001)                 2.843615645344775E+05,      /* I =182 */
(PID.TID 0000.0001)                 2.775055554645015E+05,      /* I =183 */
(PID.TID 0000.0001)                 2.694110134598581E+05,      /* I =184 */
(PID.TID 0000.0001)                 2.599949918261881E+05,      /* I =185 */
(PID.TID 0000.0001)                 2.491250781852558E+05,      /* I =186 */
(PID.TID 0000.0001)                 2.365892017348392E+05,      /* I =187 */
(PID.TID 0000.0001)                 2.220405216043041E+05,      /* I =188 */
(PID.TID 0000.0001)                 2.048868197919576E+05,      /* I =189 */
(PID.TID 0000.0001)                 1.840412227747703E+05,      /* I =190 */
(PID.TID 0000.0001)                 1.572908084538706E+05,      /* I =191 */
(PID.TID 0000.0001)                 1.202082051331828E+05       /* I =192 */
(PID.TID 0000.0001)     ;
(PID.TID 0000.0001) dyF =  /* dyF(1,:,1,:) ( m - cartesian, degrees - spherical ) */
(PID.TID 0000.0001)                 1.202082051331828E+05,      /* J =  1 */
(PID.TID 0000.0001)                 1.563594089971120E+05,      /* J =  2 */
(PID.TID 0000.0001)                 1.835530058121492E+05,      /* J =  3 */
(PID.TID 0000.0001)                 2.045883481718707E+05,      /* J =  4 */
(PID.TID 0000.0001)                 2.218350349844185E+05,      /* J =  5 */
(PID.TID 0000.0001)                 2.364352994647058E+05,      /* J =  6 */
(PID.TID 0000.0001)                 2.490022710862746E+05,      /* J =  7 */
(PID.TID 0000.0001)                 2.598919724358304E+05,      /* J =  8 */
(PID.TID 0000.0001)                 2.693210245495156E+05,      /* J =  9 */
(PID.TID 0000.0001)                 2.774243179696503E+05,      /* J = 10 */
(PID.TID 0000.0001)                 2.842862532064524E+05,      /* J = 11 */
(PID.TID 0000.0001)                 2.899590699694043E+05,      /* J = 12 */
(PID.TID 0000.0001)                 2.944742915095688E+05,      /* J = 13 */
(PID.TID 0000.0001)                 2.978501920522794E+05,      /* J = 14 */
(PID.TID 0000.0001)                 3.000967749619962E+05,      /* J = 15 */
(PID.TID 0000.0001)     2 @  3.012190981969055E+05,             /* J = 16: 17 */
(PID.TID 0000.0001)                 3.000967749619962E+05,      /* J = 18 */
(PID.TID 0000.0001)                 2.978501920522794E+05,      /* J = 19 */
(PID.TID 0000.0001)                 2.944742915095688E+05,      /* J = 20 */
(PID.TID 0000.0001)                 2.899590699694043E+05,      /* J = 21 */
(PID.TID 0000.0001)                 2.842862532064524E+05,      /* J = 22 */
(PID.TID 0000.0001)                 2.774243179696503E+05,      /* J = 23 */
(PID.TID 0000.0001)                 2.693210245495156E+05,      /* J = 24 */
(PID.TID 0000.0001)                 2.598919724358304E+05,      /* J = 25 */
(PID.TID 0000.0001)                 2.490022710862746E+05,      /* J = 26 */
(PID.TID 0000.0001)                 2.364352994647058E+05,      /* J = 27 */
(PID.TID 0000.0001)                 2.218350349844185E+05,      /* J = 28 */
(PID.TID 0000.0001)                 2.045883481718707E+05,      /* J = 29 */
(PID.TID 0000.0001)                 1.835530058121492E+05,      /* J = 30 */
(PID.TID 0000.0001)                 1.563594089971120E+05,      /* J = 31 */
(PID.TID 0000.0001)                 1.202082051331828E+05       /* J = 32 */
(PID.TID 0000.0001)     ;
(PID.TID 0000.0001) dxG =  /* dxG(:,1,:,1) ( m - cartesian, degrees - spherical ) */
(PID.TID 0000.0001)                 1.009837800879055E+05,      /* I =  1 */
(PID.TID 0000.0001)                 1.534505834330338E+05,      /* I =  2 */
(PID.TID 0000.0001)                 1.823321598773926E+05,      /* I =  3 */
(PID.TID 0000.0001)                 2.038999045536999E+05,      /* I =  4 */
(PID.TID 0000.0001)                 2.213884732245467E+05,      /* I =  5 */
(PID.TID 0000.0001)                 2.361211699596122E+05,      /* I =  6 */
(PID.TID 0000.0001)                 2.487693460283865E+05,      /* I =  7 */
(PID.TID 0000.0001)                 2.597126963772147E+05,      /* I =  8 */
(PID.TID 0000.0001)                 2.691790288994575E+05,      /* I =  9 */
(PID.TID 0000.0001)                 2.773091043277394E+05,      /* I = 10 */
(PID.TID 0000.0001)                 2.841906470085516E+05,      /* I = 11 */
(PID.TID 0000.0001)                 2.898778860929753E+05,      /* I = 12 */
(PID.TID 0000.0001)                 2.944035815526416E+05,      /* I = 13 */
(PID.TID 0000.0001)                 2.977867909042096E+05,      /* I = 14 */
(PID.TID 0000.0001)                 3.000380090330854E+05,      /* I = 15 */
(PID.TID 0000.0001)     2 @  3.011625828699101E+05,             /* I = 16: 17 */
(PID.TID 0000.0001)                 3.000380090330854E+05,      /* I = 18 */
(PID.TID 0000.0001)                 2.977867909042096E+05,      /* I = 19 */
(PID.TID 0000.0001)                 2.944035815526416E+05,      /* I = 20 */
(PID.TID 0000.0001)                 2.898778860929753E+05,      /* I = 21 */
(PID.TID 0000.0001)                 2.841906470085516E+05,      /* I = 22 */
(PID.TID 0000.0001)                 2.773091043277394E+05,      /* I = 23 */
(PID.TID 0000.0001)                 2.691790288994575E+05,      /* I = 24 */
(PID.TID 0000.0001)                 2.597126963772147E+05,      /* I = 25 */
(PID.TID 0000.0001)                 2.487693460283865E+05,      /* I = 26 */
(PID.TID 0000.0001)                 2.361211699596122E+05,      /* I = 27 */
(PID.TID 0000.0001)                 2.213884732245467E+05,      /* I = 28 */
(PID.TID 0000.0001)                 2.038999045536999E+05,      /* I = 29 */
(PID.TID 0000.0001)                 1.823321598773926E+05,      /* I = 30 */
(PID.TID 0000.0001)                 1.534505834330338E+05,      /* I = 31 */
(PID.TID 0000.0001)     2 @  1.009837800879055E+05,             /* I = 32: 33 */
(PID.TID 0000.0001)                 1.534505834330338E+05,      /* I = 34 */
(PID.TID 0000.0001)                 1.823321598773926E+05,      /* I = 35 */
(PID.TID 0000.0001)                 2.038999045536999E+05,      /* I = 36 */
(PID.TID 0000.0001)                 2.213884732245467E+05,      /* I = 37 */
(PID.TID 0000.0001)                 2.361211699596122E+05,      /* I = 38 */
(PID.TID 0000.0001)                 2.487693460283865E+05,      /* I = 39 */
(PID.TID 0000.0001)                 2.597126963772147E+05,      /* I = 40 */
(PID.TID 0000.0001)                 2.691790288994575E+05,      /* I = 41 */
(PID.TID 0000.0001)                 2.773091043277394E+05,      /* I = 42 */
(PID.TID 0000.0001)                 2.841906470085516E+05,      /* I = 43 */
(PID.TID 0000.0001)                 2.898778860929753E+05,      /* I = 44 */
(PID.TID 0000.0001)                 2.944035815526416E+05,      /* I = 45 */
(PID.TID 0000.0001)                 2.977867909042096E+05,      /* I = 46 */
(PID.TID 0000.0001)                 3.000380090330854E+05,      /* I = 47 */
(PID.TID 0000.0001)     2 @  3.011625828699101E+05,             /* I = 48: 49 */
(PID.TID 0000.0001)                 3.000380090330854E+05,      /* I = 50 */
(PID.TID 0000.0001)                 2.977867909042096E+05,      /* I = 51 */
(PID.TID 0000.0001)                 2.944035815526416E+05,      /* I = 52 */
(PID.TID 0000.0001)                 2.898778860929753E+05,      /* I = 53 */
(PID.TID 0000.0001)                 2.841906470085516E+05,      /* I = 54 */
(PID.TID 0000.0001)                 2.773091043277394E+05,      /* I = 55 */
(PID.TID 0000.0001)                 2.691790288994575E+05,      /* I = 56 */
(PID.TID 0000.0001)                 2.597126963772147E+05,      /* I = 57 */
(PID.TID 0000.0001)                 2.487693460283865E+05,      /* I = 58 */
(PID.TID 0000.0001)                 2.361211699596122E+05,      /* I = 59 */
(PID.TID 0000.0001)                 2.213884732245467E+05,      /* I = 60 */
(PID.TID 0000.0001)                 2.038999045536999E+05,      /* I = 61 */
(PID.TID 0000.0001)                 1.823321598773926E+05,      /* I = 62 */
(PID.TID 0000.0001)                 1.534505834330338E+05,      /* I = 63 */
(PID.TID 0000.0001)     2 @  1.009837800879055E+05,             /* I = 64: 65 */
(PID.TID 0000.0001)                 1.534505834330338E+05,      /* I = 66 */
(PID.TID 0000.0001)                 1.823321598773926E+05,      /* I = 67 */
(PID.TID 0000.0001)                 2.038999045536999E+05,      /* I = 68 */
(PID.TID 0000.0001)                 2.213884732245467E+05,      /* I = 69 */
(PID.TID 0000.0001)                 2.361211699596122E+05,      /* I = 70 */
(PID.TID 0000.0001)                 2.487693460283865E+05,      /* I = 71 */
(PID.TID 0000.0001)                 2.597126963772147E+05,      /* I = 72 */
(PID.TID 0000.0001)                 2.691790288994575E+05,      /* I = 73 */
(PID.TID 0000.0001)                 2.773091043277394E+05,      /* I = 74 */
(PID.TID 0000.0001)                 2.841906470085516E+05,      /* I = 75 */
(PID.TID 0000.0001)                 2.898778860929753E+05,      /* I = 76 */
(PID.TID 0000.0001)                 2.944035815526416E+05,      /* I = 77 */
(PID.TID 0000.0001)                 2.977867909042096E+05,      /* I = 78 */
(PID.TID 0000.0001)                 3.000380090330854E+05,      /* I = 79 */
(PID.TID 0000.0001)     2 @  3.011625828699101E+05,             /* I = 80: 81 */
(PID.TID 0000.0001)                 3.000380090330854E+05,      /* I = 82 */
(PID.TID 0000.0001)                 2.977867909042096E+05,      /* I = 83 */
(PID.TID 0000.0001)                 2.944035815526416E+05,      /* I = 84 */
(PID.TID 0000.0001)                 2.898778860929753E+05,      /* I = 85 */
(PID.TID 0000.0001)                 2.841906470085516E+05,      /* I = 86 */
(PID.TID 0000.0001)                 2.773091043277394E+05,      /* I = 87 */
(PID.TID 0000.0001)                 2.691790288994575E+05,      /* I = 88 */
(PID.TID 0000.0001)                 2.597126963772147E+05,      /* I = 89 */
(PID.TID 0000.0001)                 2.487693460283865E+05,      /* I = 90 */
(PID.TID 0000.0001)                 2.361211699596122E+05,      /* I = 91 */
(PID.TID 0000.0001)                 2.213884732245467E+05,      /* I = 92 */
(PID.TID 0000.0001)                 2.038999045536999E+05,      /* I = 93 */
(PID.TID 0000.0001)                 1.823321598773926E+05,      /* I = 94 */
(PID.TID 0000.0001)                 1.534505834330338E+05,      /* I = 95 */
(PID.TID 0000.0001)     2 @  1.009837800879055E+05,             /* I = 96: 97 */
(PID.TID 0000.0001)                 1.534505834330338E+05,      /* I = 98 */
(PID.TID 0000.0001)                 1.823321598773926E+05,      /* I = 99 */
(PID.TID 0000.0001)                 2.038999045536999E+05,      /* I =100 */
(PID.TID 0000.0001)                 2.213884732245467E+05,      /* I =101 */
(PID.TID 0000.0001)                 2.361211699596122E+05,      /* I =102 */
(PID.TID 0000.0001)                 2.487693460283865E+05,      /* I =103 */
(PID.TID 0000.0001)                 2.597126963772147E+05,      /* I =104 */
(PID.TID 0000.0001)                 2.691790288994575E+05,      /* I =105 */
(PID.TID 0000.0001)                 2.773091043277394E+05,      /* I =106 */
(PID.TID 0000.0001)                 2.841906470085516E+05,      /* I =107 */
(PID.TID 0000.0001)                 2.898778860929753E+05,      /* I =108 */
(PID.TID 0000.0001)                 2.944035815526416E+05,      /* I =109 */
(PID.TID 0000.0001)                 2.977867909042096E+05,      /* I =110 */
(PID.TID 0000.0001)                 3.000380090330854E+05,      /* I =111 */
(PID.TID 0000.0001)     2 @  3.011625828699101E+05,             /* I =112:113 */
(PID.TID 0000.0001)                 3.000380090330854E+05,      /* I =114 */
(PID.TID 0000.0001)                 2.977867909042096E+05,      /* I =115 */
(PID.TID 0000.0001)                 2.944035815526416E+05,      /* I =116 */
(PID.TID 0000.0001)                 2.898778860929753E+05,      /* I =117 */
(PID.TID 0000.0001)                 2.841906470085516E+05,      /* I =118 */
(PID.TID 0000.0001)                 2.773091043277394E+05,      /* I =119 */
(PID.TID 0000.0001)                 2.691790288994575E+05,      /* I =120 */
(PID.TID 0000.0001)                 2.597126963772147E+05,      /* I =121 */
(PID.TID 0000.0001)                 2.487693460283865E+05,      /* I =122 */
(PID.TID 0000.0001)                 2.361211699596122E+05,      /* I =123 */
(PID.TID 0000.0001)                 2.213884732245467E+05,      /* I =124 */
(PID.TID 0000.0001)                 2.038999045536999E+05,      /* I =125 */
(PID.TID 0000.0001)                 1.823321598773926E+05,      /* I =126 */
(PID.TID 0000.0001)                 1.534505834330338E+05,      /* I =127 */
(PID.TID 0000.0001)     2 @  1.009837800879055E+05,             /* I =128:129 */
(PID.TID 0000.0001)                 1.534505834330338E+05,      /* I =130 */
(PID.TID 0000.0001)                 1.823321598773926E+05,      /* I =131 */
(PID.TID 0000.0001)                 2.038999045536999E+05,      /* I =132 */
(PID.TID 0000.0001)                 2.213884732245467E+05,      /* I =133 */
(PID.TID 0000.0001)                 2.361211699596122E+05,      /* I =134 */
(PID.TID 0000.0001)                 2.487693460283865E+05,      /* I =135 */
(PID.TID 0000.0001)                 2.597126963772147E+05,      /* I =136 */
(PID.TID 0000.0001)                 2.691790288994575E+05,      /* I =137 */
(PID.TID 0000.0001)                 2.773091043277394E+05,      /* I =138 */
(PID.TID 0000.0001)                 2.841906470085516E+05,      /* I =139 */
(PID.TID 0000.0001)                 2.898778860929753E+05,      /* I =140 */
(PID.TID 0000.0001)                 2.944035815526416E+05,      /* I =141 */
(PID.TID 0000.0001)                 2.977867909042096E+05,      /* I =142 */
(PID.TID 0000.0001)                 3.000380090330854E+05,      /* I =143 */
(PID.TID 0000.0001)     2 @  3.011625828699101E+05,             /* I =144:145 */
(PID.TID 0000.0001)                 3.000380090330854E+05,      /* I =146 */
(PID.TID 0000.0001)                 2.977867909042096E+05,      /* I =147 */
(PID.TID 0000.0001)                 2.944035815526416E+05,      /* I =148 */
(PID.TID 0000.0001)                 2.898778860929753E+05,      /* I =149 */
(PID.TID 0000.0001)                 2.841906470085516E+05,      /* I =150 */
(PID.TID 0000.0001)                 2.773091043277394E+05,      /* I =151 */
(PID.TID 0000.0001)                 2.691790288994575E+05,      /* I =152 */
(PID.TID 0000.0001)                 2.597126963772147E+05,      /* I =153 */
(PID.TID 0000.0001)                 2.487693460283865E+05,      /* I =154 */
(PID.TID 0000.0001)                 2.361211699596122E+05,      /* I =155 */
(PID.TID 0000.0001)                 2.213884732245467E+05,      /* I =156 */
(PID.TID 0000.0001)                 2.038999045536999E+05,      /* I =157 */
(PID.TID 0000.0001)                 1.823321598773926E+05,      /* I =158 */
(PID.TID 0000.0001)                 1.534505834330338E+05,      /* I =159 */
(PID.TID 0000.0001)     2 @  1.009837800879055E+05,             /* I =160:161 */
(PID.TID 0000.0001)                 1.534505834330338E+05,      /* I =162 */
(PID.TID 0000.0001)                 1.823321598773926E+05,      /* I =163 */
(PID.TID 0000.0001)                 2.038999045536999E+05,      /* I =164 */
(PID.TID 0000.0001)                 2.213884732245467E+05,      /* I =165 */
(PID.TID 0000.0001)                 2.361211699596122E+05,      /* I =166 */
(PID.TID 0000.0001)                 2.487693460283865E+05,      /* I =167 */
(PID.TID 0000.0001)                 2.597126963772147E+05,      /* I =168 */
(PID.TID 0000.0001)                 2.691790288994575E+05,      /* I =169 */
(PID.TID 0000.0001)                 2.773091043277394E+05,      /* I =170 */
(PID.TID 0000.0001)                 2.841906470085516E+05,      /* I =171 */
(PID.TID 0000.0001)                 2.898778860929753E+05,      /* I =172 */
(PID.TID 0000.0001)                 2.944035815526416E+05,      /* I =173 */
(PID.TID 0000.0001)                 2.977867909042096E+05,      /* I =174 */
(PID.TID 0000.0001)                 3.000380090330854E+05,      /* I =175 */
(PID.TID 0000.0001)     2 @  3.011625828699101E+05,             /* I =176:177 */
(PID.TID 0000.0001)                 3.000380090330854E+05,      /* I =178 */
(PID.TID 0000.0001)                 2.977867909042096E+05,      /* I =179 */
(PID.TID 0000.0001)                 2.944035815526416E+05,      /* I =180 */
(PID.TID 0000.0001)                 2.898778860929753E+05,      /* I =181 */
(PID.TID 0000.0001)                 2.841906470085516E+05,      /* I =182 */
(PID.TID 0000.0001)                 2.773091043277394E+05,      /* I =183 */
(PID.TID 0000.0001)                 2.691790288994575E+05,      /* I =184 */
(PID.TID 0000.0001)                 2.597126963772147E+05,      /* I =185 */
(PID.TID 0000.0001)                 2.487693460283865E+05,      /* I =186 */
(PID.TID 0000.0001)                 2.361211699596122E+05,      /* I =187 */
(PID.TID 0000.0001)                 2.213884732245467E+05,      /* I =188 */
(PID.TID 0000.0001)                 2.038999045536999E+05,      /* I =189 */
(PID.TID 0000.0001)                 1.823321598773926E+05,      /* I =190 */
(PID.TID 0000.0001)                 1.534505834330338E+05,      /* I =191 */
(PID.TID 0000.0001)                 1.009837800879055E+05       /* I =192 */
(PID.TID 0000.0001)     ;
(PID.TID 0000.0001) dxG =  /* dxG(1,:,1,:) ( m - cartesian, degrees - spherical ) */
(PID.TID 0000.0001)                 1.009837800879055E+05,      /* J =  1 */
(PID.TID 0000.0001)                 1.403701524205398E+05,      /* J =  2 */
(PID.TID 0000.0001)                 1.716197227386011E+05,      /* J =  3 */
(PID.TID 0000.0001)                 1.950254041626018E+05,      /* J =  4 */
(PID.TID 0000.0001)                 2.138410773065497E+05,      /* J =  5 */
(PID.TID 0000.0001)                 2.295958105911512E+05,      /* J =  6 */
(PID.TID 0000.0001)                 2.430829951739083E+05,      /* J =  7 */
(PID.TID 0000.0001)                 2.547526806712889E+05,      /* J =  8 */
(PID.TID 0000.0001)                 2.648750305193301E+05,      /* J =  9 */
(PID.TID 0000.0001)                 2.736173771018112E+05,      /* J = 10 */
(PID.TID 0000.0001)                 2.810845823202647E+05,      /* J = 11 */
(PID.TID 0000.0001)                 2.873420591008078E+05,      /* J = 12 */
(PID.TID 0000.0001)                 2.924298293668651E+05,      /* J = 13 */
(PID.TID 0000.0001)                 2.963715635865306E+05,      /* J = 14 */
(PID.TID 0000.0001)                 2.991805843171258E+05,      /* J = 15 */
(PID.TID 0000.0001)                 3.008638765647886E+05,      /* J = 16 */
(PID.TID 0000.0001)                 3.014246674484008E+05,      /* J = 17 */
(PID.TID 0000.0001)                 3.008638765647886E+05,      /* J = 18 */
(PID.TID 0000.0001)                 2.991805843171258E+05,      /* J = 19 */
(PID.TID 0000.0001)                 2.963715635865306E+05,      /* J = 20 */
(PID.TID 0000.0001)                 2.924298293668651E+05,      /* J = 21 */
(PID.TID 0000.0001)                 2.873420591008078E+05,      /* J = 22 */
(PID.TID 0000.0001)                 2.810845823202647E+05,      /* J = 23 */
(PID.TID 0000.0001)                 2.736173771018112E+05,      /* J = 24 */
(PID.TID 0000.0001)                 2.648750305193301E+05,      /* J = 25 */
(PID.TID 0000.0001)                 2.547526806712889E+05,      /* J = 26 */
(PID.TID 0000.0001)                 2.430829951739083E+05,      /* J = 27 */
(PID.TID 0000.0001)                 2.295958105911512E+05,      /* J = 28 */
(PID.TID 0000.0001)                 2.138410773065497E+05,      /* J = 29 */
(PID.TID 0000.0001)                 1.950254041626018E+05,      /* J = 30 */
(PID.TID 0000.0001)                 1.716197227386011E+05,      /* J = 31 */
(PID.TID 0000.0001)                 1.403701524205398E+05       /* J = 32 */
(PID.TID 0000.0001)     ;
(PID.TID 0000.0001) dyG =  /* dyG(:,1,:,1) ( m - cartesian, degrees - spherical ) */
(PID.TID 0000.0001)                 1.009837800879055E+05,      /* I =  1 */
(PID.TID 0000.0001)                 1.403701524205398E+05,      /* I =  2 */
(PID.TID 0000.0001)                 1.716197227386011E+05,      /* I =  3 */
(PID.TID 0000.0001)                 1.950254041626018E+05,      /* I =  4 */
(PID.TID 0000.0001)                 2.138410773065497E+05,      /* I =  5 */
(PID.TID 0000.0001)                 2.295958105911512E+05,      /* I =  6 */
(PID.TID 0000.0001)                 2.430829951739083E+05,      /* I =  7 */
(PID.TID 0000.0001)                 2.547526806712889E+05,      /* I =  8 */
(PID.TID 0000.0001)                 2.648750305193301E+05,      /* I =  9 */
(PID.TID 0000.0001)                 2.736173771018112E+05,      /* I = 10 */
(PID.TID 0000.0001)                 2.810845823202647E+05,      /* I = 11 */
(PID.TID 0000.0001)                 2.873420591008078E+05,      /* I = 12 */
(PID.TID 0000.0001)                 2.924298293668651E+05,      /* I = 13 */
(PID.TID 0000.0001)                 2.963715635865306E+05,      /* I = 14 */
(PID.TID 0000.0001)                 2.991805843171258E+05,      /* I = 15 */
(PID.TID 0000.0001)                 3.008638765647886E+05,      /* I = 16 */
(PID.TID 0000.0001)                 3.014246674484008E+05,      /* I = 17 */
(PID.TID 0000.0001)                 3.008638765647886E+05,      /* I = 18 */
(PID.TID 0000.0001)                 2.991805843171258E+05,      /* I = 19 */
(PID.TID 0000.0001)                 2.963715635865306E+05,      /* I = 20 */
(PID.TID 0000.0001)                 2.924298293668651E+05,      /* I = 21 */
(PID.TID 0000.0001)                 2.873420591008078E+05,      /* I = 22 */
(PID.TID 0000.0001)                 2.810845823202647E+05,      /* I = 23 */
(PID.TID 0000.0001)                 2.736173771018112E+05,      /* I = 24 */
(PID.TID 0000.0001)                 2.648750305193301E+05,      /* I = 25 */
(PID.TID 0000.0001)                 2.547526806712889E+05,      /* I = 26 */
(PID.TID 0000.0001)                 2.430829951739083E+05,      /* I = 27 */
(PID.TID 0000.0001)                 2.295958105911512E+05,      /* I = 28 */
(PID.TID 0000.0001)                 2.138410773065497E+05,      /* I = 29 */
(PID.TID 0000.0001)                 1.950254041626018E+05,      /* I = 30 */
(PID.TID 0000.0001)                 1.716197227386011E+05,      /* I = 31 */
(PID.TID 0000.0001)                 1.403701524205398E+05,      /* I = 32 */
(PID.TID 0000.0001)                 1.009837800879055E+05,      /* I = 33 */
(PID.TID 0000.0001)                 1.403701524205398E+05,      /* I = 34 */
(PID.TID 0000.0001)                 1.716197227386011E+05,      /* I = 35 */
(PID.TID 0000.0001)                 1.950254041626018E+05,      /* I = 36 */
(PID.TID 0000.0001)                 2.138410773065497E+05,      /* I = 37 */
(PID.TID 0000.0001)                 2.295958105911512E+05,      /* I = 38 */
(PID.TID 0000.0001)                 2.430829951739083E+05,      /* I = 39 */
(PID.TID 0000.0001)                 2.547526806712889E+05,      /* I = 40 */
(PID.TID 0000.0001)                 2.648750305193301E+05,      /* I = 41 */
(PID.TID 0000.0001)                 2.736173771018112E+05,      /* I = 42 */
(PID.TID 0000.0001)                 2.810845823202647E+05,      /* I = 43 */
(PID.TID 0000.0001)                 2.873420591008078E+05,      /* I = 44 */
(PID.TID 0000.0001)                 2.924298293668651E+05,      /* I = 45 */
(PID.TID 0000.0001)                 2.963715635865306E+05,      /* I = 46 */
(PID.TID 0000.0001)                 2.991805843171258E+05,      /* I = 47 */
(PID.TID 0000.0001)                 3.008638765647886E+05,      /* I = 48 */
(PID.TID 0000.0001)                 3.014246674484008E+05,      /* I = 49 */
(PID.TID 0000.0001)                 3.008638765647886E+05,      /* I = 50 */
(PID.TID 0000.0001)                 2.991805843171258E+05,      /* I = 51 */
(PID.TID 0000.0001)                 2.963715635865306E+05,      /* I = 52 */
(PID.TID 0000.0001)                 2.924298293668651E+05,      /* I = 53 */
(PID.TID 0000.0001)                 2.873420591008078E+05,      /* I = 54 */
(PID.TID 0000.0001)                 2.810845823202647E+05,      /* I = 55 */
(PID.TID 0000.0001)                 2.736173771018112E+05,      /* I = 56 */
(PID.TID 0000.0001)                 2.648750305193301E+05,      /* I = 57 */
(PID.TID 0000.0001)                 2.547526806712889E+05,      /* I = 58 */
(PID.TID 0000.0001)                 2.430829951739083E+05,      /* I = 59 */
(PID.TID 0000.0001)                 2.295958105911512E+05,      /* I = 60 */
(PID.TID 0000.0001)                 2.138410773065497E+05,      /* I = 61 */
(PID.TID 0000.0001)                 1.950254041626018E+05,      /* I = 62 */
(PID.TID 0000.0001)                 1.716197227386011E+05,      /* I = 63 */
(PID.TID 0000.0001)                 1.403701524205398E+05,      /* I = 64 */
(PID.TID 0000.0001)                 1.009837800879055E+05,      /* I = 65 */
(PID.TID 0000.0001)                 1.403701524205398E+05,      /* I = 66 */
(PID.TID 0000.0001)                 1.716197227386011E+05,      /* I = 67 */
(PID.TID 0000.0001)                 1.950254041626018E+05,      /* I = 68 */
(PID.TID 0000.0001)                 2.138410773065497E+05,      /* I = 69 */
(PID.TID 0000.0001)                 2.295958105911512E+05,      /* I = 70 */
(PID.TID 0000.0001)                 2.430829951739083E+05,      /* I = 71 */
(PID.TID 0000.0001)                 2.547526806712889E+05,      /* I = 72 */
(PID.TID 0000.0001)                 2.648750305193301E+05,      /* I = 73 */
(PID.TID 0000.0001)                 2.736173771018112E+05,      /* I = 74 */
(PID.TID 0000.0001)                 2.810845823202647E+05,      /* I = 75 */
(PID.TID 0000.0001)                 2.873420591008078E+05,      /* I = 76 */
(PID.TID 0000.0001)                 2.924298293668651E+05,      /* I = 77 */
(PID.TID 0000.0001)                 2.963715635865306E+05,      /* I = 78 */
(PID.TID 0000.0001)                 2.991805843171258E+05,      /* I = 79 */
(PID.TID 0000.0001)                 3.008638765647886E+05,      /* I = 80 */
(PID.TID 0000.0001)                 3.014246674484008E+05,      /* I = 81 */
(PID.TID 0000.0001)                 3.008638765647886E+05,      /* I = 82 */
(PID.TID 0000.0001)                 2.991805843171258E+05,      /* I = 83 */
(PID.TID 0000.0001)                 2.963715635865306E+05,      /* I = 84 */
(PID.TID 0000.0001)                 2.924298293668651E+05,      /* I = 85 */
(PID.TID 0000.0001)                 2.873420591008078E+05,      /* I = 86 */
(PID.TID 0000.0001)                 2.810845823202647E+05,      /* I = 87 */
(PID.TID 0000.0001)                 2.736173771018112E+05,      /* I = 88 */
(PID.TID 0000.0001)                 2.648750305193301E+05,      /* I = 89 */
(PID.TID 0000.0001)                 2.547526806712889E+05,      /* I = 90 */
(PID.TID 0000.0001)                 2.430829951739083E+05,      /* I = 91 */
(PID.TID 0000.0001)                 2.295958105911512E+05,      /* I = 92 */
(PID.TID 0000.0001)                 2.138410773065497E+05,      /* I = 93 */
(PID.TID 0000.0001)                 1.950254041626018E+05,      /* I = 94 */
(PID.TID 0000.0001)                 1.716197227386011E+05,      /* I = 95 */
(PID.TID 0000.0001)                 1.403701524205398E+05,      /* I = 96 */
(PID.TID 0000.0001)                 1.009837800879055E+05,      /* I = 97 */
(PID.TID 0000.0001)                 1.403701524205398E+05,      /* I = 98 */
(PID.TID 0000.0001)                 1.716197227386011E+05,      /* I = 99 */
(PID.TID 0000.0001)                 1.950254041626018E+05,      /* I =100 */
(PID.TID 0000.0001)                 2.138410773065497E+05,      /* I =101 */
(PID.TID 0000.0001)                 2.295958105911512E+05,      /* I =102 */
(PID.TID 0000.0001)                 2.430829951739083E+05,      /* I =103 */
(PID.TID 0000.0001)                 2.547526806712889E+05,      /* I =104 */
(PID.TID 0000.0001)                 2.648750305193301E+05,      /* I =105 */
(PID.TID 0000.0001)                 2.736173771018112E+05,      /* I =106 */
(PID.TID 0000.0001)                 2.810845823202647E+05,      /* I =107 */
(PID.TID 0000.0001)                 2.873420591008078E+05,      /* I =108 */
(PID.TID 0000.0001)                 2.924298293668651E+05,      /* I =109 */
(PID.TID 0000.0001)                 2.963715635865306E+05,      /* I =110 */
(PID.TID 0000.0001)                 2.991805843171258E+05,      /* I =111 */
(PID.TID 0000.0001)                 3.008638765647886E+05,      /* I =112 */
(PID.TID 0000.0001)                 3.014246674484008E+05,      /* I =113 */
(PID.TID 0000.0001)                 3.008638765647886E+05,      /* I =114 */
(PID.TID 0000.0001)                 2.991805843171258E+05,      /* I =115 */
(PID.TID 0000.0001)                 2.963715635865306E+05,      /* I =116 */
(PID.TID 0000.0001)                 2.924298293668651E+05,      /* I =117 */
(PID.TID 0000.0001)                 2.873420591008078E+05,      /* I =118 */
(PID.TID 0000.0001)                 2.810845823202647E+05,      /* I =119 */
(PID.TID 0000.0001)                 2.736173771018112E+05,      /* I =120 */
(PID.TID 0000.0001)                 2.648750305193301E+05,      /* I =121 */
(PID.TID 0000.0001)                 2.547526806712889E+05,      /* I =122 */
(PID.TID 0000.0001)                 2.430829951739083E+05,      /* I =123 */
(PID.TID 0000.0001)                 2.295958105911512E+05,      /* I =124 */
(PID.TID 0000.0001)                 2.138410773065497E+05,      /* I =125 */
(PID.TID 0000.0001)                 1.950254041626018E+05,      /* I =126 */
(PID.TID 0000.0001)                 1.716197227386011E+05,      /* I =127 */
(PID.TID 0000.0001)                 1.403701524205398E+05,      /* I =128 */
(PID.TID 0000.0001)                 1.009837800879055E+05,      /* I =129 */
(PID.TID 0000.0001)                 1.403701524205398E+05,      /* I =130 */
(PID.TID 0000.0001)                 1.716197227386011E+05,      /* I =131 */
(PID.TID 0000.0001)                 1.950254041626018E+05,      /* I =132 */
(PID.TID 0000.0001)                 2.138410773065497E+05,      /* I =133 */
(PID.TID 0000.0001)                 2.295958105911512E+05,      /* I =134 */
(PID.TID 0000.0001)                 2.430829951739083E+05,      /* I =135 */
(PID.TID 0000.0001)                 2.547526806712889E+05,      /* I =136 */
(PID.TID 0000.0001)                 2.648750305193301E+05,      /* I =137 */
(PID.TID 0000.0001)                 2.736173771018112E+05,      /* I =138 */
(PID.TID 0000.0001)                 2.810845823202647E+05,      /* I =139 */
(PID.TID 0000.0001)                 2.873420591008078E+05,      /* I =140 */
(PID.TID 0000.0001)                 2.924298293668651E+05,      /* I =141 */
(PID.TID 0000.0001)                 2.963715635865306E+05,      /* I =142 */
(PID.TID 0000.0001)                 2.991805843171258E+05,      /* I =143 */
(PID.TID 0000.0001)                 3.008638765647886E+05,      /* I =144 */
(PID.TID 0000.0001)                 3.014246674484008E+05,      /* I =145 */
(PID.TID 0000.0001)                 3.008638765647886E+05,      /* I =146 */
(PID.TID 0000.0001)                 2.991805843171258E+05,      /* I =147 */
(PID.TID 0000.0001)                 2.963715635865306E+05,      /* I =148 */
(PID.TID 0000.0001)                 2.924298293668651E+05,      /* I =149 */
(PID.TID 0000.0001)                 2.873420591008078E+05,      /* I =150 */
(PID.TID 0000.0001)                 2.810845823202647E+05,      /* I =151 */
(PID.TID 0000.0001)                 2.736173771018112E+05,      /* I =152 */
(PID.TID 0000.0001)                 2.648750305193301E+05,      /* I =153 */
(PID.TID 0000.0001)                 2.547526806712889E+05,      /* I =154 */
(PID.TID 0000.0001)                 2.430829951739083E+05,      /* I =155 */
(PID.TID 0000.0001)                 2.295958105911512E+05,      /* I =156 */
(PID.TID 0000.0001)                 2.138410773065497E+05,      /* I =157 */
(PID.TID 0000.0001)                 1.950254041626018E+05,      /* I =158 */
(PID.TID 0000.0001)                 1.716197227386011E+05,      /* I =159 */
(PID.TID 0000.0001)                 1.403701524205398E+05,      /* I =160 */
(PID.TID 0000.0001)                 1.009837800879055E+05,      /* I =161 */
(PID.TID 0000.0001)                 1.403701524205398E+05,      /* I =162 */
(PID.TID 0000.0001)                 1.716197227386011E+05,      /* I =163 */
(PID.TID 0000.0001)                 1.950254041626018E+05,      /* I =164 */
(PID.TID 0000.0001)                 2.138410773065497E+05,      /* I =165 */
(PID.TID 0000.0001)                 2.295958105911512E+05,      /* I =166 */
(PID.TID 0000.0001)                 2.430829951739083E+05,      /* I =167 */
(PID.TID 0000.0001)                 2.547526806712889E+05,      /* I =168 */
(PID.TID 0000.0001)                 2.648750305193301E+05,      /* I =169 */
(PID.TID 0000.0001)                 2.736173771018112E+05,      /* I =170 */
(PID.TID 0000.0001)                 2.810845823202647E+05,      /* I =171 */
(PID.TID 0000.0001)                 2.873420591008078E+05,      /* I =172 */
(PID.TID 0000.0001)                 2.924298293668651E+05,      /* I =173 */
(PID.TID 0000.0001)                 2.963715635865306E+05,      /* I =174 */
(PID.TID 0000.0001)                 2.991805843171258E+05,      /* I =175 */
(PID.TID 0000.0001)                 3.008638765647886E+05,      /* I =176 */
(PID.TID 0000.0001)                 3.014246674484008E+05,      /* I =177 */
(PID.TID 0000.0001)                 3.008638765647886E+05,      /* I =178 */
(PID.TID 0000.0001)                 2.991805843171258E+05,      /* I =179 */
(PID.TID 0000.0001)                 2.963715635865306E+05,      /* I =180 */
(PID.TID 0000.0001)                 2.924298293668651E+05,      /* I =181 */
(PID.TID 0000.0001)                 2.873420591008078E+05,      /* I =182 */
(PID.TID 0000.0001)                 2.810845823202647E+05,      /* I =183 */
(PID.TID 0000.0001)                 2.736173771018112E+05,      /* I =184 */
(PID.TID 0000.0001)                 2.648750305193301E+05,      /* I =185 */
(PID.TID 0000.0001)                 2.547526806712889E+05,      /* I =186 */
(PID.TID 0000.0001)                 2.430829951739083E+05,      /* I =187 */
(PID.TID 0000.0001)                 2.295958105911512E+05,      /* I =188 */
(PID.TID 0000.0001)                 2.138410773065497E+05,      /* I =189 */
(PID.TID 0000.0001)                 1.950254041626018E+05,      /* I =190 */
(PID.TID 0000.0001)                 1.716197227386011E+05,      /* I =191 */
(PID.TID 0000.0001)                 1.403701524205398E+05       /* I =192 */
(PID.TID 0000.0001)     ;
(PID.TID 0000.0001) dyG =  /* dyG(1,:,1,:) ( m - cartesian, degrees - spherical ) */
(PID.TID 0000.0001)                 1.009837800879055E+05,      /* J =  1 */
(PID.TID 0000.0001)                 1.534505834330338E+05,      /* J =  2 */
(PID.TID 0000.0001)                 1.823321598773926E+05,      /* J =  3 */
(PID.TID 0000.0001)                 2.038999045536999E+05,      /* J =  4 */
(PID.TID 0000.0001)                 2.213884732245467E+05,      /* J =  5 */
(PID.TID 0000.0001)                 2.361211699596122E+05,      /* J =  6 */
(PID.TID 0000.0001)                 2.487693460283865E+05,      /* J =  7 */
(PID.TID 0000.0001)                 2.597126963772147E+05,      /* J =  8 */
(PID.TID 0000.0001)                 2.691790288994575E+05,      /* J =  9 */
(PID.TID 0000.0001)                 2.773091043277394E+05,      /* J = 10 */
(PID.TID 0000.0001)                 2.841906470085516E+05,      /* J = 11 */
(PID.TID 0000.0001)                 2.898778860929753E+05,      /* J = 12 */
(PID.TID 0000.0001)                 2.944035815526416E+05,      /* J = 13 */
(PID.TID 0000.0001)                 2.977867909042096E+05,      /* J = 14 */
(PID.TID 0000.0001)                 3.000380090330854E+05,      /* J = 15 */
(PID.TID 0000.0001)     2 @  3.011625828699101E+05,             /* J = 16: 17 */
(PID.TID 0000.0001)                 3.000380090330854E+05,      /* J = 18 */
(PID.TID 0000.0001)                 2.977867909042096E+05,      /* J = 19 */
(PID.TID 0000.0001)                 2.944035815526416E+05,      /* J = 20 */
(PID.TID 0000.0001)                 2.898778860929753E+05,      /* J = 21 */
(PID.TID 0000.0001)                 2.841906470085516E+05,      /* J = 22 */
(PID.TID 0000.0001)                 2.773091043277394E+05,      /* J = 23 */
(PID.TID 0000.0001)                 2.691790288994575E+05,      /* J = 24 */
(PID.TID 0000.0001)                 2.597126963772147E+05,      /* J = 25 */
(PID.TID 0000.0001)                 2.487693460283865E+05,      /* J = 26 */
(PID.TID 0000.0001)                 2.361211699596122E+05,      /* J = 27 */
(PID.TID 0000.0001)                 2.213884732245467E+05,      /* J = 28 */
(PID.TID 0000.0001)                 2.038999045536999E+05,      /* J = 29 */
(PID.TID 0000.0001)                 1.823321598773926E+05,      /* J = 30 */
(PID.TID 0000.0001)                 1.534505834330338E+05,      /* J = 31 */
(PID.TID 0000.0001)                 1.009837800879055E+05       /* J = 32 */
(PID.TID 0000.0001)     ;
(PID.TID 0000.0001) dxC =  /* dxC(:,1,:,1) ( m - cartesian, degrees - spherical ) */
(PID.TID 0000.0001)                 1.114203141013064E+05,      /* I =  1 */
(PID.TID 0000.0001)                 1.391343389937106E+05,      /* I =  2 */
(PID.TID 0000.0001)                 1.709574999026266E+05,      /* I =  3 */
(PID.TID 0000.0001)                 1.946503699269892E+05,      /* I =  4 */
(PID.TID 0000.0001)                 2.135964483342134E+05,      /* I =  5 */
(PID.TID 0000.0001)                 2.294195678257306E+05,      /* I =  6 */
(PID.TID 0000.0001)                 2.429464709770498E+05,      /* I =  7 */
(PID.TID 0000.0001)                 2.546408290696998E+05,      /* I =  8 */
(PID.TID 0000.0001)                 2.647791839299727E+05,      /* I =  9 */
(PID.TID 0000.0001)                 2.735321911346108E+05,      /* I = 10 */
(PID.TID 0000.0001)                 2.810065951609633E+05,      /* I = 11 */
(PID.TID 0000.0001)                 2.872689479506990E+05,      /* I = 12 */
(PID.TID 0000.0001)                 2.923599955312932E+05,      /* I = 13 */
(PID.TID 0000.0001)                 2.963038832565530E+05,      /* I = 14 */
(PID.TID 0000.0001)                 2.991142470004740E+05,      /* I = 15 */
(PID.TID 0000.0001)                 3.007982711627968E+05,      /* I = 16 */
(PID.TID 0000.0001)                 3.013593857228136E+05,      /* I = 17 */
(PID.TID 0000.0001)                 3.007982711627968E+05,      /* I = 18 */
(PID.TID 0000.0001)                 2.991142470004740E+05,      /* I = 19 */
(PID.TID 0000.0001)                 2.963038832565530E+05,      /* I = 20 */
(PID.TID 0000.0001)                 2.923599955312932E+05,      /* I = 21 */
(PID.TID 0000.0001)                 2.872689479506990E+05,      /* I = 22 */
(PID.TID 0000.0001)                 2.810065951609633E+05,      /* I = 23 */
(PID.TID 0000.0001)                 2.735321911346108E+05,      /* I = 24 */
(PID.TID 0000.0001)                 2.647791839299727E+05,      /* I = 25 */
(PID.TID 0000.0001)                 2.546408290696998E+05,      /* I = 26 */
(PID.TID 0000.0001)                 2.429464709770498E+05,      /* I = 27 */
(PID.TID 0000.0001)                 2.294195678257306E+05,      /* I = 28 */
(PID.TID 0000.0001)                 2.135964483342134E+05,      /* I = 29 */
(PID.TID 0000.0001)                 1.946503699269892E+05,      /* I = 30 */
(PID.TID 0000.0001)                 1.709574999026266E+05,      /* I = 31 */
(PID.TID 0000.0001)                 1.391343389937106E+05,      /* I = 32 */
(PID.TID 0000.0001)                 1.114203141013064E+05,      /* I = 33 */
(PID.TID 0000.0001)                 1.391343389937106E+05,      /* I = 34 */
(PID.TID 0000.0001)                 1.709574999026266E+05,      /* I = 35 */
(PID.TID 0000.0001)                 1.946503699269892E+05,      /* I = 36 */
(PID.TID 0000.0001)                 2.135964483342134E+05,      /* I = 37 */
(PID.TID 0000.0001)                 2.294195678257306E+05,      /* I = 38 */
(PID.TID 0000.0001)                 2.429464709770498E+05,      /* I = 39 */
(PID.TID 0000.0001)                 2.546408290696998E+05,      /* I = 40 */
(PID.TID 0000.0001)                 2.647791839299727E+05,      /* I = 41 */
(PID.TID 0000.0001)                 2.735321911346108E+05,      /* I = 42 */
(PID.TID 0000.0001)                 2.810065951609633E+05,      /* I = 43 */
(PID.TID 0000.0001)                 2.872689479506990E+05,      /* I = 44 */
(PID.TID 0000.0001)                 2.923599955312932E+05,      /* I = 45 */
(PID.TID 0000.0001)                 2.963038832565530E+05,      /* I = 46 */
(PID.TID 0000.0001)                 2.991142470004740E+05,      /* I = 47 */
(PID.TID 0000.0001)                 3.007982711627968E+05,      /* I = 48 */
(PID.TID 0000.0001)                 3.013593857228136E+05,      /* I = 49 */
(PID.TID 0000.0001)                 3.007982711627968E+05,      /* I = 50 */
(PID.TID 0000.0001)                 2.991142470004740E+05,      /* I = 51 */
(PID.TID 0000.0001)                 2.963038832565530E+05,      /* I = 52 */
(PID.TID 0000.0001)                 2.923599955312932E+05,      /* I = 53 */
(PID.TID 0000.0001)                 2.872689479506990E+05,      /* I = 54 */
(PID.TID 0000.0001)                 2.810065951609633E+05,      /* I = 55 */
(PID.TID 0000.0001)                 2.735321911346108E+05,      /* I = 56 */
(PID.TID 0000.0001)                 2.647791839299727E+05,      /* I = 57 */
(PID.TID 0000.0001)                 2.546408290696998E+05,      /* I = 58 */
(PID.TID 0000.0001)                 2.429464709770498E+05,      /* I = 59 */
(PID.TID 0000.0001)                 2.294195678257306E+05,      /* I = 60 */
(PID.TID 0000.0001)                 2.135964483342134E+05,      /* I = 61 */
(PID.TID 0000.0001)                 1.946503699269892E+05,      /* I = 62 */
(PID.TID 0000.0001)                 1.709574999026266E+05,      /* I = 63 */
(PID.TID 0000.0001)                 1.391343389937106E+05,      /* I = 64 */
(PID.TID 0000.0001)                 1.114203141013064E+05,      /* I = 65 */
(PID.TID 0000.0001)                 1.391343389937106E+05,      /* I = 66 */
(PID.TID 0000.0001)                 1.709574999026266E+05,      /* I = 67 */
(PID.TID 0000.0001)                 1.946503699269892E+05,      /* I = 68 */
(PID.TID 0000.0001)                 2.135964483342134E+05,      /* I = 69 */
(PID.TID 0000.0001)                 2.294195678257306E+05,      /* I = 70 */
(PID.TID 0000.0001)                 2.429464709770498E+05,      /* I = 71 */
(PID.TID 0000.0001)                 2.546408290696998E+05,      /* I = 72 */
(PID.TID 0000.0001)                 2.647791839299727E+05,      /* I = 73 */
(PID.TID 0000.0001)                 2.735321911346108E+05,      /* I = 74 */
(PID.TID 0000.0001)                 2.810065951609633E+05,      /* I = 75 */
(PID.TID 0000.0001)                 2.872689479506990E+05,      /* I = 76 */
(PID.TID 0000.0001)                 2.923599955312932E+05,      /* I = 77 */
(PID.TID 0000.0001)                 2.963038832565530E+05,      /* I = 78 */
(PID.TID 0000.0001)                 2.991142470004740E+05,      /* I = 79 */
(PID.TID 0000.0001)                 3.007982711627968E+05,      /* I = 80 */
(PID.TID 0000.0001)                 3.013593857228136E+05,      /* I = 81 */
(PID.TID 0000.0001)                 3.007982711627968E+05,      /* I = 82 */
(PID.TID 0000.0001)                 2.991142470004740E+05,      /* I = 83 */
(PID.TID 0000.0001)                 2.963038832565530E+05,      /* I = 84 */
(PID.TID 0000.0001)                 2.923599955312932E+05,      /* I = 85 */
(PID.TID 0000.0001)                 2.872689479506990E+05,      /* I = 86 */
(PID.TID 0000.0001)                 2.810065951609633E+05,      /* I = 87 */
(PID.TID 0000.0001)                 2.735321911346108E+05,      /* I = 88 */
(PID.TID 0000.0001)                 2.647791839299727E+05,      /* I = 89 */
(PID.TID 0000.0001)                 2.546408290696998E+05,      /* I = 90 */
(PID.TID 0000.0001)                 2.429464709770498E+05,      /* I = 91 */
(PID.TID 0000.0001)                 2.294195678257306E+05,      /* I = 92 */
(PID.TID 0000.0001)                 2.135964483342134E+05,      /* I = 93 */
(PID.TID 0000.0001)                 1.946503699269892E+05,      /* I = 94 */
(PID.TID 0000.0001)                 1.709574999026266E+05,      /* I = 95 */
(PID.TID 0000.0001)                 1.391343389937106E+05,      /* I = 96 */
(PID.TID 0000.0001)                 1.114203141013064E+05,      /* I = 97 */
(PID.TID 0000.0001)                 1.391343389937106E+05,      /* I = 98 */
(PID.TID 0000.0001)                 1.709574999026266E+05,      /* I = 99 */
(PID.TID 0000.0001)                 1.946503699269892E+05,      /* I =100 */
(PID.TID 0000.0001)                 2.135964483342134E+05,      /* I =101 */
(PID.TID 0000.0001)                 2.294195678257306E+05,      /* I =102 */
(PID.TID 0000.0001)                 2.429464709770498E+05,      /* I =103 */
(PID.TID 0000.0001)                 2.546408290696998E+05,      /* I =104 */
(PID.TID 0000.0001)                 2.647791839299727E+05,      /* I =105 */
(PID.TID 0000.0001)                 2.735321911346108E+05,      /* I =106 */
(PID.TID 0000.0001)                 2.810065951609633E+05,      /* I =107 */
(PID.TID 0000.0001)                 2.872689479506990E+05,      /* I =108 */
(PID.TID 0000.0001)                 2.923599955312932E+05,      /* I =109 */
(PID.TID 0000.0001)                 2.963038832565530E+05,      /* I =110 */
(PID.TID 0000.0001)                 2.991142470004740E+05,      /* I =111 */
(PID.TID 0000.0001)                 3.007982711627968E+05,      /* I =112 */
(PID.TID 0000.0001)                 3.013593857228136E+05,      /* I =113 */
(PID.TID 0000.0001)                 3.007982711627968E+05,      /* I =114 */
(PID.TID 0000.0001)                 2.991142470004740E+05,      /* I =115 */
(PID.TID 0000.0001)                 2.963038832565530E+05,      /* I =116 */
(PID.TID 0000.0001)                 2.923599955312932E+05,      /* I =117 */
(PID.TID 0000.0001)                 2.872689479506990E+05,      /* I =118 */
(PID.TID 0000.0001)                 2.810065951609633E+05,      /* I =119 */
(PID.TID 0000.0001)                 2.735321911346108E+05,      /* I =120 */
(PID.TID 0000.0001)                 2.647791839299727E+05,      /* I =121 */
(PID.TID 0000.0001)                 2.546408290696998E+05,      /* I =122 */
(PID.TID 0000.0001)                 2.429464709770498E+05,      /* I =123 */
(PID.TID 0000.0001)                 2.294195678257306E+05,      /* I =124 */
(PID.TID 0000.0001)                 2.135964483342134E+05,      /* I =125 */
(PID.TID 0000.0001)                 1.946503699269892E+05,      /* I =126 */
(PID.TID 0000.0001)                 1.709574999026266E+05,      /* I =127 */
(PID.TID 0000.0001)                 1.391343389937106E+05,      /* I =128 */
(PID.TID 0000.0001)                 1.114203141013064E+05,      /* I =129 */
(PID.TID 0000.0001)                 1.391343389937106E+05,      /* I =130 */
(PID.TID 0000.0001)                 1.709574999026266E+05,      /* I =131 */
(PID.TID 0000.0001)                 1.946503699269892E+05,      /* I =132 */
(PID.TID 0000.0001)                 2.135964483342134E+05,      /* I =133 */
(PID.TID 0000.0001)                 2.294195678257306E+05,      /* I =134 */
(PID.TID 0000.0001)                 2.429464709770498E+05,      /* I =135 */
(PID.TID 0000.0001)                 2.546408290696998E+05,      /* I =136 */
(PID.TID 0000.0001)                 2.647791839299727E+05,      /* I =137 */
(PID.TID 0000.0001)                 2.735321911346108E+05,      /* I =138 */
(PID.TID 0000.0001)                 2.810065951609633E+05,      /* I =139 */
(PID.TID 0000.0001)                 2.872689479506990E+05,      /* I =140 */
(PID.TID 0000.0001)                 2.923599955312932E+05,      /* I =141 */
(PID.TID 0000.0001)                 2.963038832565530E+05,      /* I =142 */
(PID.TID 0000.0001)                 2.991142470004740E+05,      /* I =143 */
(PID.TID 0000.0001)                 3.007982711627968E+05,      /* I =144 */
(PID.TID 0000.0001)                 3.013593857228136E+05,      /* I =145 */
(PID.TID 0000.0001)                 3.007982711627968E+05,      /* I =146 */
(PID.TID 0000.0001)                 2.991142470004740E+05,      /* I =147 */
(PID.TID 0000.0001)                 2.963038832565530E+05,      /* I =148 */
(PID.TID 0000.0001)                 2.923599955312932E+05,      /* I =149 */
(PID.TID 0000.0001)                 2.872689479506990E+05,      /* I =150 */
(PID.TID 0000.0001)                 2.810065951609633E+05,      /* I =151 */
(PID.TID 0000.0001)                 2.735321911346108E+05,      /* I =152 */
(PID.TID 0000.0001)                 2.647791839299727E+05,      /* I =153 */
(PID.TID 0000.0001)                 2.546408290696998E+05,      /* I =154 */
(PID.TID 0000.0001)                 2.429464709770498E+05,      /* I =155 */
(PID.TID 0000.0001)                 2.294195678257306E+05,      /* I =156 */
(PID.TID 0000.0001)                 2.135964483342134E+05,      /* I =157 */
(PID.TID 0000.0001)                 1.946503699269892E+05,      /* I =158 */
(PID.TID 0000.0001)                 1.709574999026266E+05,      /* I =159 */
(PID.TID 0000.0001)                 1.391343389937106E+05,      /* I =160 */
(PID.TID 0000.0001)                 1.114203141013064E+05,      /* I =161 */
(PID.TID 0000.0001)                 1.391343389937106E+05,      /* I =162 */
(PID.TID 0000.0001)                 1.709574999026266E+05,      /* I =163 */
(PID.TID 0000.0001)                 1.946503699269892E+05,      /* I =164 */
(PID.TID 0000.0001)                 2.135964483342134E+05,      /* I =165 */
(PID.TID 0000.0001)                 2.294195678257306E+05,      /* I =166 */
(PID.TID 0000.0001)                 2.429464709770498E+05,      /* I =167 */
(PID.TID 0000.0001)                 2.546408290696998E+05,      /* I =168 */
(PID.TID 0000.0001)                 2.647791839299727E+05,      /* I =169 */
(PID.TID 0000.0001)                 2.735321911346108E+05,      /* I =170 */
(PID.TID 0000.0001)                 2.810065951609633E+05,      /* I =171 */
(PID.TID 0000.0001)                 2.872689479506990E+05,      /* I =172 */
(PID.TID 0000.0001)                 2.923599955312932E+05,      /* I =173 */
(PID.TID 0000.0001)                 2.963038832565530E+05,      /* I =174 */
(PID.TID 0000.0001)                 2.991142470004740E+05,      /* I =175 */
(PID.TID 0000.0001)                 3.007982711627968E+05,      /* I =176 */
(PID.TID 0000.0001)                 3.013593857228136E+05,      /* I =177 */
(PID.TID 0000.0001)                 3.007982711627968E+05,      /* I =178 */
(PID.TID 0000.0001)                 2.991142470004740E+05,      /* I =179 */
(PID.TID 0000.0001)                 2.963038832565530E+05,      /* I =180 */
(PID.TID 0000.0001)                 2.923599955312932E+05,      /* I =181 */
(PID.TID 0000.0001)                 2.872689479506990E+05,      /* I =182 */
(PID.TID 0000.0001)                 2.810065951609633E+05,      /* I =183 */
(PID.TID 0000.0001)                 2.735321911346108E+05,      /* I =184 */
(PID.TID 0000.0001)                 2.647791839299727E+05,      /* I =185 */
(PID.TID 0000.0001)                 2.546408290696998E+05,      /* I =186 */
(PID.TID 0000.0001)                 2.429464709770498E+05,      /* I =187 */
(PID.TID 0000.0001)                 2.294195678257306E+05,      /* I =188 */
(PID.TID 0000.0001)                 2.135964483342134E+05,      /* I =189 */
(PID.TID 0000.0001)                 1.946503699269892E+05,      /* I =190 */
(PID.TID 0000.0001)                 1.709574999026266E+05,      /* I =191 */
(PID.TID 0000.0001)                 1.391343389937106E+05       /* I =192 */
(PID.TID 0000.0001)     ;
(PID.TID 0000.0001) dxC =  /* dxC(1,:,1,:) ( m - cartesian, degrees - spherical ) */
(PID.TID 0000.0001)                 1.114203141013064E+05,      /* J =  1 */
(PID.TID 0000.0001)                 1.549545757850771E+05,      /* J =  2 */
(PID.TID 0000.0001)                 1.829777599966776E+05,      /* J =  3 */
(PID.TID 0000.0001)                 2.042717761866506E+05,      /* J =  4 */
(PID.TID 0000.0001)                 2.216367828252819E+05,      /* J =  5 */
(PID.TID 0000.0001)                 2.363029564123586E+05,      /* J =  6 */
(PID.TID 0000.0001)                 2.489113743322025E+05,      /* J =  7 */
(PID.TID 0000.0001)                 2.598293319150326E+05,      /* J =  8 */
(PID.TID 0000.0001)                 2.692787333338535E+05,      /* J =  9 */
(PID.TID 0000.0001)                 2.773972106720365E+05,      /* J = 10 */
(PID.TID 0000.0001)                 2.842706922224557E+05,      /* J = 11 */
(PID.TID 0000.0001)                 2.899523122489403E+05,      /* J = 12 */
(PID.TID 0000.0001)                 2.944741346384699E+05,      /* J = 13 */
(PID.TID 0000.0001)                 2.978547649292580E+05,      /* J = 14 */
(PID.TID 0000.0001)                 3.001044073506459E+05,      /* J = 15 */
(PID.TID 0000.0001)     2 @  3.012281885409289E+05,             /* J = 16: 17 */
(PID.TID 0000.0001)                 3.001044073506459E+05,      /* J = 18 */
(PID.TID 0000.0001)                 2.978547649292580E+05,      /* J = 19 */
(PID.TID 0000.0001)                 2.944741346384699E+05,      /* J = 20 */
(PID.TID 0000.0001)                 2.899523122489403E+05,      /* J = 21 */
(PID.TID 0000.0001)                 2.842706922224557E+05,      /* J = 22 */
(PID.TID 0000.0001)                 2.773972106720365E+05,      /* J = 23 */
(PID.TID 0000.0001)                 2.692787333338535E+05,      /* J = 24 */
(PID.TID 0000.0001)                 2.598293319150326E+05,      /* J = 25 */
(PID.TID 0000.0001)                 2.489113743322025E+05,      /* J = 26 */
(PID.TID 0000.0001)                 2.363029564123586E+05,      /* J = 27 */
(PID.TID 0000.0001)                 2.216367828252819E+05,      /* J = 28 */
(PID.TID 0000.0001)                 2.042717761866506E+05,      /* J = 29 */
(PID.TID 0000.0001)                 1.829777599966776E+05,      /* J = 30 */
(PID.TID 0000.0001)                 1.549545757850771E+05,      /* J = 31 */
(PID.TID 0000.0001)                 1.114203141013064E+05       /* J = 32 */
(PID.TID 0000.0001)     ;
(PID.TID 0000.0001) dyC =  /* dyC(:,1,:,1) ( m - cartesian, degrees - spherical ) */
(PID.TID 0000.0001)                 1.114203141013064E+05,      /* I =  1 */
(PID.TID 0000.0001)                 1.549545757850771E+05,      /* I =  2 */
(PID.TID 0000.0001)                 1.829777599966776E+05,      /* I =  3 */
(PID.TID 0000.0001)                 2.042717761866506E+05,      /* I =  4 */
(PID.TID 0000.0001)                 2.216367828252819E+05,      /* I =  5 */
(PID.TID 0000.0001)                 2.363029564123586E+05,      /* I =  6 */
(PID.TID 0000.0001)                 2.489113743322025E+05,      /* I =  7 */
(PID.TID 0000.0001)                 2.598293319150326E+05,      /* I =  8 */
(PID.TID 0000.0001)                 2.692787333338535E+05,      /* I =  9 */
(PID.TID 0000.0001)                 2.773972106720365E+05,      /* I = 10 */
(PID.TID 0000.0001)                 2.842706922224557E+05,      /* I = 11 */
(PID.TID 0000.0001)                 2.899523122489403E+05,      /* I = 12 */
(PID.TID 0000.0001)                 2.944741346384699E+05,      /* I = 13 */
(PID.TID 0000.0001)                 2.978547649292580E+05,      /* I = 14 */
(PID.TID 0000.0001)                 3.001044073506459E+05,      /* I = 15 */
(PID.TID 0000.0001)     2 @  3.012281885409289E+05,             /* I = 16: 17 */
(PID.TID 0000.0001)                 3.001044073506459E+05,      /* I = 18 */
(PID.TID 0000.0001)                 2.978547649292580E+05,      /* I = 19 */
(PID.TID 0000.0001)                 2.944741346384699E+05,      /* I = 20 */
(PID.TID 0000.0001)                 2.899523122489403E+05,      /* I = 21 */
(PID.TID 0000.0001)                 2.842706922224557E+05,      /* I = 22 */
(PID.TID 0000.0001)                 2.773972106720365E+05,      /* I = 23 */
(PID.TID 0000.0001)                 2.692787333338535E+05,      /* I = 24 */
(PID.TID 0000.0001)                 2.598293319150326E+05,      /* I = 25 */
(PID.TID 0000.0001)                 2.489113743322025E+05,      /* I = 26 */
(PID.TID 0000.0001)                 2.363029564123586E+05,      /* I = 27 */
(PID.TID 0000.0001)                 2.216367828252819E+05,      /* I = 28 */
(PID.TID 0000.0001)                 2.042717761866506E+05,      /* I = 29 */
(PID.TID 0000.0001)                 1.829777599966776E+05,      /* I = 30 */
(PID.TID 0000.0001)                 1.549545757850771E+05,      /* I = 31 */
(PID.TID 0000.0001)     2 @  1.114203141013064E+05,             /* I = 32: 33 */
(PID.TID 0000.0001)                 1.549545757850771E+05,      /* I = 34 */
(PID.TID 0000.0001)                 1.829777599966776E+05,      /* I = 35 */
(PID.TID 0000.0001)                 2.042717761866506E+05,      /* I = 36 */
(PID.TID 0000.0001)                 2.216367828252819E+05,      /* I = 37 */
(PID.TID 0000.0001)                 2.363029564123586E+05,      /* I = 38 */
(PID.TID 0000.0001)                 2.489113743322025E+05,      /* I = 39 */
(PID.TID 0000.0001)                 2.598293319150326E+05,      /* I = 40 */
(PID.TID 0000.0001)                 2.692787333338535E+05,      /* I = 41 */
(PID.TID 0000.0001)                 2.773972106720365E+05,      /* I = 42 */
(PID.TID 0000.0001)                 2.842706922224557E+05,      /* I = 43 */
(PID.TID 0000.0001)                 2.899523122489403E+05,      /* I = 44 */
(PID.TID 0000.0001)                 2.944741346384699E+05,      /* I = 45 */
(PID.TID 0000.0001)                 2.978547649292580E+05,      /* I = 46 */
(PID.TID 0000.0001)                 3.001044073506459E+05,      /* I = 47 */
(PID.TID 0000.0001)     2 @  3.012281885409289E+05,             /* I = 48: 49 */
(PID.TID 0000.0001)                 3.001044073506459E+05,      /* I = 50 */
(PID.TID 0000.0001)                 2.978547649292580E+05,      /* I = 51 */
(PID.TID 0000.0001)                 2.944741346384699E+05,      /* I = 52 */
(PID.TID 0000.0001)                 2.899523122489403E+05,      /* I = 53 */
(PID.TID 0000.0001)                 2.842706922224557E+05,      /* I = 54 */
(PID.TID 0000.0001)                 2.773972106720365E+05,      /* I = 55 */
(PID.TID 0000.0001)                 2.692787333338535E+05,      /* I = 56 */
(PID.TID 0000.0001)                 2.598293319150326E+05,      /* I = 57 */
(PID.TID 0000.0001)                 2.489113743322025E+05,      /* I = 58 */
(PID.TID 0000.0001)                 2.363029564123586E+05,      /* I = 59 */
(PID.TID 0000.0001)                 2.216367828252819E+05,      /* I = 60 */
(PID.TID 0000.0001)                 2.042717761866506E+05,      /* I = 61 */
(PID.TID 0000.0001)                 1.829777599966776E+05,      /* I = 62 */
(PID.TID 0000.0001)                 1.549545757850771E+05,      /* I = 63 */
(PID.TID 0000.0001)     2 @  1.114203141013064E+05,             /* I = 64: 65 */
(PID.TID 0000.0001)                 1.549545757850771E+05,      /* I = 66 */
(PID.TID 0000.0001)                 1.829777599966776E+05,      /* I = 67 */
(PID.TID 0000.0001)                 2.042717761866506E+05,      /* I = 68 */
(PID.TID 0000.0001)                 2.216367828252819E+05,      /* I = 69 */
(PID.TID 0000.0001)                 2.363029564123586E+05,      /* I = 70 */
(PID.TID 0000.0001)                 2.489113743322025E+05,      /* I = 71 */
(PID.TID 0000.0001)                 2.598293319150326E+05,      /* I = 72 */
(PID.TID 0000.0001)                 2.692787333338535E+05,      /* I = 73 */
(PID.TID 0000.0001)                 2.773972106720365E+05,      /* I = 74 */
(PID.TID 0000.0001)                 2.842706922224557E+05,      /* I = 75 */
(PID.TID 0000.0001)                 2.899523122489403E+05,      /* I = 76 */
(PID.TID 0000.0001)                 2.944741346384699E+05,      /* I = 77 */
(PID.TID 0000.0001)                 2.978547649292580E+05,      /* I = 78 */
(PID.TID 0000.0001)                 3.001044073506459E+05,      /* I = 79 */
(PID.TID 0000.0001)     2 @  3.012281885409289E+05,             /* I = 80: 81 */
(PID.TID 0000.0001)                 3.001044073506459E+05,      /* I = 82 */
(PID.TID 0000.0001)                 2.978547649292580E+05,      /* I = 83 */
(PID.TID 0000.0001)                 2.944741346384699E+05,      /* I = 84 */
(PID.TID 0000.0001)                 2.899523122489403E+05,      /* I = 85 */
(PID.TID 0000.0001)                 2.842706922224557E+05,      /* I = 86 */
(PID.TID 0000.0001)                 2.773972106720365E+05,      /* I = 87 */
(PID.TID 0000.0001)                 2.692787333338535E+05,      /* I = 88 */
(PID.TID 0000.0001)                 2.598293319150326E+05,      /* I = 89 */
(PID.TID 0000.0001)                 2.489113743322025E+05,      /* I = 90 */
(PID.TID 0000.0001)                 2.363029564123586E+05,      /* I = 91 */
(PID.TID 0000.0001)                 2.216367828252819E+05,      /* I = 92 */
(PID.TID 0000.0001)                 2.042717761866506E+05,      /* I = 93 */
(PID.TID 0000.0001)                 1.829777599966776E+05,      /* I = 94 */
(PID.TID 0000.0001)                 1.549545757850771E+05,      /* I = 95 */
(PID.TID 0000.0001)     2 @  1.114203141013064E+05,             /* I = 96: 97 */
(PID.TID 0000.0001)                 1.549545757850771E+05,      /* I = 98 */
(PID.TID 0000.0001)                 1.829777599966776E+05,      /* I = 99 */
(PID.TID 0000.0001)                 2.042717761866506E+05,      /* I =100 */
(PID.TID 0000.0001)                 2.216367828252819E+05,      /* I =101 */
(PID.TID 0000.0001)                 2.363029564123586E+05,      /* I =102 */
(PID.TID 0000.0001)                 2.489113743322025E+05,      /* I =103 */
(PID.TID 0000.0001)                 2.598293319150326E+05,      /* I =104 */
(PID.TID 0000.0001)                 2.692787333338535E+05,      /* I =105 */
(PID.TID 0000.0001)                 2.773972106720365E+05,      /* I =106 */
(PID.TID 0000.0001)                 2.842706922224557E+05,      /* I =107 */
(PID.TID 0000.0001)                 2.899523122489403E+05,      /* I =108 */
(PID.TID 0000.0001)                 2.944741346384699E+05,      /* I =109 */
(PID.TID 0000.0001)                 2.978547649292580E+05,      /* I =110 */
(PID.TID 0000.0001)                 3.001044073506459E+05,      /* I =111 */
(PID.TID 0000.0001)     2 @  3.012281885409289E+05,             /* I =112:113 */
(PID.TID 0000.0001)                 3.001044073506459E+05,      /* I =114 */
(PID.TID 0000.0001)                 2.978547649292580E+05,      /* I =115 */
(PID.TID 0000.0001)                 2.944741346384699E+05,      /* I =116 */
(PID.TID 0000.0001)                 2.899523122489403E+05,      /* I =117 */
(PID.TID 0000.0001)                 2.842706922224557E+05,      /* I =118 */
(PID.TID 0000.0001)                 2.773972106720365E+05,      /* I =119 */
(PID.TID 0000.0001)                 2.692787333338535E+05,      /* I =120 */
(PID.TID 0000.0001)                 2.598293319150326E+05,      /* I =121 */
(PID.TID 0000.0001)                 2.489113743322025E+05,      /* I =122 */
(PID.TID 0000.0001)                 2.363029564123586E+05,      /* I =123 */
(PID.TID 0000.0001)                 2.216367828252819E+05,      /* I =124 */
(PID.TID 0000.0001)                 2.042717761866506E+05,      /* I =125 */
(PID.TID 0000.0001)                 1.829777599966776E+05,      /* I =126 */
(PID.TID 0000.0001)                 1.549545757850771E+05,      /* I =127 */
(PID.TID 0000.0001)     2 @  1.114203141013064E+05,             /* I =128:129 */
(PID.TID 0000.0001)                 1.549545757850771E+05,      /* I =130 */
(PID.TID 0000.0001)                 1.829777599966776E+05,      /* I =131 */
(PID.TID 0000.0001)                 2.042717761866506E+05,      /* I =132 */
(PID.TID 0000.0001)                 2.216367828252819E+05,      /* I =133 */
(PID.TID 0000.0001)                 2.363029564123586E+05,      /* I =134 */
(PID.TID 0000.0001)                 2.489113743322025E+05,      /* I =135 */
(PID.TID 0000.0001)                 2.598293319150326E+05,      /* I =136 */
(PID.TID 0000.0001)                 2.692787333338535E+05,      /* I =137 */
(PID.TID 0000.0001)                 2.773972106720365E+05,      /* I =138 */
(PID.TID 0000.0001)                 2.842706922224557E+05,      /* I =139 */
(PID.TID 0000.0001)                 2.899523122489403E+05,      /* I =140 */
(PID.TID 0000.0001)                 2.944741346384699E+05,      /* I =141 */
(PID.TID 0000.0001)                 2.978547649292580E+05,      /* I =142 */
(PID.TID 0000.0001)                 3.001044073506459E+05,      /* I =143 */
(PID.TID 0000.0001)     2 @  3.012281885409289E+05,             /* I =144:145 */
(PID.TID 0000.0001)                 3.001044073506459E+05,      /* I =146 */
(PID.TID 0000.0001)                 2.978547649292580E+05,      /* I =147 */
(PID.TID 0000.0001)                 2.944741346384699E+05,      /* I =148 */
(PID.TID 0000.0001)                 2.899523122489403E+05,      /* I =149 */
(PID.TID 0000.0001)                 2.842706922224557E+05,      /* I =150 */
(PID.TID 0000.0001)                 2.773972106720365E+05,      /* I =151 */
(PID.TID 0000.0001)                 2.692787333338535E+05,      /* I =152 */
(PID.TID 0000.0001)                 2.598293319150326E+05,      /* I =153 */
(PID.TID 0000.0001)                 2.489113743322025E+05,      /* I =154 */
(PID.TID 0000.0001)                 2.363029564123586E+05,      /* I =155 */
(PID.TID 0000.0001)                 2.216367828252819E+05,      /* I =156 */
(PID.TID 0000.0001)                 2.042717761866506E+05,      /* I =157 */
(PID.TID 0000.0001)                 1.829777599966776E+05,      /* I =158 */
(PID.TID 0000.0001)                 1.549545757850771E+05,      /* I =159 */
(PID.TID 0000.0001)     2 @  1.114203141013064E+05,             /* I =160:161 */
(PID.TID 0000.0001)                 1.549545757850771E+05,      /* I =162 */
(PID.TID 0000.0001)                 1.829777599966776E+05,      /* I =163 */
(PID.TID 0000.0001)                 2.042717761866506E+05,      /* I =164 */
(PID.TID 0000.0001)                 2.216367828252819E+05,      /* I =165 */
(PID.TID 0000.0001)                 2.363029564123586E+05,      /* I =166 */
(PID.TID 0000.0001)                 2.489113743322025E+05,      /* I =167 */
(PID.TID 0000.0001)                 2.598293319150326E+05,      /* I =168 */
(PID.TID 0000.0001)                 2.692787333338535E+05,      /* I =169 */
(PID.TID 0000.0001)                 2.773972106720365E+05,      /* I =170 */
(PID.TID 0000.0001)                 2.842706922224557E+05,      /* I =171 */
(PID.TID 0000.0001)                 2.899523122489403E+05,      /* I =172 */
(PID.TID 0000.0001)                 2.944741346384699E+05,      /* I =173 */
(PID.TID 0000.0001)                 2.978547649292580E+05,      /* I =174 */
(PID.TID 0000.0001)                 3.001044073506459E+05,      /* I =175 */
(PID.TID 0000.0001)     2 @  3.012281885409289E+05,             /* I =176:177 */
(PID.TID 0000.0001)                 3.001044073506459E+05,      /* I =178 */
(PID.TID 0000.0001)                 2.978547649292580E+05,      /* I =179 */
(PID.TID 0000.0001)                 2.944741346384699E+05,      /* I =180 */
(PID.TID 0000.0001)                 2.899523122489403E+05,      /* I =181 */
(PID.TID 0000.0001)                 2.842706922224557E+05,      /* I =182 */
(PID.TID 0000.0001)                 2.773972106720365E+05,      /* I =183 */
(PID.TID 0000.0001)                 2.692787333338535E+05,      /* I =184 */
(PID.TID 0000.0001)                 2.598293319150326E+05,      /* I =185 */
(PID.TID 0000.0001)                 2.489113743322025E+05,      /* I =186 */
(PID.TID 0000.0001)                 2.363029564123586E+05,      /* I =187 */
(PID.TID 0000.0001)                 2.216367828252819E+05,      /* I =188 */
(PID.TID 0000.0001)                 2.042717761866506E+05,      /* I =189 */
(PID.TID 0000.0001)                 1.829777599966776E+05,      /* I =190 */
(PID.TID 0000.0001)                 1.549545757850771E+05,      /* I =191 */
(PID.TID 0000.0001)                 1.114203141013064E+05       /* I =192 */
(PID.TID 0000.0001)     ;
(PID.TID 0000.0001) dyC =  /* dyC(1,:,1,:) ( m - cartesian, degrees - spherical ) */
(PID.TID 0000.0001)                 1.114203141013064E+05,      /* J =  1 */
(PID.TID 0000.0001)                 1.391343389937106E+05,      /* J =  2 */
(PID.TID 0000.0001)                 1.709574999026266E+05,      /* J =  3 */
(PID.TID 0000.0001)                 1.946503699269892E+05,      /* J =  4 */
(PID.TID 0000.0001)                 2.135964483342134E+05,      /* J =  5 */
(PID.TID 0000.0001)                 2.294195678257306E+05,      /* J =  6 */
(PID.TID 0000.0001)                 2.429464709770498E+05,      /* J =  7 */
(PID.TID 0000.0001)                 2.546408290696998E+05,      /* J =  8 */
(PID.TID 0000.0001)                 2.647791839299727E+05,      /* J =  9 */
(PID.TID 0000.0001)                 2.735321911346108E+05,      /* J = 10 */
(PID.TID 0000.0001)                 2.810065951609633E+05,      /* J = 11 */
(PID.TID 0000.0001)                 2.872689479506990E+05,      /* J = 12 */
(PID.TID 0000.0001)                 2.923599955312932E+05,      /* J = 13 */
(PID.TID 0000.0001)                 2.963038832565530E+05,      /* J = 14 */
(PID.TID 0000.0001)                 2.991142470004740E+05,      /* J = 15 */
(PID.TID 0000.0001)                 3.007982711627968E+05,      /* J = 16 */
(PID.TID 0000.0001)                 3.013593857228136E+05,      /* J = 17 */
(PID.TID 0000.0001)                 3.007982711627968E+05,      /* J = 18 */
(PID.TID 0000.0001)                 2.991142470004740E+05,      /* J = 19 */
(PID.TID 0000.0001)                 2.963038832565530E+05,      /* J = 20 */
(PID.TID 0000.0001)                 2.923599955312932E+05,      /* J = 21 */
(PID.TID 0000.0001)                 2.872689479506990E+05,      /* J = 22 */
(PID.TID 0000.0001)                 2.810065951609633E+05,      /* J = 23 */
(PID.TID 0000.0001)                 2.735321911346108E+05,      /* J = 24 */
(PID.TID 0000.0001)                 2.647791839299727E+05,      /* J = 25 */
(PID.TID 0000.0001)                 2.546408290696998E+05,      /* J = 26 */
(PID.TID 0000.0001)                 2.429464709770498E+05,      /* J = 27 */
(PID.TID 0000.0001)                 2.294195678257306E+05,      /* J = 28 */
(PID.TID 0000.0001)                 2.135964483342134E+05,      /* J = 29 */
(PID.TID 0000.0001)                 1.946503699269892E+05,      /* J = 30 */
(PID.TID 0000.0001)                 1.709574999026266E+05,      /* J = 31 */
(PID.TID 0000.0001)                 1.391343389937106E+05       /* J = 32 */
(PID.TID 0000.0001)     ;
(PID.TID 0000.0001) dxV =  /* dxV(:,1,:,1) ( m - cartesian, degrees - spherical ) */
(PID.TID 0000.0001)                 8.015229982413632E+04,      /* I =  1 */
(PID.TID 0000.0001)                 1.333130744933864E+05,      /* I =  2 */
(PID.TID 0000.0001)                 1.691744868129062E+05,      /* I =  3 */
(PID.TID 0000.0001)                 1.937548202849060E+05,      /* I =  4 */
(PID.TID 0000.0001)                 2.130490056267208E+05,      /* I =  5 */
(PID.TID 0000.0001)                 2.290479919481738E+05,      /* I =  6 */
(PID.TID 0000.0001)                 2.426774358027003E+05,      /* I =  7 */
(PID.TID 0000.0001)                 2.544372984215561E+05,      /* I =  8 */
(PID.TID 0000.0001)                 2.646201463834826E+05,      /* I =  9 */
(PID.TID 0000.0001)                 2.734046499619031E+05,      /* I = 10 */
(PID.TID 0000.0001)                 2.809019351693761E+05,      /* I = 11 */
(PID.TID 0000.0001)                 2.871811105274442E+05,      /* I = 12 */
(PID.TID 0000.0001)                 2.922844849381675E+05,      /* I = 13 */
(PID.TID 0000.0001)                 2.962371870847826E+05,      /* I = 14 */
(PID.TID 0000.0001)                 2.990534755671296E+05,      /* I = 15 */
(PID.TID 0000.0001)                 3.007409169495504E+05,      /* I = 16 */
(PID.TID 0000.0001)                 3.013031486919771E+05,      /* I = 17 */
(PID.TID 0000.0001)                 3.007409169495504E+05,      /* I = 18 */
(PID.TID 0000.0001)                 2.990534755671296E+05,      /* I = 19 */
(PID.TID 0000.0001)                 2.962371870847826E+05,      /* I = 20 */
(PID.TID 0000.0001)                 2.922844849381675E+05,      /* I = 21 */
(PID.TID 0000.0001)                 2.871811105274442E+05,      /* I = 22 */
(PID.TID 0000.0001)                 2.809019351693761E+05,      /* I = 23 */
(PID.TID 0000.0001)                 2.734046499619031E+05,      /* I = 24 */
(PID.TID 0000.0001)                 2.646201463834826E+05,      /* I = 25 */
(PID.TID 0000.0001)                 2.544372984215561E+05,      /* I = 26 */
(PID.TID 0000.0001)                 2.426774358027003E+05,      /* I = 27 */
(PID.TID 0000.0001)                 2.290479919481738E+05,      /* I = 28 */
(PID.TID 0000.0001)                 2.130490056267208E+05,      /* I = 29 */
(PID.TID 0000.0001)                 1.937548202849060E+05,      /* I = 30 */
(PID.TID 0000.0001)                 1.691744868129062E+05,      /* I = 31 */
(PID.TID 0000.0001)                 1.333130744933864E+05,      /* I = 32 */
(PID.TID 0000.0001)                 8.015229982413632E+04,      /* I = 33 */
(PID.TID 0000.0001)                 1.333130744933864E+05,      /* I = 34 */
(PID.TID 0000.0001)                 1.691744868129062E+05,      /* I = 35 */
(PID.TID 0000.0001)                 1.937548202849060E+05,      /* I = 36 */
(PID.TID 0000.0001)                 2.130490056267208E+05,      /* I = 37 */
(PID.TID 0000.0001)                 2.290479919481738E+05,      /* I = 38 */
(PID.TID 0000.0001)                 2.426774358027003E+05,      /* I = 39 */
(PID.TID 0000.0001)                 2.544372984215561E+05,      /* I = 40 */
(PID.TID 0000.0001)                 2.646201463834826E+05,      /* I = 41 */
(PID.TID 0000.0001)                 2.734046499619031E+05,      /* I = 42 */
(PID.TID 0000.0001)                 2.809019351693761E+05,      /* I = 43 */
(PID.TID 0000.0001)                 2.871811105274442E+05,      /* I = 44 */
(PID.TID 0000.0001)                 2.922844849381675E+05,      /* I = 45 */
(PID.TID 0000.0001)                 2.962371870847826E+05,      /* I = 46 */
(PID.TID 0000.0001)                 2.990534755671296E+05,      /* I = 47 */
(PID.TID 0000.0001)                 3.007409169495504E+05,      /* I = 48 */
(PID.TID 0000.0001)                 3.013031486919771E+05,      /* I = 49 */
(PID.TID 0000.0001)                 3.007409169495504E+05,      /* I = 50 */
(PID.TID 0000.0001)                 2.990534755671296E+05,      /* I = 51 */
(PID.TID 0000.0001)                 2.962371870847826E+05,      /* I = 52 */
(PID.TID 0000.0001)                 2.922844849381675E+05,      /* I = 53 */
(PID.TID 0000.0001)                 2.871811105274442E+05,      /* I = 54 */
(PID.TID 0000.0001)                 2.809019351693761E+05,      /* I = 55 */
(PID.TID 0000.0001)                 2.734046499619031E+05,      /* I = 56 */
(PID.TID 0000.0001)                 2.646201463834826E+05,      /* I = 57 */
(PID.TID 0000.0001)                 2.544372984215561E+05,      /* I = 58 */
(PID.TID 0000.0001)                 2.426774358027003E+05,      /* I = 59 */
(PID.TID 0000.0001)                 2.290479919481738E+05,      /* I = 60 */
(PID.TID 0000.0001)                 2.130490056267208E+05,      /* I = 61 */
(PID.TID 0000.0001)                 1.937548202849060E+05,      /* I = 62 */
(PID.TID 0000.0001)                 1.691744868129062E+05,      /* I = 63 */
(PID.TID 0000.0001)                 1.333130744933864E+05,      /* I = 64 */
(PID.TID 0000.0001)                 8.015229982413632E+04,      /* I = 65 */
(PID.TID 0000.0001)                 1.333130744933864E+05,      /* I = 66 */
(PID.TID 0000.0001)                 1.691744868129062E+05,      /* I = 67 */
(PID.TID 0000.0001)                 1.937548202849060E+05,      /* I = 68 */
(PID.TID 0000.0001)                 2.130490056267208E+05,      /* I = 69 */
(PID.TID 0000.0001)                 2.290479919481738E+05,      /* I = 70 */
(PID.TID 0000.0001)                 2.426774358027003E+05,      /* I = 71 */
(PID.TID 0000.0001)                 2.544372984215561E+05,      /* I = 72 */
(PID.TID 0000.0001)                 2.646201463834826E+05,      /* I = 73 */
(PID.TID 0000.0001)                 2.734046499619031E+05,      /* I = 74 */
(PID.TID 0000.0001)                 2.809019351693761E+05,      /* I = 75 */
(PID.TID 0000.0001)                 2.871811105274442E+05,      /* I = 76 */
(PID.TID 0000.0001)                 2.922844849381675E+05,      /* I = 77 */
(PID.TID 0000.0001)                 2.962371870847826E+05,      /* I = 78 */
(PID.TID 0000.0001)                 2.990534755671296E+05,      /* I = 79 */
(PID.TID 0000.0001)                 3.007409169495504E+05,      /* I = 80 */
(PID.TID 0000.0001)                 3.013031486919771E+05,      /* I = 81 */
(PID.TID 0000.0001)                 3.007409169495504E+05,      /* I = 82 */
(PID.TID 0000.0001)                 2.990534755671296E+05,      /* I = 83 */
(PID.TID 0000.0001)                 2.962371870847826E+05,      /* I = 84 */
(PID.TID 0000.0001)                 2.922844849381675E+05,      /* I = 85 */
(PID.TID 0000.0001)                 2.871811105274442E+05,      /* I = 86 */
(PID.TID 0000.0001)                 2.809019351693761E+05,      /* I = 87 */
(PID.TID 0000.0001)                 2.734046499619031E+05,      /* I = 88 */
(PID.TID 0000.0001)                 2.646201463834826E+05,      /* I = 89 */
(PID.TID 0000.0001)                 2.544372984215561E+05,      /* I = 90 */
(PID.TID 0000.0001)                 2.426774358027003E+05,      /* I = 91 */
(PID.TID 0000.0001)                 2.290479919481738E+05,      /* I = 92 */
(PID.TID 0000.0001)                 2.130490056267208E+05,      /* I = 93 */
(PID.TID 0000.0001)                 1.937548202849060E+05,      /* I = 94 */
(PID.TID 0000.0001)                 1.691744868129062E+05,      /* I = 95 */
(PID.TID 0000.0001)                 1.333130744933864E+05,      /* I = 96 */
(PID.TID 0000.0001)                 8.015229982413632E+04,      /* I = 97 */
(PID.TID 0000.0001)                 1.333130744933864E+05,      /* I = 98 */
(PID.TID 0000.0001)                 1.691744868129062E+05,      /* I = 99 */
(PID.TID 0000.0001)                 1.937548202849060E+05,      /* I =100 */
(PID.TID 0000.0001)                 2.130490056267208E+05,      /* I =101 */
(PID.TID 0000.0001)                 2.290479919481738E+05,      /* I =102 */
(PID.TID 0000.0001)                 2.426774358027003E+05,      /* I =103 */
(PID.TID 0000.0001)                 2.544372984215561E+05,      /* I =104 */
(PID.TID 0000.0001)                 2.646201463834826E+05,      /* I =105 */
(PID.TID 0000.0001)                 2.734046499619031E+05,      /* I =106 */
(PID.TID 0000.0001)                 2.809019351693761E+05,      /* I =107 */
(PID.TID 0000.0001)                 2.871811105274442E+05,      /* I =108 */
(PID.TID 0000.0001)                 2.922844849381675E+05,      /* I =109 */
(PID.TID 0000.0001)                 2.962371870847826E+05,      /* I =110 */
(PID.TID 0000.0001)                 2.990534755671296E+05,      /* I =111 */
(PID.TID 0000.0001)                 3.007409169495504E+05,      /* I =112 */
(PID.TID 0000.0001)                 3.013031486919771E+05,      /* I =113 */
(PID.TID 0000.0001)                 3.007409169495504E+05,      /* I =114 */
(PID.TID 0000.0001)                 2.990534755671296E+05,      /* I =115 */
(PID.TID 0000.0001)                 2.962371870847826E+05,      /* I =116 */
(PID.TID 0000.0001)                 2.922844849381675E+05,      /* I =117 */
(PID.TID 0000.0001)                 2.871811105274442E+05,      /* I =118 */
(PID.TID 0000.0001)                 2.809019351693761E+05,      /* I =119 */
(PID.TID 0000.0001)                 2.734046499619031E+05,      /* I =120 */
(PID.TID 0000.0001)                 2.646201463834826E+05,      /* I =121 */
(PID.TID 0000.0001)                 2.544372984215561E+05,      /* I =122 */
(PID.TID 0000.0001)                 2.426774358027003E+05,      /* I =123 */
(PID.TID 0000.0001)                 2.290479919481738E+05,      /* I =124 */
(PID.TID 0000.0001)                 2.130490056267208E+05,      /* I =125 */
(PID.TID 0000.0001)                 1.937548202849060E+05,      /* I =126 */
(PID.TID 0000.0001)                 1.691744868129062E+05,      /* I =127 */
(PID.TID 0000.0001)                 1.333130744933864E+05,      /* I =128 */
(PID.TID 0000.0001)                 8.015229982413632E+04,      /* I =129 */
(PID.TID 0000.0001)                 1.333130744933864E+05,      /* I =130 */
(PID.TID 0000.0001)                 1.691744868129062E+05,      /* I =131 */
(PID.TID 0000.0001)                 1.937548202849060E+05,      /* I =132 */
(PID.TID 0000.0001)                 2.130490056267208E+05,      /* I =133 */
(PID.TID 0000.0001)                 2.290479919481738E+05,      /* I =134 */
(PID.TID 0000.0001)                 2.426774358027003E+05,      /* I =135 */
(PID.TID 0000.0001)                 2.544372984215561E+05,      /* I =136 */
(PID.TID 0000.0001)                 2.646201463834826E+05,      /* I =137 */
(PID.TID 0000.0001)                 2.734046499619031E+05,      /* I =138 */
(PID.TID 0000.0001)                 2.809019351693761E+05,      /* I =139 */
(PID.TID 0000.0001)                 2.871811105274442E+05,      /* I =140 */
(PID.TID 0000.0001)                 2.922844849381675E+05,      /* I =141 */
(PID.TID 0000.0001)                 2.962371870847826E+05,      /* I =142 */
(PID.TID 0000.0001)                 2.990534755671296E+05,      /* I =143 */
(PID.TID 0000.0001)                 3.007409169495504E+05,      /* I =144 */
(PID.TID 0000.0001)                 3.013031486919771E+05,      /* I =145 */
(PID.TID 0000.0001)                 3.007409169495504E+05,      /* I =146 */
(PID.TID 0000.0001)                 2.990534755671296E+05,      /* I =147 */
(PID.TID 0000.0001)                 2.962371870847826E+05,      /* I =148 */
(PID.TID 0000.0001)                 2.922844849381675E+05,      /* I =149 */
(PID.TID 0000.0001)                 2.871811105274442E+05,      /* I =150 */
(PID.TID 0000.0001)                 2.809019351693761E+05,      /* I =151 */
(PID.TID 0000.0001)                 2.734046499619031E+05,      /* I =152 */
(PID.TID 0000.0001)                 2.646201463834826E+05,      /* I =153 */
(PID.TID 0000.0001)                 2.544372984215561E+05,      /* I =154 */
(PID.TID 0000.0001)                 2.426774358027003E+05,      /* I =155 */
(PID.TID 0000.0001)                 2.290479919481738E+05,      /* I =156 */
(PID.TID 0000.0001)                 2.130490056267208E+05,      /* I =157 */
(PID.TID 0000.0001)                 1.937548202849060E+05,      /* I =158 */
(PID.TID 0000.0001)                 1.691744868129062E+05,      /* I =159 */
(PID.TID 0000.0001)                 1.333130744933864E+05,      /* I =160 */
(PID.TID 0000.0001)                 8.015229982413632E+04,      /* I =161 */
(PID.TID 0000.0001)                 1.333130744933864E+05,      /* I =162 */
(PID.TID 0000.0001)                 1.691744868129062E+05,      /* I =163 */
(PID.TID 0000.0001)                 1.937548202849060E+05,      /* I =164 */
(PID.TID 0000.0001)                 2.130490056267208E+05,      /* I =165 */
(PID.TID 0000.0001)                 2.290479919481738E+05,      /* I =166 */
(PID.TID 0000.0001)                 2.426774358027003E+05,      /* I =167 */
(PID.TID 0000.0001)                 2.544372984215561E+05,      /* I =168 */
(PID.TID 0000.0001)                 2.646201463834826E+05,      /* I =169 */
(PID.TID 0000.0001)                 2.734046499619031E+05,      /* I =170 */
(PID.TID 0000.0001)                 2.809019351693761E+05,      /* I =171 */
(PID.TID 0000.0001)                 2.871811105274442E+05,      /* I =172 */
(PID.TID 0000.0001)                 2.922844849381675E+05,      /* I =173 */
(PID.TID 0000.0001)                 2.962371870847826E+05,      /* I =174 */
(PID.TID 0000.0001)                 2.990534755671296E+05,      /* I =175 */
(PID.TID 0000.0001)                 3.007409169495504E+05,      /* I =176 */
(PID.TID 0000.0001)                 3.013031486919771E+05,      /* I =177 */
(PID.TID 0000.0001)                 3.007409169495504E+05,      /* I =178 */
(PID.TID 0000.0001)                 2.990534755671296E+05,      /* I =179 */
(PID.TID 0000.0001)                 2.962371870847826E+05,      /* I =180 */
(PID.TID 0000.0001)                 2.922844849381675E+05,      /* I =181 */
(PID.TID 0000.0001)                 2.871811105274442E+05,      /* I =182 */
(PID.TID 0000.0001)                 2.809019351693761E+05,      /* I =183 */
(PID.TID 0000.0001)                 2.734046499619031E+05,      /* I =184 */
(PID.TID 0000.0001)                 2.646201463834826E+05,      /* I =185 */
(PID.TID 0000.0001)                 2.544372984215561E+05,      /* I =186 */
(PID.TID 0000.0001)                 2.426774358027003E+05,      /* I =187 */
(PID.TID 0000.0001)                 2.290479919481738E+05,      /* I =188 */
(PID.TID 0000.0001)                 2.130490056267208E+05,      /* I =189 */
(PID.TID 0000.0001)                 1.937548202849060E+05,      /* I =190 */
(PID.TID 0000.0001)                 1.691744868129062E+05,      /* I =191 */
(PID.TID 0000.0001)                 1.333130744933864E+05       /* I =192 */
(PID.TID 0000.0001)     ;
(PID.TID 0000.0001) dxV =  /* dxV(1,:,1,:) ( m - cartesian, degrees - spherical ) */
(PID.TID 0000.0001)                 8.015229982413632E+04,      /* J =  1 */
(PID.TID 0000.0001)                 1.362652340208229E+05,      /* J =  2 */
(PID.TID 0000.0001)                 1.701080315742101E+05,      /* J =  3 */
(PID.TID 0000.0001)                 1.942331448101592E+05,      /* J =  4 */
(PID.TID 0000.0001)                 2.133486626971531E+05,      /* J =  5 */
(PID.TID 0000.0001)                 2.292584591272880E+05,      /* J =  6 */
(PID.TID 0000.0001)                 2.428369969078989E+05,      /* J =  7 */
(PID.TID 0000.0001)                 2.545652950875683E+05,      /* J =  8 */
(PID.TID 0000.0001)                 2.647274964828301E+05,      /* J =  9 */
(PID.TID 0000.0001)                 2.734980225206389E+05,      /* J = 10 */
(PID.TID 0000.0001)                 2.809856491525217E+05,      /* J = 11 */
(PID.TID 0000.0001)                 2.872580915202295E+05,      /* J = 12 */
(PID.TID 0000.0001)                 2.923567890694162E+05,      /* J = 13 */
(PID.TID 0000.0001)                 2.963063101754721E+05,      /* J = 14 */
(PID.TID 0000.0001)                 2.991205495886625E+05,      /* J = 15 */
(PID.TID 0000.0001)                 3.008068453676764E+05,      /* J = 16 */
(PID.TID 0000.0001)                 3.013686170436881E+05,      /* J = 17 */
(PID.TID 0000.0001)                 3.008068453676764E+05,      /* J = 18 */
(PID.TID 0000.0001)                 2.991205495886625E+05,      /* J = 19 */
(PID.TID 0000.0001)                 2.963063101754721E+05,      /* J = 20 */
(PID.TID 0000.0001)                 2.923567890694162E+05,      /* J = 21 */
(PID.TID 0000.0001)                 2.872580915202295E+05,      /* J = 22 */
(PID.TID 0000.0001)                 2.809856491525217E+05,      /* J = 23 */
(PID.TID 0000.0001)                 2.734980225206389E+05,      /* J = 24 */
(PID.TID 0000.0001)                 2.647274964828301E+05,      /* J = 25 */
(PID.TID 0000.0001)                 2.545652950875683E+05,      /* J = 26 */
(PID.TID 0000.0001)                 2.428369969078989E+05,      /* J = 27 */
(PID.TID 0000.0001)                 2.292584591272880E+05,      /* J = 28 */
(PID.TID 0000.0001)                 2.133486626971531E+05,      /* J = 29 */
(PID.TID 0000.0001)                 1.942331448101592E+05,      /* J = 30 */
(PID.TID 0000.0001)                 1.701080315742101E+05,      /* J = 31 */
(PID.TID 0000.0001)                 1.362652340208229E+05       /* J = 32 */
(PID.TID 0000.0001)     ;
(PID.TID 0000.0001) dyU =  /* dyU(:,1,:,1) ( m - cartesian, degrees - spherical ) */
(PID.TID 0000.0001)                 8.015229982413632E+04,      /* I =  1 */
(PID.TID 0000.0001)                 1.362652340208229E+05,      /* I =  2 */
(PID.TID 0000.0001)                 1.701080315742101E+05,      /* I =  3 */
(PID.TID 0000.0001)                 1.942331448101592E+05,      /* I =  4 */
(PID.TID 0000.0001)                 2.133486626971531E+05,      /* I =  5 */
(PID.TID 0000.0001)                 2.292584591272880E+05,      /* I =  6 */
(PID.TID 0000.0001)                 2.428369969078989E+05,      /* I =  7 */
(PID.TID 0000.0001)                 2.545652950875683E+05,      /* I =  8 */
(PID.TID 0000.0001)                 2.647274964828301E+05,      /* I =  9 */
(PID.TID 0000.0001)                 2.734980225206389E+05,      /* I = 10 */
(PID.TID 0000.0001)                 2.809856491525217E+05,      /* I = 11 */
(PID.TID 0000.0001)                 2.872580915202295E+05,      /* I = 12 */
(PID.TID 0000.0001)                 2.923567890694162E+05,      /* I = 13 */
(PID.TID 0000.0001)                 2.963063101754721E+05,      /* I = 14 */
(PID.TID 0000.0001)                 2.991205495886625E+05,      /* I = 15 */
(PID.TID 0000.0001)                 3.008068453676764E+05,      /* I = 16 */
(PID.TID 0000.0001)                 3.013686170436881E+05,      /* I = 17 */
(PID.TID 0000.0001)                 3.008068453676764E+05,      /* I = 18 */
(PID.TID 0000.0001)                 2.991205495886625E+05,      /* I = 19 */
(PID.TID 0000.0001)                 2.963063101754721E+05,      /* I = 20 */
(PID.TID 0000.0001)                 2.923567890694162E+05,      /* I = 21 */
(PID.TID 0000.0001)                 2.872580915202295E+05,      /* I = 22 */
(PID.TID 0000.0001)                 2.809856491525217E+05,      /* I = 23 */
(PID.TID 0000.0001)                 2.734980225206389E+05,      /* I = 24 */
(PID.TID 0000.0001)                 2.647274964828301E+05,      /* I = 25 */
(PID.TID 0000.0001)                 2.545652950875683E+05,      /* I = 26 */
(PID.TID 0000.0001)                 2.428369969078989E+05,      /* I = 27 */
(PID.TID 0000.0001)                 2.292584591272880E+05,      /* I = 28 */
(PID.TID 0000.0001)                 2.133486626971531E+05,      /* I = 29 */
(PID.TID 0000.0001)                 1.942331448101592E+05,      /* I = 30 */
(PID.TID 0000.0001)                 1.701080315742101E+05,      /* I = 31 */
(PID.TID 0000.0001)                 1.362652340208229E+05,      /* I = 32 */
(PID.TID 0000.0001)                 8.015229982413632E+04,      /* I = 33 */
(PID.TID 0000.0001)                 1.362652340208229E+05,      /* I = 34 */
(PID.TID 0000.0001)                 1.701080315742101E+05,      /* I = 35 */
(PID.TID 0000.0001)                 1.942331448101592E+05,      /* I = 36 */
(PID.TID 0000.0001)                 2.133486626971531E+05,      /* I = 37 */
(PID.TID 0000.0001)                 2.292584591272880E+05,      /* I = 38 */
(PID.TID 0000.0001)                 2.428369969078989E+05,      /* I = 39 */
(PID.TID 0000.0001)                 2.545652950875683E+05,      /* I = 40 */
(PID.TID 0000.0001)                 2.647274964828301E+05,      /* I = 41 */
(PID.TID 0000.0001)                 2.734980225206389E+05,      /* I = 42 */
(PID.TID 0000.0001)                 2.809856491525217E+05,      /* I = 43 */
(PID.TID 0000.0001)                 2.872580915202295E+05,      /* I = 44 */
(PID.TID 0000.0001)                 2.923567890694162E+05,      /* I = 45 */
(PID.TID 0000.0001)                 2.963063101754721E+05,      /* I = 46 */
(PID.TID 0000.0001)                 2.991205495886625E+05,      /* I = 47 */
(PID.TID 0000.0001)                 3.008068453676764E+05,      /* I = 48 */
(PID.TID 0000.0001)                 3.013686170436881E+05,      /* I = 49 */
(PID.TID 0000.0001)                 3.008068453676764E+05,      /* I = 50 */
(PID.TID 0000.0001)                 2.991205495886625E+05,      /* I = 51 */
(PID.TID 0000.0001)                 2.963063101754721E+05,      /* I = 52 */
(PID.TID 0000.0001)                 2.923567890694162E+05,      /* I = 53 */
(PID.TID 0000.0001)                 2.872580915202295E+05,      /* I = 54 */
(PID.TID 0000.0001)                 2.809856491525217E+05,      /* I = 55 */
(PID.TID 0000.0001)                 2.734980225206389E+05,      /* I = 56 */
(PID.TID 0000.0001)                 2.647274964828301E+05,      /* I = 57 */
(PID.TID 0000.0001)                 2.545652950875683E+05,      /* I = 58 */
(PID.TID 0000.0001)                 2.428369969078989E+05,      /* I = 59 */
(PID.TID 0000.0001)                 2.292584591272880E+05,      /* I = 60 */
(PID.TID 0000.0001)                 2.133486626971531E+05,      /* I = 61 */
(PID.TID 0000.0001)                 1.942331448101592E+05,      /* I = 62 */
(PID.TID 0000.0001)                 1.701080315742101E+05,      /* I = 63 */
(PID.TID 0000.0001)                 1.362652340208229E+05,      /* I = 64 */
(PID.TID 0000.0001)                 8.015229982413632E+04,      /* I = 65 */
(PID.TID 0000.0001)                 1.362652340208229E+05,      /* I = 66 */
(PID.TID 0000.0001)                 1.701080315742101E+05,      /* I = 67 */
(PID.TID 0000.0001)                 1.942331448101592E+05,      /* I = 68 */
(PID.TID 0000.0001)                 2.133486626971531E+05,      /* I = 69 */
(PID.TID 0000.0001)                 2.292584591272880E+05,      /* I = 70 */
(PID.TID 0000.0001)                 2.428369969078989E+05,      /* I = 71 */
(PID.TID 0000.0001)                 2.545652950875683E+05,      /* I = 72 */
(PID.TID 0000.0001)                 2.647274964828301E+05,      /* I = 73 */
(PID.TID 0000.0001)                 2.734980225206389E+05,      /* I = 74 */
(PID.TID 0000.0001)                 2.809856491525217E+05,      /* I = 75 */
(PID.TID 0000.0001)                 2.872580915202295E+05,      /* I = 76 */
(PID.TID 0000.0001)                 2.923567890694162E+05,      /* I = 77 */
(PID.TID 0000.0001)                 2.963063101754721E+05,      /* I = 78 */
(PID.TID 0000.0001)                 2.991205495886625E+05,      /* I = 79 */
(PID.TID 0000.0001)                 3.008068453676764E+05,      /* I = 80 */
(PID.TID 0000.0001)                 3.013686170436881E+05,      /* I = 81 */
(PID.TID 0000.0001)                 3.008068453676764E+05,      /* I = 82 */
(PID.TID 0000.0001)                 2.991205495886625E+05,      /* I = 83 */
(PID.TID 0000.0001)                 2.963063101754721E+05,      /* I = 84 */
(PID.TID 0000.0001)                 2.923567890694162E+05,      /* I = 85 */
(PID.TID 0000.0001)                 2.872580915202295E+05,      /* I = 86 */
(PID.TID 0000.0001)                 2.809856491525217E+05,      /* I = 87 */
(PID.TID 0000.0001)                 2.734980225206389E+05,      /* I = 88 */
(PID.TID 0000.0001)                 2.647274964828301E+05,      /* I = 89 */
(PID.TID 0000.0001)                 2.545652950875683E+05,      /* I = 90 */
(PID.TID 0000.0001)                 2.428369969078989E+05,      /* I = 91 */
(PID.TID 0000.0001)                 2.292584591272880E+05,      /* I = 92 */
(PID.TID 0000.0001)                 2.133486626971531E+05,      /* I = 93 */
(PID.TID 0000.0001)                 1.942331448101592E+05,      /* I = 94 */
(PID.TID 0000.0001)                 1.701080315742101E+05,      /* I = 95 */
(PID.TID 0000.0001)                 1.362652340208229E+05,      /* I = 96 */
(PID.TID 0000.0001)                 8.015229982413632E+04,      /* I = 97 */
(PID.TID 0000.0001)                 1.362652340208229E+05,      /* I = 98 */
(PID.TID 0000.0001)                 1.701080315742101E+05,      /* I = 99 */
(PID.TID 0000.0001)                 1.942331448101592E+05,      /* I =100 */
(PID.TID 0000.0001)                 2.133486626971531E+05,      /* I =101 */
(PID.TID 0000.0001)                 2.292584591272880E+05,      /* I =102 */
(PID.TID 0000.0001)                 2.428369969078989E+05,      /* I =103 */
(PID.TID 0000.0001)                 2.545652950875683E+05,      /* I =104 */
(PID.TID 0000.0001)                 2.647274964828301E+05,      /* I =105 */
(PID.TID 0000.0001)                 2.734980225206389E+05,      /* I =106 */
(PID.TID 0000.0001)                 2.809856491525217E+05,      /* I =107 */
(PID.TID 0000.0001)                 2.872580915202295E+05,      /* I =108 */
(PID.TID 0000.0001)                 2.923567890694162E+05,      /* I =109 */
(PID.TID 0000.0001)                 2.963063101754721E+05,      /* I =110 */
(PID.TID 0000.0001)                 2.991205495886625E+05,      /* I =111 */
(PID.TID 0000.0001)                 3.008068453676764E+05,      /* I =112 */
(PID.TID 0000.0001)                 3.013686170436881E+05,      /* I =113 */
(PID.TID 0000.0001)                 3.008068453676764E+05,      /* I =114 */
(PID.TID 0000.0001)                 2.991205495886625E+05,      /* I =115 */
(PID.TID 0000.0001)                 2.963063101754721E+05,      /* I =116 */
(PID.TID 0000.0001)                 2.923567890694162E+05,      /* I =117 */
(PID.TID 0000.0001)                 2.872580915202295E+05,      /* I =118 */
(PID.TID 0000.0001)                 2.809856491525217E+05,      /* I =119 */
(PID.TID 0000.0001)                 2.734980225206389E+05,      /* I =120 */
(PID.TID 0000.0001)                 2.647274964828301E+05,      /* I =121 */
(PID.TID 0000.0001)                 2.545652950875683E+05,      /* I =122 */
(PID.TID 0000.0001)                 2.428369969078989E+05,      /* I =123 */
(PID.TID 0000.0001)                 2.292584591272880E+05,      /* I =124 */
(PID.TID 0000.0001)                 2.133486626971531E+05,      /* I =125 */
(PID.TID 0000.0001)                 1.942331448101592E+05,      /* I =126 */
(PID.TID 0000.0001)                 1.701080315742101E+05,      /* I =127 */
(PID.TID 0000.0001)                 1.362652340208229E+05,      /* I =128 */
(PID.TID 0000.0001)                 8.015229982413632E+04,      /* I =129 */
(PID.TID 0000.0001)                 1.362652340208229E+05,      /* I =130 */
(PID.TID 0000.0001)                 1.701080315742101E+05,      /* I =131 */
(PID.TID 0000.0001)                 1.942331448101592E+05,      /* I =132 */
(PID.TID 0000.0001)                 2.133486626971531E+05,      /* I =133 */
(PID.TID 0000.0001)                 2.292584591272880E+05,      /* I =134 */
(PID.TID 0000.0001)                 2.428369969078989E+05,      /* I =135 */
(PID.TID 0000.0001)                 2.545652950875683E+05,      /* I =136 */
(PID.TID 0000.0001)                 2.647274964828301E+05,      /* I =137 */
(PID.TID 0000.0001)                 2.734980225206389E+05,      /* I =138 */
(PID.TID 0000.0001)                 2.809856491525217E+05,      /* I =139 */
(PID.TID 0000.0001)                 2.872580915202295E+05,      /* I =140 */
(PID.TID 0000.0001)                 2.923567890694162E+05,      /* I =141 */
(PID.TID 0000.0001)                 2.963063101754721E+05,      /* I =142 */
(PID.TID 0000.0001)                 2.991205495886625E+05,      /* I =143 */
(PID.TID 0000.0001)                 3.008068453676764E+05,      /* I =144 */
(PID.TID 0000.0001)                 3.013686170436881E+05,      /* I =145 */
(PID.TID 0000.0001)                 3.008068453676764E+05,      /* I =146 */
(PID.TID 0000.0001)                 2.991205495886625E+05,      /* I =147 */
(PID.TID 0000.0001)                 2.963063101754721E+05,      /* I =148 */
(PID.TID 0000.0001)                 2.923567890694162E+05,      /* I =149 */
(PID.TID 0000.0001)                 2.872580915202295E+05,      /* I =150 */
(PID.TID 0000.0001)                 2.809856491525217E+05,      /* I =151 */
(PID.TID 0000.0001)                 2.734980225206389E+05,      /* I =152 */
(PID.TID 0000.0001)                 2.647274964828301E+05,      /* I =153 */
(PID.TID 0000.0001)                 2.545652950875683E+05,      /* I =154 */
(PID.TID 0000.0001)                 2.428369969078989E+05,      /* I =155 */
(PID.TID 0000.0001)                 2.292584591272880E+05,      /* I =156 */
(PID.TID 0000.0001)                 2.133486626971531E+05,      /* I =157 */
(PID.TID 0000.0001)                 1.942331448101592E+05,      /* I =158 */
(PID.TID 0000.0001)                 1.701080315742101E+05,      /* I =159 */
(PID.TID 0000.0001)                 1.362652340208229E+05,      /* I =160 */
(PID.TID 0000.0001)                 8.015229982413632E+04,      /* I =161 */
(PID.TID 0000.0001)                 1.362652340208229E+05,      /* I =162 */
(PID.TID 0000.0001)                 1.701080315742101E+05,      /* I =163 */
(PID.TID 0000.0001)                 1.942331448101592E+05,      /* I =164 */
(PID.TID 0000.0001)                 2.133486626971531E+05,      /* I =165 */
(PID.TID 0000.0001)                 2.292584591272880E+05,      /* I =166 */
(PID.TID 0000.0001)                 2.428369969078989E+05,      /* I =167 */
(PID.TID 0000.0001)                 2.545652950875683E+05,      /* I =168 */
(PID.TID 0000.0001)                 2.647274964828301E+05,      /* I =169 */
(PID.TID 0000.0001)                 2.734980225206389E+05,      /* I =170 */
(PID.TID 0000.0001)                 2.809856491525217E+05,      /* I =171 */
(PID.TID 0000.0001)                 2.872580915202295E+05,      /* I =172 */
(PID.TID 0000.0001)                 2.923567890694162E+05,      /* I =173 */
(PID.TID 0000.0001)                 2.963063101754721E+05,      /* I =174 */
(PID.TID 0000.0001)                 2.991205495886625E+05,      /* I =175 */
(PID.TID 0000.0001)                 3.008068453676764E+05,      /* I =176 */
(PID.TID 0000.0001)                 3.013686170436881E+05,      /* I =177 */
(PID.TID 0000.0001)                 3.008068453676764E+05,      /* I =178 */
(PID.TID 0000.0001)                 2.991205495886625E+05,      /* I =179 */
(PID.TID 0000.0001)                 2.963063101754721E+05,      /* I =180 */
(PID.TID 0000.0001)                 2.923567890694162E+05,      /* I =181 */
(PID.TID 0000.0001)                 2.872580915202295E+05,      /* I =182 */
(PID.TID 0000.0001)                 2.809856491525217E+05,      /* I =183 */
(PID.TID 0000.0001)                 2.734980225206389E+05,      /* I =184 */
(PID.TID 0000.0001)                 2.647274964828301E+05,      /* I =185 */
(PID.TID 0000.0001)                 2.545652950875683E+05,      /* I =186 */
(PID.TID 0000.0001)                 2.428369969078989E+05,      /* I =187 */
(PID.TID 0000.0001)                 2.292584591272880E+05,      /* I =188 */
(PID.TID 0000.0001)                 2.133486626971531E+05,      /* I =189 */
(PID.TID 0000.0001)                 1.942331448101592E+05,      /* I =190 */
(PID.TID 0000.0001)                 1.701080315742101E+05,      /* I =191 */
(PID.TID 0000.0001)                 1.362652340208229E+05       /* I =192 */
(PID.TID 0000.0001)     ;
(PID.TID 0000.0001) dyU =  /* dyU(1,:,1,:) ( m - cartesian, degrees - spherical ) */
(PID.TID 0000.0001)                 8.015229982413632E+04,      /* J =  1 */
(PID.TID 0000.0001)                 1.333130744933864E+05,      /* J =  2 */
(PID.TID 0000.0001)                 1.691744868129062E+05,      /* J =  3 */
(PID.TID 0000.0001)                 1.937548202849060E+05,      /* J =  4 */
(PID.TID 0000.0001)                 2.130490056267208E+05,      /* J =  5 */
(PID.TID 0000.0001)                 2.290479919481738E+05,      /* J =  6 */
(PID.TID 0000.0001)                 2.426774358027003E+05,      /* J =  7 */
(PID.TID 0000.0001)                 2.544372984215561E+05,      /* J =  8 */
(PID.TID 0000.0001)                 2.646201463834826E+05,      /* J =  9 */
(PID.TID 0000.0001)                 2.734046499619031E+05,      /* J = 10 */
(PID.TID 0000.0001)                 2.809019351693761E+05,      /* J = 11 */
(PID.TID 0000.0001)                 2.871811105274442E+05,      /* J = 12 */
(PID.TID 0000.0001)                 2.922844849381675E+05,      /* J = 13 */
(PID.TID 0000.0001)                 2.962371870847826E+05,      /* J = 14 */
(PID.TID 0000.0001)                 2.990534755671296E+05,      /* J = 15 */
(PID.TID 0000.0001)                 3.007409169495504E+05,      /* J = 16 */
(PID.TID 0000.0001)                 3.013031486919771E+05,      /* J = 17 */
(PID.TID 0000.0001)                 3.007409169495504E+05,      /* J = 18 */
(PID.TID 0000.0001)                 2.990534755671296E+05,      /* J = 19 */
(PID.TID 0000.0001)                 2.962371870847826E+05,      /* J = 20 */
(PID.TID 0000.0001)                 2.922844849381675E+05,      /* J = 21 */
(PID.TID 0000.0001)                 2.871811105274442E+05,      /* J = 22 */
(PID.TID 0000.0001)                 2.809019351693761E+05,      /* J = 23 */
(PID.TID 0000.0001)                 2.734046499619031E+05,      /* J = 24 */
(PID.TID 0000.0001)                 2.646201463834826E+05,      /* J = 25 */
(PID.TID 0000.0001)                 2.544372984215561E+05,      /* J = 26 */
(PID.TID 0000.0001)                 2.426774358027003E+05,      /* J = 27 */
(PID.TID 0000.0001)                 2.290479919481738E+05,      /* J = 28 */
(PID.TID 0000.0001)                 2.130490056267208E+05,      /* J = 29 */
(PID.TID 0000.0001)                 1.937548202849060E+05,      /* J = 30 */
(PID.TID 0000.0001)                 1.691744868129062E+05,      /* J = 31 */
(PID.TID 0000.0001)                 1.333130744933864E+05       /* J = 32 */
(PID.TID 0000.0001)     ;
(PID.TID 0000.0001) rA =  /* rA(:,1,:,1) ( m - cartesian, degrees - spherical ) */
(PID.TID 0000.0001)                 1.401900702255611E+10,      /* I =  1 */
(PID.TID 0000.0001)                 2.459906945574446E+10,      /* I =  2 */
(PID.TID 0000.0001)                 3.378518544307869E+10,      /* I =  3 */
(PID.TID 0000.0001)                 4.192037169898667E+10,      /* I =  4 */
(PID.TID 0000.0001)                 4.925938996118163E+10,      /* I =  5 */
(PID.TID 0000.0001)                 5.594154126607553E+10,      /* I =  6 */
(PID.TID 0000.0001)                 6.203683527772523E+10,      /* I =  7 */
(PID.TID 0000.0001)                 6.757541173817516E+10,      /* I =  8 */
(PID.TID 0000.0001)                 7.256353271748119E+10,      /* I =  9 */
(PID.TID 0000.0001)                 7.699293007098555E+10,      /* I = 10 */
(PID.TID 0000.0001)                 8.084683449728902E+10,      /* I = 11 */
(PID.TID 0000.0001)                 8.410423102796223E+10,      /* I = 12 */
(PID.TID 0000.0001)                 8.674306976737517E+10,      /* I = 13 */
(PID.TID 0000.0001)                 8.874277443041928E+10,      /* I = 14 */
(PID.TID 0000.0001)                 9.008620045350865E+10,      /* I = 15 */
(PID.TID 0000.0001)                 9.076111290418457E+10,      /* I = 16 */
(PID.TID 0000.0001)                 9.076111290422060E+10,      /* I = 17 */
(PID.TID 0000.0001)                 9.008620045354469E+10,      /* I = 18 */
(PID.TID 0000.0001)                 8.874277443041928E+10,      /* I = 19 */
(PID.TID 0000.0001)                 8.674306976741121E+10,      /* I = 20 */
(PID.TID 0000.0001)                 8.410423102799828E+10,      /* I = 21 */
(PID.TID 0000.0001)                 8.084683449728902E+10,      /* I = 22 */
(PID.TID 0000.0001)                 7.699293007098555E+10,      /* I = 23 */
(PID.TID 0000.0001)                 7.256353271748119E+10,      /* I = 24 */
(PID.TID 0000.0001)                 6.757541173817516E+10,      /* I = 25 */
(PID.TID 0000.0001)                 6.203683527772523E+10,      /* I = 26 */
(PID.TID 0000.0001)                 5.594154126611156E+10,      /* I = 27 */
(PID.TID 0000.0001)                 4.925938996118163E+10,      /* I = 28 */
(PID.TID 0000.0001)                 4.192037169898667E+10,      /* I = 29 */
(PID.TID 0000.0001)                 3.378518544304265E+10,      /* I = 30 */
(PID.TID 0000.0001)                 2.459906945574446E+10,      /* I = 31 */
(PID.TID 0000.0001)                 1.401900702259215E+10,      /* I = 32 */
(PID.TID 0000.0001)                 1.401900702255611E+10,      /* I = 33 */
(PID.TID 0000.0001)                 2.459906945574446E+10,      /* I = 34 */
(PID.TID 0000.0001)                 3.378518544307869E+10,      /* I = 35 */
(PID.TID 0000.0001)                 4.192037169898667E+10,      /* I = 36 */
(PID.TID 0000.0001)                 4.925938996118163E+10,      /* I = 37 */
(PID.TID 0000.0001)                 5.594154126607553E+10,      /* I = 38 */
(PID.TID 0000.0001)                 6.203683527772523E+10,      /* I = 39 */
(PID.TID 0000.0001)                 6.757541173817516E+10,      /* I = 40 */
(PID.TID 0000.0001)                 7.256353271748119E+10,      /* I = 41 */
(PID.TID 0000.0001)                 7.699293007098555E+10,      /* I = 42 */
(PID.TID 0000.0001)                 8.084683449728902E+10,      /* I = 43 */
(PID.TID 0000.0001)                 8.410423102796223E+10,      /* I = 44 */
(PID.TID 0000.0001)                 8.674306976737517E+10,      /* I = 45 */
(PID.TID 0000.0001)                 8.874277443041928E+10,      /* I = 46 */
(PID.TID 0000.0001)                 9.008620045350865E+10,      /* I = 47 */
(PID.TID 0000.0001)                 9.076111290418457E+10,      /* I = 48 */
(PID.TID 0000.0001)                 9.076111290422060E+10,      /* I = 49 */
(PID.TID 0000.0001)                 9.008620045354469E+10,      /* I = 50 */
(PID.TID 0000.0001)                 8.874277443041928E+10,      /* I = 51 */
(PID.TID 0000.0001)                 8.674306976741121E+10,      /* I = 52 */
(PID.TID 0000.0001)                 8.410423102799828E+10,      /* I = 53 */
(PID.TID 0000.0001)                 8.084683449728902E+10,      /* I = 54 */
(PID.TID 0000.0001)                 7.699293007098555E+10,      /* I = 55 */
(PID.TID 0000.0001)                 7.256353271748119E+10,      /* I = 56 */
(PID.TID 0000.0001)                 6.757541173817516E+10,      /* I = 57 */
(PID.TID 0000.0001)                 6.203683527772523E+10,      /* I = 58 */
(PID.TID 0000.0001)                 5.594154126611156E+10,      /* I = 59 */
(PID.TID 0000.0001)                 4.925938996118163E+10,      /* I = 60 */
(PID.TID 0000.0001)                 4.192037169898667E+10,      /* I = 61 */
(PID.TID 0000.0001)                 3.378518544304265E+10,      /* I = 62 */
(PID.TID 0000.0001)                 2.459906945574446E+10,      /* I = 63 */
(PID.TID 0000.0001)                 1.401900702259215E+10,      /* I = 64 */
(PID.TID 0000.0001)                 1.401900702255611E+10,      /* I = 65 */
(PID.TID 0000.0001)                 2.459906945574446E+10,      /* I = 66 */
(PID.TID 0000.0001)                 3.378518544307869E+10,      /* I = 67 */
(PID.TID 0000.0001)                 4.192037169898667E+10,      /* I = 68 */
(PID.TID 0000.0001)                 4.925938996118163E+10,      /* I = 69 */
(PID.TID 0000.0001)                 5.594154126607553E+10,      /* I = 70 */
(PID.TID 0000.0001)                 6.203683527772523E+10,      /* I = 71 */
(PID.TID 0000.0001)                 6.757541173817516E+10,      /* I = 72 */
(PID.TID 0000.0001)                 7.256353271748119E+10,      /* I = 73 */
(PID.TID 0000.0001)                 7.699293007098555E+10,      /* I = 74 */
(PID.TID 0000.0001)                 8.084683449728902E+10,      /* I = 75 */
(PID.TID 0000.0001)                 8.410423102796223E+10,      /* I = 76 */
(PID.TID 0000.0001)                 8.674306976737517E+10,      /* I = 77 */
(PID.TID 0000.0001)                 8.874277443041928E+10,      /* I = 78 */
(PID.TID 0000.0001)                 9.008620045350865E+10,      /* I = 79 */
(PID.TID 0000.0001)                 9.076111290418457E+10,      /* I = 80 */
(PID.TID 0000.0001)                 9.076111290422060E+10,      /* I = 81 */
(PID.TID 0000.0001)                 9.008620045354469E+10,      /* I = 82 */
(PID.TID 0000.0001)                 8.874277443041928E+10,      /* I = 83 */
(PID.TID 0000.0001)                 8.674306976741121E+10,      /* I = 84 */
(PID.TID 0000.0001)                 8.410423102799828E+10,      /* I = 85 */
(PID.TID 0000.0001)                 8.084683449728902E+10,      /* I = 86 */
(PID.TID 0000.0001)                 7.699293007098555E+10,      /* I = 87 */
(PID.TID 0000.0001)                 7.256353271748119E+10,      /* I = 88 */
(PID.TID 0000.0001)                 6.757541173817516E+10,      /* I = 89 */
(PID.TID 0000.0001)                 6.203683527772523E+10,      /* I = 90 */
(PID.TID 0000.0001)                 5.594154126611156E+10,      /* I = 91 */
(PID.TID 0000.0001)                 4.925938996118163E+10,      /* I = 92 */
(PID.TID 0000.0001)                 4.192037169898667E+10,      /* I = 93 */
(PID.TID 0000.0001)                 3.378518544304265E+10,      /* I = 94 */
(PID.TID 0000.0001)                 2.459906945574446E+10,      /* I = 95 */
(PID.TID 0000.0001)                 1.401900702259215E+10,      /* I = 96 */
(PID.TID 0000.0001)                 1.401900702255611E+10,      /* I = 97 */
(PID.TID 0000.0001)                 2.459906945574446E+10,      /* I = 98 */
(PID.TID 0000.0001)                 3.378518544307869E+10,      /* I = 99 */
(PID.TID 0000.0001)                 4.192037169898667E+10,      /* I =100 */
(PID.TID 0000.0001)                 4.925938996118163E+10,      /* I =101 */
(PID.TID 0000.0001)                 5.594154126607553E+10,      /* I =102 */
(PID.TID 0000.0001)                 6.203683527772523E+10,      /* I =103 */
(PID.TID 0000.0001)                 6.757541173817516E+10,      /* I =104 */
(PID.TID 0000.0001)                 7.256353271748119E+10,      /* I =105 */
(PID.TID 0000.0001)                 7.699293007098555E+10,      /* I =106 */
(PID.TID 0000.0001)                 8.084683449728902E+10,      /* I =107 */
(PID.TID 0000.0001)                 8.410423102796223E+10,      /* I =108 */
(PID.TID 0000.0001)                 8.674306976737517E+10,      /* I =109 */
(PID.TID 0000.0001)                 8.874277443041928E+10,      /* I =110 */
(PID.TID 0000.0001)                 9.008620045350865E+10,      /* I =111 */
(PID.TID 0000.0001)                 9.076111290418457E+10,      /* I =112 */
(PID.TID 0000.0001)                 9.076111290422060E+10,      /* I =113 */
(PID.TID 0000.0001)                 9.008620045354469E+10,      /* I =114 */
(PID.TID 0000.0001)                 8.874277443041928E+10,      /* I =115 */
(PID.TID 0000.0001)                 8.674306976741121E+10,      /* I =116 */
(PID.TID 0000.0001)                 8.410423102799828E+10,      /* I =117 */
(PID.TID 0000.0001)                 8.084683449728902E+10,      /* I =118 */
(PID.TID 0000.0001)                 7.699293007098555E+10,      /* I =119 */
(PID.TID 0000.0001)                 7.256353271748119E+10,      /* I =120 */
(PID.TID 0000.0001)                 6.757541173817516E+10,      /* I =121 */
(PID.TID 0000.0001)                 6.203683527772523E+10,      /* I =122 */
(PID.TID 0000.0001)                 5.594154126611156E+10,      /* I =123 */
(PID.TID 0000.0001)                 4.925938996118163E+10,      /* I =124 */
(PID.TID 0000.0001)                 4.192037169898667E+10,      /* I =125 */
(PID.TID 0000.0001)                 3.378518544304265E+10,      /* I =126 */
(PID.TID 0000.0001)                 2.459906945574446E+10,      /* I =127 */
(PID.TID 0000.0001)                 1.401900702259215E+10,      /* I =128 */
(PID.TID 0000.0001)                 1.401900702255611E+10,      /* I =129 */
(PID.TID 0000.0001)                 2.459906945574446E+10,      /* I =130 */
(PID.TID 0000.0001)                 3.378518544307869E+10,      /* I =131 */
(PID.TID 0000.0001)                 4.192037169898667E+10,      /* I =132 */
(PID.TID 0000.0001)                 4.925938996118163E+10,      /* I =133 */
(PID.TID 0000.0001)                 5.594154126607553E+10,      /* I =134 */
(PID.TID 0000.0001)                 6.203683527772523E+10,      /* I =135 */
(PID.TID 0000.0001)                 6.757541173817516E+10,      /* I =136 */
(PID.TID 0000.0001)                 7.256353271748119E+10,      /* I =137 */
(PID.TID 0000.0001)                 7.699293007098555E+10,      /* I =138 */
(PID.TID 0000.0001)                 8.084683449728902E+10,      /* I =139 */
(PID.TID 0000.0001)                 8.410423102796223E+10,      /* I =140 */
(PID.TID 0000.0001)                 8.674306976737517E+10,      /* I =141 */
(PID.TID 0000.0001)                 8.874277443041928E+10,      /* I =142 */
(PID.TID 0000.0001)                 9.008620045350865E+10,      /* I =143 */
(PID.TID 0000.0001)                 9.076111290418457E+10,      /* I =144 */
(PID.TID 0000.0001)                 9.076111290422060E+10,      /* I =145 */
(PID.TID 0000.0001)                 9.008620045354469E+10,      /* I =146 */
(PID.TID 0000.0001)                 8.874277443041928E+10,      /* I =147 */
(PID.TID 0000.0001)                 8.674306976741121E+10,      /* I =148 */
(PID.TID 0000.0001)                 8.410423102799828E+10,      /* I =149 */
(PID.TID 0000.0001)                 8.084683449728902E+10,      /* I =150 */
(PID.TID 0000.0001)                 7.699293007098555E+10,      /* I =151 */
(PID.TID 0000.0001)                 7.256353271748119E+10,      /* I =152 */
(PID.TID 0000.0001)                 6.757541173817516E+10,      /* I =153 */
(PID.TID 0000.0001)                 6.203683527772523E+10,      /* I =154 */
(PID.TID 0000.0001)                 5.594154126611156E+10,      /* I =155 */
(PID.TID 0000.0001)                 4.925938996118163E+10,      /* I =156 */
(PID.TID 0000.0001)                 4.192037169898667E+10,      /* I =157 */
(PID.TID 0000.0001)                 3.378518544304265E+10,      /* I =158 */
(PID.TID 0000.0001)                 2.459906945574446E+10,      /* I =159 */
(PID.TID 0000.0001)                 1.401900702259215E+10,      /* I =160 */
(PID.TID 0000.0001)                 1.401900702255611E+10,      /* I =161 */
(PID.TID 0000.0001)                 2.459906945574446E+10,      /* I =162 */
(PID.TID 0000.0001)                 3.378518544307869E+10,      /* I =163 */
(PID.TID 0000.0001)                 4.192037169898667E+10,      /* I =164 */
(PID.TID 0000.0001)                 4.925938996118163E+10,      /* I =165 */
(PID.TID 0000.0001)                 5.594154126607553E+10,      /* I =166 */
(PID.TID 0000.0001)                 6.203683527772523E+10,      /* I =167 */
(PID.TID 0000.0001)                 6.757541173817516E+10,      /* I =168 */
(PID.TID 0000.0001)                 7.256353271748119E+10,      /* I =169 */
(PID.TID 0000.0001)                 7.699293007098555E+10,      /* I =170 */
(PID.TID 0000.0001)                 8.084683449728902E+10,      /* I =171 */
(PID.TID 0000.0001)                 8.410423102796223E+10,      /* I =172 */
(PID.TID 0000.0001)                 8.674306976737517E+10,      /* I =173 */
(PID.TID 0000.0001)                 8.874277443041928E+10,      /* I =174 */
(PID.TID 0000.0001)                 9.008620045350865E+10,      /* I =175 */
(PID.TID 0000.0001)                 9.076111290418457E+10,      /* I =176 */
(PID.TID 0000.0001)                 9.076111290422060E+10,      /* I =177 */
(PID.TID 0000.0001)                 9.008620045354469E+10,      /* I =178 */
(PID.TID 0000.0001)                 8.874277443041928E+10,      /* I =179 */
(PID.TID 0000.0001)                 8.674306976741121E+10,      /* I =180 */
(PID.TID 0000.0001)                 8.410423102799828E+10,      /* I =181 */
(PID.TID 0000.0001)                 8.084683449728902E+10,      /* I =182 */
(PID.TID 0000.0001)                 7.699293007098555E+10,      /* I =183 */
(PID.TID 0000.0001)                 7.256353271748119E+10,      /* I =184 */
(PID.TID 0000.0001)                 6.757541173817516E+10,      /* I =185 */
(PID.TID 0000.0001)                 6.203683527772523E+10,      /* I =186 */
(PID.TID 0000.0001)                 5.594154126611156E+10,      /* I =187 */
(PID.TID 0000.0001)                 4.925938996118163E+10,      /* I =188 */
(PID.TID 0000.0001)                 4.192037169898667E+10,      /* I =189 */
(PID.TID 0000.0001)                 3.378518544304265E+10,      /* I =190 */
(PID.TID 0000.0001)                 2.459906945574446E+10,      /* I =191 */
(PID.TID 0000.0001)                 1.401900702259215E+10       /* I =192 */
(PID.TID 0000.0001)     ;
(PID.TID 0000.0001) rA =  /* rA(1,:,1,:) ( m - cartesian, degrees - spherical ) */
(PID.TID 0000.0001)                 1.401900702255611E+10,      /* J =  1 */
(PID.TID 0000.0001)                 2.459906945574446E+10,      /* J =  2 */
(PID.TID 0000.0001)                 3.378518544307869E+10,      /* J =  3 */
(PID.TID 0000.0001)                 4.192037169898667E+10,      /* J =  4 */
(PID.TID 0000.0001)                 4.925938996118163E+10,      /* J =  5 */
(PID.TID 0000.0001)                 5.594154126607553E+10,      /* J =  6 */
(PID.TID 0000.0001)                 6.203683527776127E+10,      /* J =  7 */
(PID.TID 0000.0001)                 6.757541173817516E+10,      /* J =  8 */
(PID.TID 0000.0001)                 7.256353271748119E+10,      /* J =  9 */
(PID.TID 0000.0001)                 7.699293007098555E+10,      /* J = 10 */
(PID.TID 0000.0001)                 8.084683449728902E+10,      /* J = 11 */
(PID.TID 0000.0001)                 8.410423102799828E+10,      /* J = 12 */
(PID.TID 0000.0001)                 8.674306976737517E+10,      /* J = 13 */
(PID.TID 0000.0001)                 8.874277443041928E+10,      /* J = 14 */
(PID.TID 0000.0001)                 9.008620045350865E+10,      /* J = 15 */
(PID.TID 0000.0001)                 9.076111290418457E+10,      /* J = 16 */
(PID.TID 0000.0001)                 9.076111290422060E+10,      /* J = 17 */
(PID.TID 0000.0001)                 9.008620045354469E+10,      /* J = 18 */
(PID.TID 0000.0001)                 8.874277443041928E+10,      /* J = 19 */
(PID.TID 0000.0001)                 8.674306976737517E+10,      /* J = 20 */
(PID.TID 0000.0001)                 8.410423102799828E+10,      /* J = 21 */
(PID.TID 0000.0001)                 8.084683449728902E+10,      /* J = 22 */
(PID.TID 0000.0001)                 7.699293007098555E+10,      /* J = 23 */
(PID.TID 0000.0001)                 7.256353271748119E+10,      /* J = 24 */
(PID.TID 0000.0001)                 6.757541173817516E+10,      /* J = 25 */
(PID.TID 0000.0001)                 6.203683527772523E+10,      /* J = 26 */
(PID.TID 0000.0001)                 5.594154126607553E+10,      /* J = 27 */
(PID.TID 0000.0001)                 4.925938996118163E+10,      /* J = 28 */
(PID.TID 0000.0001)                 4.192037169898667E+10,      /* J = 29 */
(PID.TID 0000.0001)                 3.378518544307869E+10,      /* J = 30 */
(PID.TID 0000.0001)                 2.459906945574446E+10,      /* J = 31 */
(PID.TID 0000.0001)                 1.401900702259215E+10       /* J = 32 */
(PID.TID 0000.0001)     ;
(PID.TID 0000.0001) rAw =  /* rAw(:,1,:,1) ( m - cartesian, degrees - spherical ) */
(PID.TID 0000.0001)                 1.216690346714270E+10,      /* I =  1 */
(PID.TID 0000.0001)                 1.974052138506315E+10,      /* I =  2 */
(PID.TID 0000.0001)                 2.943712825252015E+10,      /* I =  3 */
(PID.TID 0000.0001)                 3.801790263324359E+10,      /* I =  4 */
(PID.TID 0000.0001)                 4.571243814189866E+10,      /* I =  5 */
(PID.TID 0000.0001)                 5.269930713599979E+10,      /* I =  6 */
(PID.TID 0000.0001)                 5.907428494299063E+10,      /* I =  7 */
(PID.TID 0000.0001)                 6.488320895111514E+10,      /* I =  8 */
(PID.TID 0000.0001)                 7.014205907741882E+10,      /* I =  9 */
(PID.TID 0000.0001)                 7.484854821847499E+10,      /* I = 10 */
(PID.TID 0000.0001)                 7.898934631431560E+10,      /* I = 11 */
(PID.TID 0000.0001)                 8.254500894894537E+10,      /* I = 12 */
(PID.TID 0000.0001)                 8.549360686473492E+10,      /* I = 13 */
(PID.TID 0000.0001)                 8.781353403175085E+10,      /* I = 14 */
(PID.TID 0000.0001)                 8.948571540392021E+10,      /* I = 15 */
(PID.TID 0000.0001)                 9.049530583086168E+10,      /* I = 16 */
(PID.TID 0000.0001)                 9.083293515008307E+10,      /* I = 17 */
(PID.TID 0000.0001)                 9.049530583087070E+10,      /* I = 18 */
(PID.TID 0000.0001)                 8.948571540391121E+10,      /* I = 19 */
(PID.TID 0000.0001)                 8.781353403174185E+10,      /* I = 20 */
(PID.TID 0000.0001)                 8.549360686467184E+10,      /* I = 21 */
(PID.TID 0000.0001)                 8.254500894890933E+10,      /* I = 22 */
(PID.TID 0000.0001)                 7.898934631434262E+10,      /* I = 23 */
(PID.TID 0000.0001)                 7.484854821844795E+10,      /* I = 24 */
(PID.TID 0000.0001)                 7.014205907742783E+10,      /* I = 25 */
(PID.TID 0000.0001)                 6.488320895111514E+10,      /* I = 26 */
(PID.TID 0000.0001)                 5.907428494299063E+10,      /* I = 27 */
(PID.TID 0000.0001)                 5.269930713599078E+10,      /* I = 28 */
(PID.TID 0000.0001)                 4.571243814190767E+10,      /* I = 29 */
(PID.TID 0000.0001)                 3.801790263325260E+10,      /* I = 30 */
(PID.TID 0000.0001)                 2.943712825251114E+10,      /* I = 31 */
(PID.TID 0000.0001)                 1.974052138509018E+10,      /* I = 32 */
(PID.TID 0000.0001)                 1.216690346714270E+10,      /* I = 33 */
(PID.TID 0000.0001)                 1.974052138506315E+10,      /* I = 34 */
(PID.TID 0000.0001)                 2.943712825252015E+10,      /* I = 35 */
(PID.TID 0000.0001)                 3.801790263324359E+10,      /* I = 36 */
(PID.TID 0000.0001)                 4.571243814189866E+10,      /* I = 37 */
(PID.TID 0000.0001)                 5.269930713599979E+10,      /* I = 38 */
(PID.TID 0000.0001)                 5.907428494299063E+10,      /* I = 39 */
(PID.TID 0000.0001)                 6.488320895111514E+10,      /* I = 40 */
(PID.TID 0000.0001)                 7.014205907741882E+10,      /* I = 41 */
(PID.TID 0000.0001)                 7.484854821847499E+10,      /* I = 42 */
(PID.TID 0000.0001)                 7.898934631431560E+10,      /* I = 43 */
(PID.TID 0000.0001)                 8.254500894894537E+10,      /* I = 44 */
(PID.TID 0000.0001)                 8.549360686473492E+10,      /* I = 45 */
(PID.TID 0000.0001)                 8.781353403175085E+10,      /* I = 46 */
(PID.TID 0000.0001)                 8.948571540392021E+10,      /* I = 47 */
(PID.TID 0000.0001)                 9.049530583086168E+10,      /* I = 48 */
(PID.TID 0000.0001)                 9.083293515008307E+10,      /* I = 49 */
(PID.TID 0000.0001)                 9.049530583087070E+10,      /* I = 50 */
(PID.TID 0000.0001)                 8.948571540391121E+10,      /* I = 51 */
(PID.TID 0000.0001)                 8.781353403174185E+10,      /* I = 52 */
(PID.TID 0000.0001)                 8.549360686467184E+10,      /* I = 53 */
(PID.TID 0000.0001)                 8.254500894890933E+10,      /* I = 54 */
(PID.TID 0000.0001)                 7.898934631434262E+10,      /* I = 55 */
(PID.TID 0000.0001)                 7.484854821844795E+10,      /* I = 56 */
(PID.TID 0000.0001)                 7.014205907742783E+10,      /* I = 57 */
(PID.TID 0000.0001)                 6.488320895111514E+10,      /* I = 58 */
(PID.TID 0000.0001)                 5.907428494299063E+10,      /* I = 59 */
(PID.TID 0000.0001)                 5.269930713599078E+10,      /* I = 60 */
(PID.TID 0000.0001)                 4.571243814190767E+10,      /* I = 61 */
(PID.TID 0000.0001)                 3.801790263325260E+10,      /* I = 62 */
(PID.TID 0000.0001)                 2.943712825251114E+10,      /* I = 63 */
(PID.TID 0000.0001)                 1.974052138509018E+10,      /* I = 64 */
(PID.TID 0000.0001)                 1.216690346714270E+10,      /* I = 65 */
(PID.TID 0000.0001)                 1.974052138506315E+10,      /* I = 66 */
(PID.TID 0000.0001)                 2.943712825252015E+10,      /* I = 67 */
(PID.TID 0000.0001)                 3.801790263324359E+10,      /* I = 68 */
(PID.TID 0000.0001)                 4.571243814189866E+10,      /* I = 69 */
(PID.TID 0000.0001)                 5.269930713599979E+10,      /* I = 70 */
(PID.TID 0000.0001)                 5.907428494299063E+10,      /* I = 71 */
(PID.TID 0000.0001)                 6.488320895111514E+10,      /* I = 72 */
(PID.TID 0000.0001)                 7.014205907741882E+10,      /* I = 73 */
(PID.TID 0000.0001)                 7.484854821847499E+10,      /* I = 74 */
(PID.TID 0000.0001)                 7.898934631431560E+10,      /* I = 75 */
(PID.TID 0000.0001)                 8.254500894894537E+10,      /* I = 76 */
(PID.TID 0000.0001)                 8.549360686473492E+10,      /* I = 77 */
(PID.TID 0000.0001)                 8.781353403175085E+10,      /* I = 78 */
(PID.TID 0000.0001)                 8.948571540392021E+10,      /* I = 79 */
(PID.TID 0000.0001)                 9.049530583086168E+10,      /* I = 80 */
(PID.TID 0000.0001)                 9.083293515008307E+10,      /* I = 81 */
(PID.TID 0000.0001)                 9.049530583087070E+10,      /* I = 82 */
(PID.TID 0000.0001)                 8.948571540391121E+10,      /* I = 83 */
(PID.TID 0000.0001)                 8.781353403174185E+10,      /* I = 84 */
(PID.TID 0000.0001)                 8.549360686467184E+10,      /* I = 85 */
(PID.TID 0000.0001)                 8.254500894890933E+10,      /* I = 86 */
(PID.TID 0000.0001)                 7.898934631434262E+10,      /* I = 87 */
(PID.TID 0000.0001)                 7.484854821844795E+10,      /* I = 88 */
(PID.TID 0000.0001)                 7.014205907742783E+10,      /* I = 89 */
(PID.TID 0000.0001)                 6.488320895111514E+10,      /* I = 90 */
(PID.TID 0000.0001)                 5.907428494299063E+10,      /* I = 91 */
(PID.TID 0000.0001)                 5.269930713599078E+10,      /* I = 92 */
(PID.TID 0000.0001)                 4.571243814190767E+10,      /* I = 93 */
(PID.TID 0000.0001)                 3.801790263325260E+10,      /* I = 94 */
(PID.TID 0000.0001)                 2.943712825251114E+10,      /* I = 95 */
(PID.TID 0000.0001)                 1.974052138509018E+10,      /* I = 96 */
(PID.TID 0000.0001)                 1.216690346714270E+10,      /* I = 97 */
(PID.TID 0000.0001)                 1.974052138506315E+10,      /* I = 98 */
(PID.TID 0000.0001)                 2.943712825252015E+10,      /* I = 99 */
(PID.TID 0000.0001)                 3.801790263324359E+10,      /* I =100 */
(PID.TID 0000.0001)                 4.571243814189866E+10,      /* I =101 */
(PID.TID 0000.0001)                 5.269930713599979E+10,      /* I =102 */
(PID.TID 0000.0001)                 5.907428494299063E+10,      /* I =103 */
(PID.TID 0000.0001)                 6.488320895111514E+10,      /* I =104 */
(PID.TID 0000.0001)                 7.014205907741882E+10,      /* I =105 */
(PID.TID 0000.0001)                 7.484854821847499E+10,      /* I =106 */
(PID.TID 0000.0001)                 7.898934631431560E+10,      /* I =107 */
(PID.TID 0000.0001)                 8.254500894894537E+10,      /* I =108 */
(PID.TID 0000.0001)                 8.549360686473492E+10,      /* I =109 */
(PID.TID 0000.0001)                 8.781353403175085E+10,      /* I =110 */
(PID.TID 0000.0001)                 8.948571540392021E+10,      /* I =111 */
(PID.TID 0000.0001)                 9.049530583086168E+10,      /* I =112 */
(PID.TID 0000.0001)                 9.083293515008307E+10,      /* I =113 */
(PID.TID 0000.0001)                 9.049530583087070E+10,      /* I =114 */
(PID.TID 0000.0001)                 8.948571540391121E+10,      /* I =115 */
(PID.TID 0000.0001)                 8.781353403174185E+10,      /* I =116 */
(PID.TID 0000.0001)                 8.549360686467184E+10,      /* I =117 */
(PID.TID 0000.0001)                 8.254500894890933E+10,      /* I =118 */
(PID.TID 0000.0001)                 7.898934631434262E+10,      /* I =119 */
(PID.TID 0000.0001)                 7.484854821844795E+10,      /* I =120 */
(PID.TID 0000.0001)                 7.014205907742783E+10,      /* I =121 */
(PID.TID 0000.0001)                 6.488320895111514E+10,      /* I =122 */
(PID.TID 0000.0001)                 5.907428494299063E+10,      /* I =123 */
(PID.TID 0000.0001)                 5.269930713599078E+10,      /* I =124 */
(PID.TID 0000.0001)                 4.571243814190767E+10,      /* I =125 */
(PID.TID 0000.0001)                 3.801790263325260E+10,      /* I =126 */
(PID.TID 0000.0001)                 2.943712825251114E+10,      /* I =127 */
(PID.TID 0000.0001)                 1.974052138509018E+10,      /* I =128 */
(PID.TID 0000.0001)                 1.216690346714270E+10,      /* I =129 */
(PID.TID 0000.0001)                 1.974052138506315E+10,      /* I =130 */
(PID.TID 0000.0001)                 2.943712825252015E+10,      /* I =131 */
(PID.TID 0000.0001)                 3.801790263324359E+10,      /* I =132 */
(PID.TID 0000.0001)                 4.571243814189866E+10,      /* I =133 */
(PID.TID 0000.0001)                 5.269930713599979E+10,      /* I =134 */
(PID.TID 0000.0001)                 5.907428494299063E+10,      /* I =135 */
(PID.TID 0000.0001)                 6.488320895111514E+10,      /* I =136 */
(PID.TID 0000.0001)                 7.014205907741882E+10,      /* I =137 */
(PID.TID 0000.0001)                 7.484854821847499E+10,      /* I =138 */
(PID.TID 0000.0001)                 7.898934631431560E+10,      /* I =139 */
(PID.TID 0000.0001)                 8.254500894894537E+10,      /* I =140 */
(PID.TID 0000.0001)                 8.549360686473492E+10,      /* I =141 */
(PID.TID 0000.0001)                 8.781353403175085E+10,      /* I =142 */
(PID.TID 0000.0001)                 8.948571540392021E+10,      /* I =143 */
(PID.TID 0000.0001)                 9.049530583086168E+10,      /* I =144 */
(PID.TID 0000.0001)                 9.083293515008307E+10,      /* I =145 */
(PID.TID 0000.0001)                 9.049530583087070E+10,      /* I =146 */
(PID.TID 0000.0001)                 8.948571540391121E+10,      /* I =147 */
(PID.TID 0000.0001)                 8.781353403174185E+10,      /* I =148 */
(PID.TID 0000.0001)                 8.549360686467184E+10,      /* I =149 */
(PID.TID 0000.0001)                 8.254500894890933E+10,      /* I =150 */
(PID.TID 0000.0001)                 7.898934631434262E+10,      /* I =151 */
(PID.TID 0000.0001)                 7.484854821844795E+10,      /* I =152 */
(PID.TID 0000.0001)                 7.014205907742783E+10,      /* I =153 */
(PID.TID 0000.0001)                 6.488320895111514E+10,      /* I =154 */
(PID.TID 0000.0001)                 5.907428494299063E+10,      /* I =155 */
(PID.TID 0000.0001)                 5.269930713599078E+10,      /* I =156 */
(PID.TID 0000.0001)                 4.571243814190767E+10,      /* I =157 */
(PID.TID 0000.0001)                 3.801790263325260E+10,      /* I =158 */
(PID.TID 0000.0001)                 2.943712825251114E+10,      /* I =159 */
(PID.TID 0000.0001)                 1.974052138509018E+10,      /* I =160 */
(PID.TID 0000.0001)                 1.216690346714270E+10,      /* I =161 */
(PID.TID 0000.0001)                 1.974052138506315E+10,      /* I =162 */
(PID.TID 0000.0001)                 2.943712825252015E+10,      /* I =163 */
(PID.TID 0000.0001)                 3.801790263324359E+10,      /* I =164 */
(PID.TID 0000.0001)                 4.571243814189866E+10,      /* I =165 */
(PID.TID 0000.0001)                 5.269930713599979E+10,      /* I =166 */
(PID.TID 0000.0001)                 5.907428494299063E+10,      /* I =167 */
(PID.TID 0000.0001)                 6.488320895111514E+10,      /* I =168 */
(PID.TID 0000.0001)                 7.014205907741882E+10,      /* I =169 */
(PID.TID 0000.0001)                 7.484854821847499E+10,      /* I =170 */
(PID.TID 0000.0001)                 7.898934631431560E+10,      /* I =171 */
(PID.TID 0000.0001)                 8.254500894894537E+10,      /* I =172 */
(PID.TID 0000.0001)                 8.549360686473492E+10,      /* I =173 */
(PID.TID 0000.0001)                 8.781353403175085E+10,      /* I =174 */
(PID.TID 0000.0001)                 8.948571540392021E+10,      /* I =175 */
(PID.TID 0000.0001)                 9.049530583086168E+10,      /* I =176 */
(PID.TID 0000.0001)                 9.083293515008307E+10,      /* I =177 */
(PID.TID 0000.0001)                 9.049530583087070E+10,      /* I =178 */
(PID.TID 0000.0001)                 8.948571540391121E+10,      /* I =179 */
(PID.TID 0000.0001)                 8.781353403174185E+10,      /* I =180 */
(PID.TID 0000.0001)                 8.549360686467184E+10,      /* I =181 */
(PID.TID 0000.0001)                 8.254500894890933E+10,      /* I =182 */
(PID.TID 0000.0001)                 7.898934631434262E+10,      /* I =183 */
(PID.TID 0000.0001)                 7.484854821844795E+10,      /* I =184 */
(PID.TID 0000.0001)                 7.014205907742783E+10,      /* I =185 */
(PID.TID 0000.0001)                 6.488320895111514E+10,      /* I =186 */
(PID.TID 0000.0001)                 5.907428494299063E+10,      /* I =187 */
(PID.TID 0000.0001)                 5.269930713599078E+10,      /* I =188 */
(PID.TID 0000.0001)                 4.571243814190767E+10,      /* I =189 */
(PID.TID 0000.0001)                 3.801790263325260E+10,      /* I =190 */
(PID.TID 0000.0001)                 2.943712825251114E+10,      /* I =191 */
(PID.TID 0000.0001)                 1.974052138509018E+10       /* I =192 */
(PID.TID 0000.0001)     ;
(PID.TID 0000.0001) rAw =  /* rAw(1,:,1,:) ( m - cartesian, degrees - spherical ) */
(PID.TID 0000.0001)                 1.216690346714270E+10,      /* J =  1 */
(PID.TID 0000.0001)                 2.390126200743558E+10,      /* J =  2 */
(PID.TID 0000.0001)                 3.341968103208270E+10,      /* J =  3 */
(PID.TID 0000.0001)                 4.168532893152940E+10,      /* J =  4 */
(PID.TID 0000.0001)                 4.909074590409593E+10,      /* J =  5 */
(PID.TID 0000.0001)                 5.581203765722643E+10,      /* J =  6 */
(PID.TID 0000.0001)                 6.193257577506788E+10,      /* J =  7 */
(PID.TID 0000.0001)                 6.748840226738273E+10,      /* J =  8 */
(PID.TID 0000.0001)                 7.248875782324815E+10,      /* J =  9 */
(PID.TID 0000.0001)                 7.692702995909871E+10,      /* J = 10 */
(PID.TID 0000.0001)                 8.078743937057304E+10,      /* J = 11 */
(PID.TID 0000.0001)                 8.404959656062837E+10,      /* J = 12 */
(PID.TID 0000.0001)                 8.669186205742538E+10,      /* J = 13 */
(PID.TID 0000.0001)                 8.869393350723613E+10,      /* J = 14 */
(PID.TID 0000.0001)                 9.003884657168852E+10,      /* J = 15 */
(PID.TID 0000.0001)     2 @  9.071447638299399E+10,             /* J = 16: 17 */
(PID.TID 0000.0001)                 9.003884657168852E+10,      /* J = 18 */
(PID.TID 0000.0001)                 8.869393350723613E+10,      /* J = 19 */
(PID.TID 0000.0001)                 8.669186205742538E+10,      /* J = 20 */
(PID.TID 0000.0001)                 8.404959656062837E+10,      /* J = 21 */
(PID.TID 0000.0001)                 8.078743937057304E+10,      /* J = 22 */
(PID.TID 0000.0001)                 7.692702995909871E+10,      /* J = 23 */
(PID.TID 0000.0001)                 7.248875782324815E+10,      /* J = 24 */
(PID.TID 0000.0001)                 6.748840226738273E+10,      /* J = 25 */
(PID.TID 0000.0001)                 6.193257577506788E+10,      /* J = 26 */
(PID.TID 0000.0001)                 5.581203765722643E+10,      /* J = 27 */
(PID.TID 0000.0001)                 4.909074590409593E+10,      /* J = 28 */
(PID.TID 0000.0001)                 4.168532893152940E+10,      /* J = 29 */
(PID.TID 0000.0001)                 3.341968103208270E+10,      /* J = 30 */
(PID.TID 0000.0001)                 2.390126200743558E+10,      /* J = 31 */
(PID.TID 0000.0001)                 1.216690346714270E+10       /* J = 32 */
(PID.TID 0000.0001)     ;
(PID.TID 0000.0001) rAs =  /* rAs(:,1,:,1) ( m - cartesian, degrees - spherical ) */
(PID.TID 0000.0001)                 1.216690346714270E+10,      /* I =  1 */
(PID.TID 0000.0001)                 2.390126200743558E+10,      /* I =  2 */
(PID.TID 0000.0001)                 3.341968103208270E+10,      /* I =  3 */
(PID.TID 0000.0001)                 4.168532893152940E+10,      /* I =  4 */
(PID.TID 0000.0001)                 4.909074590409593E+10,      /* I =  5 */
(PID.TID 0000.0001)                 5.581203765722643E+10,      /* I =  6 */
(PID.TID 0000.0001)                 6.193257577506788E+10,      /* I =  7 */
(PID.TID 0000.0001)                 6.748840226738273E+10,      /* I =  8 */
(PID.TID 0000.0001)                 7.248875782324815E+10,      /* I =  9 */
(PID.TID 0000.0001)                 7.692702995909871E+10,      /* I = 10 */
(PID.TID 0000.0001)                 8.078743937057304E+10,      /* I = 11 */
(PID.TID 0000.0001)                 8.404959656062837E+10,      /* I = 12 */
(PID.TID 0000.0001)                 8.669186205742538E+10,      /* I = 13 */
(PID.TID 0000.0001)                 8.869393350723613E+10,      /* I = 14 */
(PID.TID 0000.0001)                 9.003884657168852E+10,      /* I = 15 */
(PID.TID 0000.0001)     2 @  9.071447638299399E+10,             /* I = 16: 17 */
(PID.TID 0000.0001)                 9.003884657168852E+10,      /* I = 18 */
(PID.TID 0000.0001)                 8.869393350723613E+10,      /* I = 19 */
(PID.TID 0000.0001)                 8.669186205742538E+10,      /* I = 20 */
(PID.TID 0000.0001)                 8.404959656062837E+10,      /* I = 21 */
(PID.TID 0000.0001)                 8.078743937057304E+10,      /* I = 22 */
(PID.TID 0000.0001)                 7.692702995909871E+10,      /* I = 23 */
(PID.TID 0000.0001)                 7.248875782324815E+10,      /* I = 24 */
(PID.TID 0000.0001)                 6.748840226738273E+10,      /* I = 25 */
(PID.TID 0000.0001)                 6.193257577506788E+10,      /* I = 26 */
(PID.TID 0000.0001)                 5.581203765722643E+10,      /* I = 27 */
(PID.TID 0000.0001)                 4.909074590409593E+10,      /* I = 28 */
(PID.TID 0000.0001)                 4.168532893152940E+10,      /* I = 29 */
(PID.TID 0000.0001)                 3.341968103208270E+10,      /* I = 30 */
(PID.TID 0000.0001)                 2.390126200743558E+10,      /* I = 31 */
(PID.TID 0000.0001)     2 @  1.216690346714270E+10,             /* I = 32: 33 */
(PID.TID 0000.0001)                 2.390126200743558E+10,      /* I = 34 */
(PID.TID 0000.0001)                 3.341968103208270E+10,      /* I = 35 */
(PID.TID 0000.0001)                 4.168532893152940E+10,      /* I = 36 */
(PID.TID 0000.0001)                 4.909074590409593E+10,      /* I = 37 */
(PID.TID 0000.0001)                 5.581203765722643E+10,      /* I = 38 */
(PID.TID 0000.0001)                 6.193257577506788E+10,      /* I = 39 */
(PID.TID 0000.0001)                 6.748840226738273E+10,      /* I = 40 */
(PID.TID 0000.0001)                 7.248875782324815E+10,      /* I = 41 */
(PID.TID 0000.0001)                 7.692702995909871E+10,      /* I = 42 */
(PID.TID 0000.0001)                 8.078743937057304E+10,      /* I = 43 */
(PID.TID 0000.0001)                 8.404959656062837E+10,      /* I = 44 */
(PID.TID 0000.0001)                 8.669186205742538E+10,      /* I = 45 */
(PID.TID 0000.0001)                 8.869393350723613E+10,      /* I = 46 */
(PID.TID 0000.0001)                 9.003884657168852E+10,      /* I = 47 */
(PID.TID 0000.0001)     2 @  9.071447638299399E+10,             /* I = 48: 49 */
(PID.TID 0000.0001)                 9.003884657168852E+10,      /* I = 50 */
(PID.TID 0000.0001)                 8.869393350723613E+10,      /* I = 51 */
(PID.TID 0000.0001)                 8.669186205742538E+10,      /* I = 52 */
(PID.TID 0000.0001)                 8.404959656062837E+10,      /* I = 53 */
(PID.TID 0000.0001)                 8.078743937057304E+10,      /* I = 54 */
(PID.TID 0000.0001)                 7.692702995909871E+10,      /* I = 55 */
(PID.TID 0000.0001)                 7.248875782324815E+10,      /* I = 56 */
(PID.TID 0000.0001)                 6.748840226738273E+10,      /* I = 57 */
(PID.TID 0000.0001)                 6.193257577506788E+10,      /* I = 58 */
(PID.TID 0000.0001)                 5.581203765722643E+10,      /* I = 59 */
(PID.TID 0000.0001)                 4.909074590409593E+10,      /* I = 60 */
(PID.TID 0000.0001)                 4.168532893152940E+10,      /* I = 61 */
(PID.TID 0000.0001)                 3.341968103208270E+10,      /* I = 62 */
(PID.TID 0000.0001)                 2.390126200743558E+10,      /* I = 63 */
(PID.TID 0000.0001)     2 @  1.216690346714270E+10,             /* I = 64: 65 */
(PID.TID 0000.0001)                 2.390126200743558E+10,      /* I = 66 */
(PID.TID 0000.0001)                 3.341968103208270E+10,      /* I = 67 */
(PID.TID 0000.0001)                 4.168532893152940E+10,      /* I = 68 */
(PID.TID 0000.0001)                 4.909074590409593E+10,      /* I = 69 */
(PID.TID 0000.0001)                 5.581203765722643E+10,      /* I = 70 */
(PID.TID 0000.0001)                 6.193257577506788E+10,      /* I = 71 */
(PID.TID 0000.0001)                 6.748840226738273E+10,      /* I = 72 */
(PID.TID 0000.0001)                 7.248875782324815E+10,      /* I = 73 */
(PID.TID 0000.0001)                 7.692702995909871E+10,      /* I = 74 */
(PID.TID 0000.0001)                 8.078743937057304E+10,      /* I = 75 */
(PID.TID 0000.0001)                 8.404959656062837E+10,      /* I = 76 */
(PID.TID 0000.0001)                 8.669186205742538E+10,      /* I = 77 */
(PID.TID 0000.0001)                 8.869393350723613E+10,      /* I = 78 */
(PID.TID 0000.0001)                 9.003884657168852E+10,      /* I = 79 */
(PID.TID 0000.0001)     2 @  9.071447638299399E+10,             /* I = 80: 81 */
(PID.TID 0000.0001)                 9.003884657168852E+10,      /* I = 82 */
(PID.TID 0000.0001)                 8.869393350723613E+10,      /* I = 83 */
(PID.TID 0000.0001)                 8.669186205742538E+10,      /* I = 84 */
(PID.TID 0000.0001)                 8.404959656062837E+10,      /* I = 85 */
(PID.TID 0000.0001)                 8.078743937057304E+10,      /* I = 86 */
(PID.TID 0000.0001)                 7.692702995909871E+10,      /* I = 87 */
(PID.TID 0000.0001)                 7.248875782324815E+10,      /* I = 88 */
(PID.TID 0000.0001)                 6.748840226738273E+10,      /* I = 89 */
(PID.TID 0000.0001)                 6.193257577506788E+10,      /* I = 90 */
(PID.TID 0000.0001)                 5.581203765722643E+10,      /* I = 91 */
(PID.TID 0000.0001)                 4.909074590409593E+10,      /* I = 92 */
(PID.TID 0000.0001)                 4.168532893152940E+10,      /* I = 93 */
(PID.TID 0000.0001)                 3.341968103208270E+10,      /* I = 94 */
(PID.TID 0000.0001)                 2.390126200743558E+10,      /* I = 95 */
(PID.TID 0000.0001)     2 @  1.216690346714270E+10,             /* I = 96: 97 */
(PID.TID 0000.0001)                 2.390126200743558E+10,      /* I = 98 */
(PID.TID 0000.0001)                 3.341968103208270E+10,      /* I = 99 */
(PID.TID 0000.0001)                 4.168532893152940E+10,      /* I =100 */
(PID.TID 0000.0001)                 4.909074590409593E+10,      /* I =101 */
(PID.TID 0000.0001)                 5.581203765722643E+10,      /* I =102 */
(PID.TID 0000.0001)                 6.193257577506788E+10,      /* I =103 */
(PID.TID 0000.0001)                 6.748840226738273E+10,      /* I =104 */
(PID.TID 0000.0001)                 7.248875782324815E+10,      /* I =105 */
(PID.TID 0000.0001)                 7.692702995909871E+10,      /* I =106 */
(PID.TID 0000.0001)                 8.078743937057304E+10,      /* I =107 */
(PID.TID 0000.0001)                 8.404959656062837E+10,      /* I =108 */
(PID.TID 0000.0001)                 8.669186205742538E+10,      /* I =109 */
(PID.TID 0000.0001)                 8.869393350723613E+10,      /* I =110 */
(PID.TID 0000.0001)                 9.003884657168852E+10,      /* I =111 */
(PID.TID 0000.0001)     2 @  9.071447638299399E+10,             /* I =112:113 */
(PID.TID 0000.0001)                 9.003884657168852E+10,      /* I =114 */
(PID.TID 0000.0001)                 8.869393350723613E+10,      /* I =115 */
(PID.TID 0000.0001)                 8.669186205742538E+10,      /* I =116 */
(PID.TID 0000.0001)                 8.404959656062837E+10,      /* I =117 */
(PID.TID 0000.0001)                 8.078743937057304E+10,      /* I =118 */
(PID.TID 0000.0001)                 7.692702995909871E+10,      /* I =119 */
(PID.TID 0000.0001)                 7.248875782324815E+10,      /* I =120 */
(PID.TID 0000.0001)                 6.748840226738273E+10,      /* I =121 */
(PID.TID 0000.0001)                 6.193257577506788E+10,      /* I =122 */
(PID.TID 0000.0001)                 5.581203765722643E+10,      /* I =123 */
(PID.TID 0000.0001)                 4.909074590409593E+10,      /* I =124 */
(PID.TID 0000.0001)                 4.168532893152940E+10,      /* I =125 */
(PID.TID 0000.0001)                 3.341968103208270E+10,      /* I =126 */
(PID.TID 0000.0001)                 2.390126200743558E+10,      /* I =127 */
(PID.TID 0000.0001)     2 @  1.216690346714270E+10,             /* I =128:129 */
(PID.TID 0000.0001)                 2.390126200743558E+10,      /* I =130 */
(PID.TID 0000.0001)                 3.341968103208270E+10,      /* I =131 */
(PID.TID 0000.0001)                 4.168532893152940E+10,      /* I =132 */
(PID.TID 0000.0001)                 4.909074590409593E+10,      /* I =133 */
(PID.TID 0000.0001)                 5.581203765722643E+10,      /* I =134 */
(PID.TID 0000.0001)                 6.193257577506788E+10,      /* I =135 */
(PID.TID 0000.0001)                 6.748840226738273E+10,      /* I =136 */
(PID.TID 0000.0001)                 7.248875782324815E+10,      /* I =137 */
(PID.TID 0000.0001)                 7.692702995909871E+10,      /* I =138 */
(PID.TID 0000.0001)                 8.078743937057304E+10,      /* I =139 */
(PID.TID 0000.0001)                 8.404959656062837E+10,      /* I =140 */
(PID.TID 0000.0001)                 8.669186205742538E+10,      /* I =141 */
(PID.TID 0000.0001)                 8.869393350723613E+10,      /* I =142 */
(PID.TID 0000.0001)                 9.003884657168852E+10,      /* I =143 */
(PID.TID 0000.0001)     2 @  9.071447638299399E+10,             /* I =144:145 */
(PID.TID 0000.0001)                 9.003884657168852E+10,      /* I =146 */
(PID.TID 0000.0001)                 8.869393350723613E+10,      /* I =147 */
(PID.TID 0000.0001)                 8.669186205742538E+10,      /* I =148 */
(PID.TID 0000.0001)                 8.404959656062837E+10,      /* I =149 */
(PID.TID 0000.0001)                 8.078743937057304E+10,      /* I =150 */
(PID.TID 0000.0001)                 7.692702995909871E+10,      /* I =151 */
(PID.TID 0000.0001)                 7.248875782324815E+10,      /* I =152 */
(PID.TID 0000.0001)                 6.748840226738273E+10,      /* I =153 */
(PID.TID 0000.0001)                 6.193257577506788E+10,      /* I =154 */
(PID.TID 0000.0001)                 5.581203765722643E+10,      /* I =155 */
(PID.TID 0000.0001)                 4.909074590409593E+10,      /* I =156 */
(PID.TID 0000.0001)                 4.168532893152940E+10,      /* I =157 */
(PID.TID 0000.0001)                 3.341968103208270E+10,      /* I =158 */
(PID.TID 0000.0001)                 2.390126200743558E+10,      /* I =159 */
(PID.TID 0000.0001)     2 @  1.216690346714270E+10,             /* I =160:161 */
(PID.TID 0000.0001)                 2.390126200743558E+10,      /* I =162 */
(PID.TID 0000.0001)                 3.341968103208270E+10,      /* I =163 */
(PID.TID 0000.0001)                 4.168532893152940E+10,      /* I =164 */
(PID.TID 0000.0001)                 4.909074590409593E+10,      /* I =165 */
(PID.TID 0000.0001)                 5.581203765722643E+10,      /* I =166 */
(PID.TID 0000.0001)                 6.193257577506788E+10,      /* I =167 */
(PID.TID 0000.0001)                 6.748840226738273E+10,      /* I =168 */
(PID.TID 0000.0001)                 7.248875782324815E+10,      /* I =169 */
(PID.TID 0000.0001)                 7.692702995909871E+10,      /* I =170 */
(PID.TID 0000.0001)                 8.078743937057304E+10,      /* I =171 */
(PID.TID 0000.0001)                 8.404959656062837E+10,      /* I =172 */
(PID.TID 0000.0001)                 8.669186205742538E+10,      /* I =173 */
(PID.TID 0000.0001)                 8.869393350723613E+10,      /* I =174 */
(PID.TID 0000.0001)                 9.003884657168852E+10,      /* I =175 */
(PID.TID 0000.0001)     2 @  9.071447638299399E+10,             /* I =176:177 */
(PID.TID 0000.0001)                 9.003884657168852E+10,      /* I =178 */
(PID.TID 0000.0001)                 8.869393350723613E+10,      /* I =179 */
(PID.TID 0000.0001)                 8.669186205742538E+10,      /* I =180 */
(PID.TID 0000.0001)                 8.404959656062837E+10,      /* I =181 */
(PID.TID 0000.0001)                 8.078743937057304E+10,      /* I =182 */
(PID.TID 0000.0001)                 7.692702995909871E+10,      /* I =183 */
(PID.TID 0000.0001)                 7.248875782324815E+10,      /* I =184 */
(PID.TID 0000.0001)                 6.748840226738273E+10,      /* I =185 */
(PID.TID 0000.0001)                 6.193257577506788E+10,      /* I =186 */
(PID.TID 0000.0001)                 5.581203765722643E+10,      /* I =187 */
(PID.TID 0000.0001)                 4.909074590409593E+10,      /* I =188 */
(PID.TID 0000.0001)                 4.168532893152940E+10,      /* I =189 */
(PID.TID 0000.0001)                 3.341968103208270E+10,      /* I =190 */
(PID.TID 0000.0001)                 2.390126200743558E+10,      /* I =191 */
(PID.TID 0000.0001)                 1.216690346714270E+10       /* I =192 */
(PID.TID 0000.0001)     ;
(PID.TID 0000.0001) rAs =  /* rAs(1,:,1,:) ( m - cartesian, degrees - spherical ) */
(PID.TID 0000.0001)                 1.216690346714270E+10,      /* J =  1 */
(PID.TID 0000.0001)                 1.974052138506315E+10,      /* J =  2 */
(PID.TID 0000.0001)                 2.943712825252015E+10,      /* J =  3 */
(PID.TID 0000.0001)                 3.801790263324359E+10,      /* J =  4 */
(PID.TID 0000.0001)                 4.571243814189866E+10,      /* J =  5 */
(PID.TID 0000.0001)                 5.269930713599979E+10,      /* J =  6 */
(PID.TID 0000.0001)                 5.907428494299063E+10,      /* J =  7 */
(PID.TID 0000.0001)                 6.488320895111514E+10,      /* J =  8 */
(PID.TID 0000.0001)                 7.014205907741882E+10,      /* J =  9 */
(PID.TID 0000.0001)                 7.484854821847499E+10,      /* J = 10 */
(PID.TID 0000.0001)                 7.898934631431560E+10,      /* J = 11 */
(PID.TID 0000.0001)                 8.254500894894537E+10,      /* J = 12 */
(PID.TID 0000.0001)                 8.549360686473492E+10,      /* J = 13 */
(PID.TID 0000.0001)                 8.781353403175085E+10,      /* J = 14 */
(PID.TID 0000.0001)                 8.948571540392021E+10,      /* J = 15 */
(PID.TID 0000.0001)                 9.049530583086168E+10,      /* J = 16 */
(PID.TID 0000.0001)                 9.083293515008307E+10,      /* J = 17 */
(PID.TID 0000.0001)                 9.049530583087070E+10,      /* J = 18 */
(PID.TID 0000.0001)                 8.948571540391121E+10,      /* J = 19 */
(PID.TID 0000.0001)                 8.781353403174185E+10,      /* J = 20 */
(PID.TID 0000.0001)                 8.549360686467184E+10,      /* J = 21 */
(PID.TID 0000.0001)                 8.254500894890933E+10,      /* J = 22 */
(PID.TID 0000.0001)                 7.898934631434262E+10,      /* J = 23 */
(PID.TID 0000.0001)                 7.484854821844795E+10,      /* J = 24 */
(PID.TID 0000.0001)                 7.014205907742783E+10,      /* J = 25 */
(PID.TID 0000.0001)                 6.488320895111514E+10,      /* J = 26 */
(PID.TID 0000.0001)                 5.907428494299063E+10,      /* J = 27 */
(PID.TID 0000.0001)                 5.269930713599078E+10,      /* J = 28 */
(PID.TID 0000.0001)                 4.571243814190767E+10,      /* J = 29 */
(PID.TID 0000.0001)                 3.801790263325260E+10,      /* J = 30 */
(PID.TID 0000.0001)                 2.943712825251114E+10,      /* J = 31 */
(PID.TID 0000.0001)                 1.974052138509018E+10       /* J = 32 */
(PID.TID 0000.0001)     ;
(PID.TID 0000.0001) 
(PID.TID 0000.0001)  MDSREADFIELD: opening global file: pickup.0000072000
(PID.TID 0000.0001)  MDSREADFIELD: opening global file: pickup.0000072000
(PID.TID 0000.0001)  MDSREADFIELD: opening global file: pickup.0000072000
(PID.TID 0000.0001)  MDSREADFIELD: opening global file: pickup.0000072000
(PID.TID 0000.0001)  MDSREADFIELD: opening global file: pickup.0000072000
(PID.TID 0000.0001)  MDSREADFIELD: opening global file: pickup.0000072000
(PID.TID 0000.0001)  MDSREADFIELD: opening global file: pickup.0000072000
(PID.TID 0000.0001)  MDSREADFIELD: opening global file: pickup.0000072000
(PID.TID 0000.0001)  MDSREADFIELD: opening global file: pickup.0000072000
(PID.TID 0000.0001)  MDSREADFIELD: opening global file: pickup.0000072000
(PID.TID 0000.0001)  MDSREADFIELD: opening global file: pickup.0000072000
(PID.TID 0000.0001)  MDSREADFIELD: opening global file: pickup.0000072000
(PID.TID 0000.0001)  MDSREADFIELD: opening global file: pickup.0000072000
(PID.TID 0000.0001)  MDSREADFIELD: opening global file: pickup.0000072000
(PID.TID 0000.0001)  MDSREADFIELD: opening global file: trenberth_taux.bin
(PID.TID 0000.0001)  MDSREADFIELD: opening global file: trenberth_tauy.bin
(PID.TID 0000.0001)  MDSREADFIELD: opening global file: shiQnet_cs32.bin
(PID.TID 0000.0001)  MDSREADFIELD: opening global file: shiEmPR_cs32.bin
(PID.TID 0000.0001)  MDSREADFIELD: opening global file: lev_surfT_cs_12m.bin
(PID.TID 0000.0001)  MDSREADFIELD: opening global file: lev_surfS_cs_12m.bin
(PID.TID 0000.0001) // =======================================================
(PID.TID 0000.0001) // Model current state
(PID.TID 0000.0001) // =======================================================
(PID.TID 0000.0001) 
(PID.TID 0000.0001) // =======================================================
(PID.TID 0000.0001) // Begin MONITOR dynamic field statistics
(PID.TID 0000.0001) // =======================================================
(PID.TID 0000.0001) %MON time_tsnumber                =                 72000
(PID.TID 0000.0001) %MON time_secondsf                =   6.2208000000000E+09
(PID.TID 0000.0001) %MON dynstat_eta_max              =   9.2031710416644E-01
(PID.TID 0000.0001) %MON dynstat_eta_min              =  -1.6158898521137E+00
(PID.TID 0000.0001) %MON dynstat_eta_mean             =   5.1480998445202E-13
(PID.TID 0000.0001) %MON dynstat_eta_sd               =   5.9847717066274E-01
(PID.TID 0000.0001) %MON dynstat_eta_del2             =   1.1251605767407E-02
(PID.TID 0000.0001) %MON dynstat_uvel_max             =   1.8517049457442E-01
(PID.TID 0000.0001) %MON dynstat_uvel_min             =  -2.8835551845614E-01
(PID.TID 0000.0001) %MON dynstat_uvel_mean            =  -4.9175736870843E-04
(PID.TID 0000.0001) %MON dynstat_uvel_sd              =   1.2028057164777E-02
(PID.TID 0000.0001) %MON dynstat_uvel_del2            =   1.5709654569602E-03
(PID.TID 0000.0001) %MON dynstat_vvel_max             =   1.7299533857874E-01
(PID.TID 0000.0001) %MON dynstat_vvel_min             =  -2.2520988227009E-01
(PID.TID 0000.0001) %MON dynstat_vvel_mean            =  -4.0631664205781E-04
(PID.TID 0000.0001) %MON dynstat_vvel_sd              =   1.2644762195493E-02
(PID.TID 0000.0001) %MON dynstat_vvel_del2            =   1.5971822645558E-03
(PID.TID 0000.0001) %MON dynstat_wvel_max             =   1.0344867086358E-04
(PID.TID 0000.0001) %MON dynstat_wvel_min             =  -2.0500104931219E-04
(PID.TID 0000.0001) %MON dynstat_wvel_mean            =  -1.3432070588306E-22
(PID.TID 0000.0001) %MON dynstat_wvel_sd              =   3.9261311582711E-06
(PID.TID 0000.0001) %MON dynstat_wvel_del2            =   8.6593180221462E-07
(PID.TID 0000.0001) %MON dynstat_theta_max            =   3.0924013283713E+01
(PID.TID 0000.0001) %MON dynstat_theta_min            =  -1.9000000000000E+00
(PID.TID 0000.0001) %MON dynstat_theta_mean           =   3.9275394625369E+00
(PID.TID 0000.0001) %MON dynstat_theta_sd             =   4.5734331116607E+00
(PID.TID 0000.0001) %MON dynstat_theta_del2           =   8.7882177717031E-02
(PID.TID 0000.0001) %MON dynstat_salt_max             =   4.1446610064801E+01
(PID.TID 0000.0001) %MON dynstat_salt_min             =   1.8388095152689E+01
(PID.TID 0000.0001) %MON dynstat_salt_mean            =   3.4775230475917E+01
(PID.TID 0000.0001) %MON dynstat_salt_sd              =   5.3485821940028E-01
(PID.TID 0000.0001) %MON dynstat_salt_del2            =   1.8920977928815E-02
(PID.TID 0000.0001) %MON advcfl_uvel_max              =   8.1783094759596E-02
(PID.TID 0000.0001) %MON advcfl_vvel_max              =   7.5406230891088E-02
(PID.TID 0000.0001) %MON advcfl_wvel_max              =   6.6838077964427E-02
(PID.TID 0000.0001) %MON advcfl_W_hf_max              =   1.2188911835741E-01
(PID.TID 0000.0001) %MON pe_b_mean                    =   4.7715518783330E-04
(PID.TID 0000.0001) %MON ke_max                       =   4.0740421351592E-02
(PID.TID 0000.0001) %MON ke_mean                      =   1.4082925841100E-04
(PID.TID 0000.0001) %MON ke_vol                       =   1.3398024453628E+18
(PID.TID 0000.0001) %MON vort_r_min                   =  -1.1842642992323E-06
(PID.TID 0000.0001) %MON vort_r_max                   =   1.2117641406288E-06
(PID.TID 0000.0001) %MON vort_a_mean                  =  -2.0491686442382E-05
(PID.TID 0000.0001) %MON vort_a_sd                    =   7.5056307375080E-05
(PID.TID 0000.0001) %MON vort_p_mean                  =  -2.4712552243537E-05
(PID.TID 0000.0001) %MON vort_p_sd                    =   1.2774946922349E-04
(PID.TID 0000.0001) %MON surfExpan_theta_mean         =   3.9712143563998E-08
(PID.TID 0000.0001) %MON surfExpan_salt_mean          =   1.5431451125598E-08
(PID.TID 0000.0001) // =======================================================
(PID.TID 0000.0001) // End MONITOR dynamic field statistics
(PID.TID 0000.0001) // =======================================================
(PID.TID 0000.0001) // =======================================================
(PID.TID 0000.0001) // Begin MONITOR Therm.SeaIce statistics
(PID.TID 0000.0001) // =======================================================
(PID.TID 0000.0001) %MON thSI_time_sec                =   6.2208000000000E+09
(PID.TID 0000.0001) %MON thSI_Ice_Area_G              =   0.0000000000000E+00
(PID.TID 0000.0001) %MON thSI_Ice_Area_S              =   0.0000000000000E+00
(PID.TID 0000.0001) %MON thSI_Ice_Area_N              =   0.0000000000000E+00
(PID.TID 0000.0001) %MON thSI_IceH_ave_G              =   0.0000000000000E+00
(PID.TID 0000.0001) %MON thSI_IceH_ave_S              =   0.0000000000000E+00
(PID.TID 0000.0001) %MON thSI_IceH_ave_N              =   0.0000000000000E+00
(PID.TID 0000.0001) %MON thSI_IceH_max_S              =   0.0000000000000E+00
(PID.TID 0000.0001) %MON thSI_IceH_max_N              =   0.0000000000000E+00
(PID.TID 0000.0001) %MON thSI_SnwH_ave_G              =   0.0000000000000E+00
(PID.TID 0000.0001) %MON thSI_SnwH_ave_S              =   0.0000000000000E+00
(PID.TID 0000.0001) %MON thSI_SnwH_ave_N              =   0.0000000000000E+00
(PID.TID 0000.0001) %MON thSI_SnwH_max_S              =   0.0000000000000E+00
(PID.TID 0000.0001) %MON thSI_SnwH_max_N              =   0.0000000000000E+00
(PID.TID 0000.0001) %MON thSI_TotEnerg_G              =   0.0000000000000E+00
(PID.TID 0000.0001) %MON thSI_Tsrf_ave_G              =   0.0000000000000E+00
(PID.TID 0000.0001) %MON thSI_Tsrf_ave_S              =   0.0000000000000E+00
(PID.TID 0000.0001) %MON thSI_Tsrf_ave_N              =   0.0000000000000E+00
(PID.TID 0000.0001) %MON thSI_Tsrf_min_S              =   0.0000000000000E+00
(PID.TID 0000.0001) %MON thSI_Tsrf_min_N              =   0.0000000000000E+00
(PID.TID 0000.0001) %MON thSI_Tsrf_max_S              =   0.0000000000000E+00
(PID.TID 0000.0001) %MON thSI_Tsrf_max_N              =   0.0000000000000E+00
(PID.TID 0000.0001) %MON thSI_Tic1_ave_G              =   0.0000000000000E+00
(PID.TID 0000.0001) %MON thSI_Tic1_ave_S              =   0.0000000000000E+00
(PID.TID 0000.0001) %MON thSI_Tic1_ave_N              =   0.0000000000000E+00
(PID.TID 0000.0001) %MON thSI_Tic1_min_S              =   0.0000000000000E+00
(PID.TID 0000.0001) %MON thSI_Tic1_min_N              =   0.0000000000000E+00
(PID.TID 0000.0001) %MON thSI_Tic1_max_S              =   0.0000000000000E+00
(PID.TID 0000.0001) %MON thSI_Tic1_max_N              =   0.0000000000000E+00
(PID.TID 0000.0001) %MON thSI_Tic2_ave_G              =   0.0000000000000E+00
(PID.TID 0000.0001) %MON thSI_Tic2_ave_S              =   0.0000000000000E+00
(PID.TID 0000.0001) %MON thSI_Tic2_ave_N              =   0.0000000000000E+00
(PID.TID 0000.0001) %MON thSI_Tic2_min_S              =   0.0000000000000E+00
(PID.TID 0000.0001) %MON thSI_Tic2_min_N              =   0.0000000000000E+00
(PID.TID 0000.0001) %MON thSI_Tic2_max_S              =   0.0000000000000E+00
(PID.TID 0000.0001) %MON thSI_Tic2_max_N              =   0.0000000000000E+00
(PID.TID 0000.0001) // =======================================================
(PID.TID 0000.0001) // End MONITOR Therm.SeaIce statistics
(PID.TID 0000.0001) // =======================================================
 S/R BULKF_FIELDS_LOAD
(PID.TID 0000.0001)  MDSREADFIELD: opening global file: ncep_tair_cs.bin
(PID.TID 0000.0001)  MDSREADFIELD: opening global file: ncep_tair_cs.bin
(PID.TID 0000.0001)  MDSREADFIELD: opening global file: ncep_qair_cs.bin
(PID.TID 0000.0001)  MDSREADFIELD: opening global file: ncep_qair_cs.bin
(PID.TID 0000.0001)  MDSREADFIELD: opening global file: ncep_precip_cs.bin
(PID.TID 0000.0001)  MDSREADFIELD: opening global file: ncep_precip_cs.bin
(PID.TID 0000.0001)  MDSREADFIELD: opening global file: ncep_downsolar_cs.bin
(PID.TID 0000.0001)  MDSREADFIELD: opening global file: ncep_downsolar_cs.bin
(PID.TID 0000.0001)  MDSREADFIELD: opening global file: ncep_downlw_cs.bin
(PID.TID 0000.0001)  MDSREADFIELD: opening global file: ncep_downlw_cs.bin
(PID.TID 0000.0001)  MDSREADFIELD: opening global file: ncep_windspeed_cs.bin
(PID.TID 0000.0001)  MDSREADFIELD: opening global file: ncep_windspeed_cs.bin
(PID.TID 0000.0001)  MDSREADFIELD: opening global file: trenberth_taux.bin
(PID.TID 0000.0001)  MDSREADFIELD: opening global file: trenberth_taux.bin
(PID.TID 0000.0001)  MDSREADFIELD: opening global file: trenberth_tauy.bin
(PID.TID 0000.0001)  MDSREADFIELD: opening global file: trenberth_tauy.bin
(PID.TID 0000.0001)  MDSREADFIELD: opening global file: lev_surfT_cs_12m.bin
(PID.TID 0000.0001)  MDSREADFIELD: opening global file: lev_surfT_cs_12m.bin
(PID.TID 0000.0001)  MDSREADFIELD: opening global file: lev_surfS_cs_12m.bin
(PID.TID 0000.0001)  MDSREADFIELD: opening global file: lev_surfS_cs_12m.bin
 cg2d: Sum(rhs),rhsMax =  -3.45914186183904E-10  4.26611054403061E+00
(PID.TID 0000.0001)                    cg2d_init_res =    3.27779972865346E-01
(PID.TID 0000.0001)                       cg2d_iters =    64
(PID.TID 0000.0001)                         cg2d_res =    5.71042125688265E-07
(PID.TID 0000.0001) // =======================================================
(PID.TID 0000.0001) // Begin MONITOR dynamic field statistics
(PID.TID 0000.0001) // =======================================================
(PID.TID 0000.0001) %MON time_tsnumber                =                 72001
(PID.TID 0000.0001) %MON time_secondsf                =   6.2208864000000E+09
(PID.TID 0000.0001) %MON dynstat_eta_max              =   9.1748877201702E-01
(PID.TID 0000.0001) %MON dynstat_eta_min              =  -1.6135669960734E+00
(PID.TID 0000.0001) %MON dynstat_eta_mean             =   5.1460239054334E-13
(PID.TID 0000.0001) %MON dynstat_eta_sd               =   5.9802670664462E-01
(PID.TID 0000.0001) %MON dynstat_eta_del2             =   1.1213375803481E-02
(PID.TID 0000.0001) %MON dynstat_uvel_max             =   1.8547540832049E-01
(PID.TID 0000.0001) %MON dynstat_uvel_min             =  -2.8809636134284E-01
(PID.TID 0000.0001) %MON dynstat_uvel_mean            =  -4.9123179591594E-04
(PID.TID 0000.0001) %MON dynstat_uvel_sd              =   1.2027710093639E-02
(PID.TID 0000.0001) %MON dynstat_uvel_del2            =   1.5707307551845E-03
(PID.TID 0000.0001) %MON dynstat_vvel_max             =   1.7330724486423E-01
(PID.TID 0000.0001) %MON dynstat_vvel_min             =  -2.2516921010856E-01
(PID.TID 0000.0001) %MON dynstat_vvel_mean            =  -4.0731513974634E-04
(PID.TID 0000.0001) %MON dynstat_vvel_sd              =   1.2646944464931E-02
(PID.TID 0000.0001) %MON dynstat_vvel_del2            =   1.5963802335376E-03
(PID.TID 0000.0001) %MON dynstat_wvel_max             =   1.0356093199524E-04
(PID.TID 0000.0001) %MON dynstat_wvel_min             =  -2.0529679361005E-04
(PID.TID 0000.0001) %MON dynstat_wvel_mean            =   2.1190471047013E-22
(PID.TID 0000.0001) %MON dynstat_wvel_sd              =   3.9235941598922E-06
(PID.TID 0000.0001) %MON dynstat_wvel_del2            =   8.6674936228828E-07
(PID.TID 0000.0001) %MON dynstat_theta_max            =   3.0819211542129E+01
(PID.TID 0000.0001) %MON dynstat_theta_min            =  -2.2961651962370E+00
(PID.TID 0000.0001) %MON dynstat_theta_mean           =   3.9273754727273E+00
(PID.TID 0000.0001) %MON dynstat_theta_sd             =   4.5725596801412E+00
(PID.TID 0000.0001) %MON dynstat_theta_del2           =   8.7505504140786E-02
(PID.TID 0000.0001) %MON dynstat_salt_max             =   4.1450125804821E+01
(PID.TID 0000.0001) %MON dynstat_salt_min             =   1.8389486841625E+01
(PID.TID 0000.0001) %MON dynstat_salt_mean            =   3.4775262986700E+01
(PID.TID 0000.0001) %MON dynstat_salt_sd              =   5.3474985342809E-01
(PID.TID 0000.0001) %MON dynstat_salt_del2            =   1.8915277173554E-02
(PID.TID 0000.0001) %MON advcfl_uvel_max              =   8.1709592886393E-02
(PID.TID 0000.0001) %MON advcfl_vvel_max              =   7.5542186446732E-02
(PID.TID 0000.0001) %MON advcfl_wvel_max              =   6.6934501765691E-02
(PID.TID 0000.0001) %MON advcfl_W_hf_max              =   1.2146735245785E-01
(PID.TID 0000.0001) %MON pe_b_mean                    =   4.7643716428179E-04
(PID.TID 0000.0001) %MON ke_max                       =   4.0637791705257E-02
(PID.TID 0000.0001) %MON ke_mean                      =   1.4085115802827E-04
(PID.TID 0000.0001) %MON ke_vol                       =   1.3398024453628E+18
(PID.TID 0000.0001) %MON vort_r_min                   =  -1.1881225670037E-06
(PID.TID 0000.0001) %MON vort_r_max                   =   1.2131449064447E-06
(PID.TID 0000.0001) %MON vort_a_mean                  =  -2.0491686456051E-05
(PID.TID 0000.0001) %MON vort_a_sd                    =   7.5056307164986E-05
(PID.TID 0000.0001) %MON vort_p_mean                  =  -2.4712552260021E-05
(PID.TID 0000.0001) %MON vort_p_sd                    =   1.2774946835799E-04
(PID.TID 0000.0001) %MON surfExpan_theta_mean         =  -2.1052472356935E-08
(PID.TID 0000.0001) %MON surfExpan_salt_mean          =   5.6385313155547E-09
(PID.TID 0000.0001) // =======================================================
(PID.TID 0000.0001) // End MONITOR dynamic field statistics
(PID.TID 0000.0001) // =======================================================
(PID.TID 0000.0001) // =======================================================
(PID.TID 0000.0001) // Begin MONITOR Therm.SeaIce statistics
(PID.TID 0000.0001) // =======================================================
(PID.TID 0000.0001) %MON thSI_time_sec                =   6.2208864000000E+09
(PID.TID 0000.0001) %MON thSI_Ice_Area_G              =   3.2189190771016E+12
(PID.TID 0000.0001) %MON thSI_Ice_Area_S              =   1.8112851274931E+11
(PID.TID 0000.0001) %MON thSI_Ice_Area_N              =   3.0377905643523E+12
(PID.TID 0000.0001) %MON thSI_IceH_ave_G              =   2.0077119966351E-01
(PID.TID 0000.0001) %MON thSI_IceH_ave_S              =   2.0000000000000E-01
(PID.TID 0000.0001) %MON thSI_IceH_ave_N              =   2.0081718250700E-01
(PID.TID 0000.0001) %MON thSI_IceH_max_S              =   2.0000000000000E-01
(PID.TID 0000.0001) %MON thSI_IceH_max_N              =   2.1500941853021E-01
(PID.TID 0000.0001) %MON thSI_SnwH_ave_G              =   0.0000000000000E+00
(PID.TID 0000.0001) %MON thSI_SnwH_ave_S              =   0.0000000000000E+00
(PID.TID 0000.0001) %MON thSI_SnwH_ave_N              =   0.0000000000000E+00
(PID.TID 0000.0001) %MON thSI_SnwH_max_S              =   0.0000000000000E+00
(PID.TID 0000.0001) %MON thSI_SnwH_max_N              =   0.0000000000000E+00
(PID.TID 0000.0001) %MON thSI_TotEnerg_G              =  -1.9328430760173E+20
(PID.TID 0000.0001) %MON thSI_Tsrf_ave_G              =  -1.6979427652597E+00
(PID.TID 0000.0001) %MON thSI_Tsrf_ave_S              =  -1.8240332746077E+00
(PID.TID 0000.0001) %MON thSI_Tsrf_ave_N              =  -1.6904246082485E+00
(PID.TID 0000.0001) %MON thSI_Tsrf_min_S              =  -1.8320631851505E+00
(PID.TID 0000.0001) %MON thSI_Tsrf_min_N              =  -1.8532618166070E+00
(PID.TID 0000.0001) %MON thSI_Tsrf_max_S              =  -1.8108094224840E+00
(PID.TID 0000.0001) %MON thSI_Tsrf_max_N              =  -1.6193226179827E+00
(PID.TID 0000.0001) %MON thSI_Tic1_ave_G              =  -1.6976469716969E+00
(PID.TID 0000.0001) %MON thSI_Tic1_ave_S              =  -1.8240332746077E+00
(PID.TID 0000.0001) %MON thSI_Tic1_ave_N              =  -1.6901418432685E+00
(PID.TID 0000.0001) %MON thSI_Tic1_min_S              =  -1.8320631851505E+00
(PID.TID 0000.0001) %MON thSI_Tic1_min_N              =  -1.8532618166070E+00
(PID.TID 0000.0001) %MON thSI_Tic1_max_S              =  -1.8108094224840E+00
(PID.TID 0000.0001) %MON thSI_Tic1_max_N              =  -1.6193226179827E+00
(PID.TID 0000.0001) %MON thSI_Tic2_ave_G              =  -1.6976469716969E+00
(PID.TID 0000.0001) %MON thSI_Tic2_ave_S              =  -1.8240332746077E+00
(PID.TID 0000.0001) %MON thSI_Tic2_ave_N              =  -1.6901418432685E+00
(PID.TID 0000.0001) %MON thSI_Tic2_min_S              =  -1.8320631851505E+00
(PID.TID 0000.0001) %MON thSI_Tic2_min_N              =  -1.8532618166070E+00
(PID.TID 0000.0001) %MON thSI_Tic2_max_S              =  -1.8108094224840E+00
(PID.TID 0000.0001) %MON thSI_Tic2_max_N              =  -1.6193226179827E+00
(PID.TID 0000.0001) // =======================================================
(PID.TID 0000.0001) // End MONITOR Therm.SeaIce statistics
(PID.TID 0000.0001) // =======================================================
 cg2d: Sum(rhs),rhsMax =  -3.46033812714808E-10  4.26148429847479E+00
(PID.TID 0000.0001)                    cg2d_init_res =    5.22770352260262E-01
(PID.TID 0000.0001)                       cg2d_iters =    66
(PID.TID 0000.0001)                         cg2d_res =    5.56491613404607E-07
(PID.TID 0000.0001) // =======================================================
(PID.TID 0000.0001) // Begin MONITOR dynamic field statistics
(PID.TID 0000.0001) // =======================================================
(PID.TID 0000.0001) %MON time_tsnumber                =                 72002
(PID.TID 0000.0001) %MON time_secondsf                =   6.2209728000000E+09
(PID.TID 0000.0001) %MON dynstat_eta_max              =   9.1534403914594E-01
(PID.TID 0000.0001) %MON dynstat_eta_min              =  -1.6118939255280E+00
(PID.TID 0000.0001) %MON dynstat_eta_mean             =   5.1442377208998E-13
(PID.TID 0000.0001) %MON dynstat_eta_sd               =   5.9747946849625E-01
(PID.TID 0000.0001) %MON dynstat_eta_del2             =   1.1177033199512E-02
(PID.TID 0000.0001) %MON dynstat_uvel_max             =   1.8580913659515E-01
(PID.TID 0000.0001) %MON dynstat_uvel_min             =  -2.8781253398227E-01
(PID.TID 0000.0001) %MON dynstat_uvel_mean            =  -4.9059849558992E-04
(PID.TID 0000.0001) %MON dynstat_uvel_sd              =   1.2028688756315E-02
(PID.TID 0000.0001) %MON dynstat_uvel_del2            =   1.5706628344148E-03
(PID.TID 0000.0001) %MON dynstat_vvel_max             =   1.7359503084718E-01
(PID.TID 0000.0001) %MON dynstat_vvel_min             =  -2.2512230348773E-01
(PID.TID 0000.0001) %MON dynstat_vvel_mean            =  -4.0940742120532E-04
(PID.TID 0000.0001) %MON dynstat_vvel_sd              =   1.2651085009928E-02
(PID.TID 0000.0001) %MON dynstat_vvel_del2            =   1.5956001966689E-03
(PID.TID 0000.0001) %MON dynstat_wvel_max             =   1.0372051693101E-04
(PID.TID 0000.0001) %MON dynstat_wvel_min             =  -2.0554241083357E-04
(PID.TID 0000.0001) %MON dynstat_wvel_mean            =  -7.3585203685230E-23
(PID.TID 0000.0001) %MON dynstat_wvel_sd              =   3.9215282752685E-06
(PID.TID 0000.0001) %MON dynstat_wvel_del2            =   8.6989603697119E-07
(PID.TID 0000.0001) %MON dynstat_theta_max            =   3.0718709388563E+01
(PID.TID 0000.0001) %MON dynstat_theta_min            =  -2.1819698762504E+00
(PID.TID 0000.0001) %MON dynstat_theta_mean           =   3.9272991080011E+00
(PID.TID 0000.0001) %MON dynstat_theta_sd             =   4.5716860536606E+00
(PID.TID 0000.0001) %MON dynstat_theta_del2           =   8.7102447975564E-02
(PID.TID 0000.0001) %MON dynstat_salt_max             =   4.1453143209093E+01
(PID.TID 0000.0001) %MON dynstat_salt_min             =   1.8390826358933E+01
(PID.TID 0000.0001) %MON dynstat_salt_mean            =   3.4775309888677E+01
(PID.TID 0000.0001) %MON dynstat_salt_sd              =   5.3455946340221E-01
(PID.TID 0000.0001) %MON dynstat_salt_del2            =   1.8906283461367E-02
(PID.TID 0000.0001) %MON advcfl_uvel_max              =   8.1629094063105E-02
(PID.TID 0000.0001) %MON advcfl_vvel_max              =   7.5667628302308E-02
(PID.TID 0000.0001) %MON advcfl_wvel_max              =   6.7014582249132E-02
(PID.TID 0000.0001) %MON advcfl_W_hf_max              =   1.2098602415159E-01
(PID.TID 0000.0001) %MON pe_b_mean                    =   4.7556561357119E-04
(PID.TID 0000.0001) %MON ke_max                       =   4.0531533759597E-02
(PID.TID 0000.0001) %MON ke_mean                      =   1.4091106838933E-04
(PID.TID 0000.0001) %MON ke_vol                       =   1.3398024453628E+18
(PID.TID 0000.0001) %MON vort_r_min                   =  -1.1922583061426E-06
(PID.TID 0000.0001) %MON vort_r_max                   =   1.2146331397798E-06
(PID.TID 0000.0001) %MON vort_a_mean                  =  -2.0491686466920E-05
(PID.TID 0000.0001) %MON vort_a_sd                    =   7.5056306903338E-05
(PID.TID 0000.0001) %MON vort_p_mean                  =  -2.4712552273128E-05
(PID.TID 0000.0001) %MON vort_p_sd                    =   1.2774946907316E-04
(PID.TID 0000.0001) %MON surfExpan_theta_mean         =  -5.0938103019005E-08
(PID.TID 0000.0001) %MON surfExpan_salt_mean          =   2.3212760945836E-09
(PID.TID 0000.0001) // =======================================================
(PID.TID 0000.0001) // End MONITOR dynamic field statistics
(PID.TID 0000.0001) // =======================================================
(PID.TID 0000.0001) // =======================================================
(PID.TID 0000.0001) // Begin MONITOR Therm.SeaIce statistics
(PID.TID 0000.0001) // =======================================================
(PID.TID 0000.0001) %MON thSI_time_sec                =   6.2209728000000E+09
(PID.TID 0000.0001) %MON thSI_Ice_Area_G              =   4.7067274953407E+12
(PID.TID 0000.0001) %MON thSI_Ice_Area_S              =   1.7217020644284E+11
(PID.TID 0000.0001) %MON thSI_Ice_Area_N              =   4.5345572888979E+12
(PID.TID 0000.0001) %MON thSI_IceH_ave_G              =   4.3118994492385E-01
(PID.TID 0000.0001) %MON thSI_IceH_ave_S              =   1.8606600925182E-01
(PID.TID 0000.0001) %MON thSI_IceH_ave_N              =   4.4049692594095E-01
(PID.TID 0000.0001) %MON thSI_IceH_max_S              =   1.9599590940889E-01
(PID.TID 0000.0001) %MON thSI_IceH_max_N              =   6.1367339633699E-01
(PID.TID 0000.0001) %MON thSI_SnwH_ave_G              =   9.8392142657480E-04
(PID.TID 0000.0001) %MON thSI_SnwH_ave_S              =   4.2230983589135E-04
(PID.TID 0000.0001) %MON thSI_SnwH_ave_N              =   1.0052449599097E-03
(PID.TID 0000.0001) %MON thSI_SnwH_max_S              =   2.8077601793959E-03
(PID.TID 0000.0001) %MON thSI_SnwH_max_N              =   5.8080458146932E-03
(PID.TID 0000.0001) %MON thSI_TotEnerg_G              =  -6.2835767707034E+20
(PID.TID 0000.0001) %MON thSI_Tsrf_ave_G              =  -1.6830754492123E+01
(PID.TID 0000.0001) %MON thSI_Tsrf_ave_S              =  -8.3804586679678E-02
(PID.TID 0000.0001) %MON thSI_Tsrf_ave_N              =  -1.7466610572179E+01
(PID.TID 0000.0001) %MON thSI_Tsrf_min_S              =  -5.5718138989893E-01
(PID.TID 0000.0001) %MON thSI_Tsrf_min_N              =  -2.5269931212806E+01
(PID.TID 0000.0001) %MON thSI_Tsrf_max_S              =   0.0000000000000E+00
(PID.TID 0000.0001) %MON thSI_Tsrf_max_N              =  -1.4629601753860E+00
(PID.TID 0000.0001) %MON thSI_Tic1_ave_G              =  -1.3840474011196E+01
(PID.TID 0000.0001) %MON thSI_Tic1_ave_S              =  -6.3020817009896E-01
(PID.TID 0000.0001) %MON thSI_Tic1_ave_N              =  -1.4052338820015E+01
(PID.TID 0000.0001) %MON thSI_Tic1_min_S              =  -8.1674371673171E-01
(PID.TID 0000.0001) %MON thSI_Tic1_min_N              =  -1.8439187675086E+01
(PID.TID 0000.0001) %MON thSI_Tic1_max_S              =  -5.7493035618663E-01
(PID.TID 0000.0001) %MON thSI_Tic1_max_N              =  -1.4629601753860E+00
(PID.TID 0000.0001) %MON thSI_Tic2_ave_G              =  -5.6070122858075E+00
(PID.TID 0000.0001) %MON thSI_Tic2_ave_S              =  -1.4407509266053E+00
(PID.TID 0000.0001) %MON thSI_Tic2_ave_N              =  -5.6738303329969E+00
(PID.TID 0000.0001) %MON thSI_Tic2_min_S              =  -1.5003101348959E+00
(PID.TID 0000.0001) %MON thSI_Tic2_min_N              =  -7.0838583685903E+00
(PID.TID 0000.0001) %MON thSI_Tic2_max_S              =  -1.4184167192043E+00
(PID.TID 0000.0001) %MON thSI_Tic2_max_N              =  -1.4629601753860E+00
(PID.TID 0000.0001) // =======================================================
(PID.TID 0000.0001) // End MONITOR Therm.SeaIce statistics
(PID.TID 0000.0001) // =======================================================
 cg2d: Sum(rhs),rhsMax =  -3.45562023440493E-10  4.25831680311085E+00
(PID.TID 0000.0001)                    cg2d_init_res =    4.93831551260059E-01
(PID.TID 0000.0001)                       cg2d_iters =    66
(PID.TID 0000.0001)                         cg2d_res =    5.77022373438170E-07
(PID.TID 0000.0001) // =======================================================
(PID.TID 0000.0001) // Begin MONITOR dynamic field statistics
(PID.TID 0000.0001) // =======================================================
(PID.TID 0000.0001) %MON time_tsnumber                =                 72003
(PID.TID 0000.0001) %MON time_secondsf                =   6.2210592000000E+09
(PID.TID 0000.0001) %MON dynstat_eta_max              =   9.1296554250434E-01
(PID.TID 0000.0001) %MON dynstat_eta_min              =  -1.6104942689367E+00
(PID.TID 0000.0001) %MON dynstat_eta_mean             =   5.1464486783055E-13
(PID.TID 0000.0001) %MON dynstat_eta_sd               =   5.9686999972099E-01
(PID.TID 0000.0001) %MON dynstat_eta_del2             =   1.1159805378355E-02
(PID.TID 0000.0001) %MON dynstat_uvel_max             =   1.8609695075315E-01
(PID.TID 0000.0001) %MON dynstat_uvel_min             =  -2.8750400949776E-01
(PID.TID 0000.0001) %MON dynstat_uvel_mean            =  -4.9004639003529E-04
(PID.TID 0000.0001) %MON dynstat_uvel_sd              =   1.2029764092810E-02
(PID.TID 0000.0001) %MON dynstat_uvel_del2            =   1.5706070934198E-03
(PID.TID 0000.0001) %MON dynstat_vvel_max             =   1.7384189138423E-01
(PID.TID 0000.0001) %MON dynstat_vvel_min             =  -2.2506554760729E-01
(PID.TID 0000.0001) %MON dynstat_vvel_mean            =  -4.1147129554473E-04
(PID.TID 0000.0001) %MON dynstat_vvel_sd              =   1.2655439321215E-02
(PID.TID 0000.0001) %MON dynstat_vvel_del2            =   1.5948271551073E-03
(PID.TID 0000.0001) %MON dynstat_wvel_max             =   1.0393756285602E-04
(PID.TID 0000.0001) %MON dynstat_wvel_min             =  -2.0573586571667E-04
(PID.TID 0000.0001) %MON dynstat_wvel_mean            =  -1.1861558833808E-22
(PID.TID 0000.0001) %MON dynstat_wvel_sd              =   3.9199628084532E-06
(PID.TID 0000.0001) %MON dynstat_wvel_del2            =   8.7321406919366E-07
(PID.TID 0000.0001) %MON dynstat_theta_max            =   3.0622747431824E+01
(PID.TID 0000.0001) %MON dynstat_theta_min            =  -2.2875544901959E+00
(PID.TID 0000.0001) %MON dynstat_theta_mean           =   3.9272318759604E+00
(PID.TID 0000.0001) %MON dynstat_theta_sd             =   4.5709003036850E+00
(PID.TID 0000.0001) %MON dynstat_theta_del2           =   8.6838968246804E-02
(PID.TID 0000.0001) %MON dynstat_salt_max             =   4.1455741708689E+01
(PID.TID 0000.0001) %MON dynstat_salt_min             =   1.8392119002744E+01
(PID.TID 0000.0001) %MON dynstat_salt_mean            =   3.4775347094890E+01
(PID.TID 0000.0001) %MON dynstat_salt_sd              =   5.3442223739436E-01
(PID.TID 0000.0001) %MON dynstat_salt_del2            =   1.8895111868115E-02
(PID.TID 0000.0001) %MON advcfl_uvel_max              =   8.1541590666993E-02
(PID.TID 0000.0001) %MON advcfl_vvel_max              =   7.5775231332583E-02
(PID.TID 0000.0001) %MON advcfl_wvel_max              =   6.7077655841208E-02
(PID.TID 0000.0001) %MON advcfl_W_hf_max              =   1.2037252347499E-01
(PID.TID 0000.0001) %MON pe_b_mean                    =   4.7459589133609E-04
(PID.TID 0000.0001) %MON ke_max                       =   4.0420536265100E-02
(PID.TID 0000.0001) %MON ke_mean                      =   1.4097460663278E-04
(PID.TID 0000.0001) %MON ke_vol                       =   1.3398024453628E+18
(PID.TID 0000.0001) %MON vort_r_min                   =  -1.1966668819017E-06
(PID.TID 0000.0001) %MON vort_r_max                   =   1.2164853840805E-06
(PID.TID 0000.0001) %MON vort_a_mean                  =  -2.0491686477499E-05
(PID.TID 0000.0001) %MON vort_a_sd                    =   7.5056306632490E-05
(PID.TID 0000.0001) %MON vort_p_mean                  =  -2.4712552285886E-05
(PID.TID 0000.0001) %MON vort_p_sd                    =   1.2774947016407E-04
(PID.TID 0000.0001) %MON surfExpan_theta_mean         =  -6.5273671525946E-08
(PID.TID 0000.0001) %MON surfExpan_salt_mean          =   8.9425606567313E-10
(PID.TID 0000.0001) // =======================================================
(PID.TID 0000.0001) // End MONITOR dynamic field statistics
(PID.TID 0000.0001) // =======================================================
(PID.TID 0000.0001) // =======================================================
(PID.TID 0000.0001) // Begin MONITOR Therm.SeaIce statistics
(PID.TID 0000.0001) // =======================================================
(PID.TID 0000.0001) %MON thSI_time_sec                =   6.2210592000000E+09
(PID.TID 0000.0001) %MON thSI_Ice_Area_G              =   5.9244555157731E+12
(PID.TID 0000.0001) %MON thSI_Ice_Area_S              =   1.6077563209309E+11
(PID.TID 0000.0001) %MON thSI_Ice_Area_N              =   5.7636798836800E+12
(PID.TID 0000.0001) %MON thSI_IceH_ave_G              =   4.9999869073630E-01
(PID.TID 0000.0001) %MON thSI_IceH_ave_S              =   1.6970187158496E-01
(PID.TID 0000.0001) %MON thSI_IceH_ave_N              =   5.0921219338550E-01
(PID.TID 0000.0001) %MON thSI_IceH_max_S              =   1.9617615547236E-01
(PID.TID 0000.0001) %MON thSI_IceH_max_N              =   8.0331215302076E-01
(PID.TID 0000.0001) %MON thSI_SnwH_ave_G              =   2.3202735408344E-03
(PID.TID 0000.0001) %MON thSI_SnwH_ave_S              =   1.3189370511195E-03
(PID.TID 0000.0001) %MON thSI_SnwH_ave_N              =   2.3482054368315E-03
(PID.TID 0000.0001) %MON thSI_SnwH_max_S              =   8.1887027749720E-03
(PID.TID 0000.0001) %MON thSI_SnwH_max_N              =   1.3521785183370E-02
(PID.TID 0000.0001) %MON thSI_TotEnerg_G              =  -9.3554582996085E+20
(PID.TID 0000.0001) %MON thSI_Tsrf_ave_G              =  -1.9260397715105E+01
(PID.TID 0000.0001) %MON thSI_Tsrf_ave_S              =  -4.9762419543902E-01
(PID.TID 0000.0001) %MON thSI_Tsrf_ave_N              =  -1.9783778061224E+01
(PID.TID 0000.0001) %MON thSI_Tsrf_min_S              =  -3.0895307904391E+00
(PID.TID 0000.0001) %MON thSI_Tsrf_min_N              =  -3.0071780750553E+01
(PID.TID 0000.0001) %MON thSI_Tsrf_max_S              =   0.0000000000000E+00
(PID.TID 0000.0001) %MON thSI_Tsrf_max_N              =  -1.1335915718157E+00
(PID.TID 0000.0001) %MON thSI_Tic1_ave_G              =  -1.4691038192175E+01
(PID.TID 0000.0001) %MON thSI_Tic1_ave_S              =  -7.6477798296049E-01
(PID.TID 0000.0001) %MON thSI_Tic1_ave_N              =  -1.4820500312866E+01
(PID.TID 0000.0001) %MON thSI_Tic1_min_S              =  -2.2754487639294E+00
(PID.TID 0000.0001) %MON thSI_Tic1_min_N              =  -1.9119319298607E+01
(PID.TID 0000.0001) %MON thSI_Tic1_max_S              =  -4.0237559695933E-01
(PID.TID 0000.0001) %MON thSI_Tic1_max_N              =  -1.1335915718157E+00
(PID.TID 0000.0001) %MON thSI_Tic2_ave_G              =  -5.4836390473130E+00
(PID.TID 0000.0001) %MON thSI_Tic2_ave_S              =  -1.4689927264202E+00
(PID.TID 0000.0001) %MON thSI_Tic2_ave_N              =  -5.5209602389837E+00
(PID.TID 0000.0001) %MON thSI_Tic2_min_S              =  -1.9512182528666E+00
(PID.TID 0000.0001) %MON thSI_Tic2_min_N              =  -6.6961373400414E+00
(PID.TID 0000.0001) %MON thSI_Tic2_max_S              =  -1.3476376084187E+00
(PID.TID 0000.0001) %MON thSI_Tic2_max_N              =  -1.1335915718157E+00
(PID.TID 0000.0001) // =======================================================
(PID.TID 0000.0001) // End MONITOR Therm.SeaIce statistics
(PID.TID 0000.0001) // =======================================================
 cg2d: Sum(rhs),rhsMax =  -3.45493411657571E-10  4.25527421310707E+00
(PID.TID 0000.0001)                    cg2d_init_res =    5.13076905330417E-01
(PID.TID 0000.0001)                       cg2d_iters =    66
(PID.TID 0000.0001)                         cg2d_res =    5.77549645633358E-07
(PID.TID 0000.0001) // =======================================================
(PID.TID 0000.0001) // Begin MONITOR dynamic field statistics
(PID.TID 0000.0001) // =======================================================
(PID.TID 0000.0001) %MON time_tsnumber                =                 72004
(PID.TID 0000.0001) %MON time_secondsf                =   6.2211456000000E+09
(PID.TID 0000.0001) %MON dynstat_eta_max              =   9.1098649192630E-01
(PID.TID 0000.0001) %MON dynstat_eta_min              =  -1.6092397897235E+00
(PID.TID 0000.0001) %MON dynstat_eta_mean             =   5.1494329756218E-13
(PID.TID 0000.0001) %MON dynstat_eta_sd               =   5.9625904466524E-01
(PID.TID 0000.0001) %MON dynstat_eta_del2             =   1.1141013385547E-02
(PID.TID 0000.0001) %MON dynstat_uvel_max             =   1.8633827957382E-01
(PID.TID 0000.0001) %MON dynstat_uvel_min             =  -2.8717598676948E-01
(PID.TID 0000.0001) %MON dynstat_uvel_mean            =  -4.8980968448732E-04
(PID.TID 0000.0001) %MON dynstat_uvel_sd              =   1.2031221642360E-02
(PID.TID 0000.0001) %MON dynstat_uvel_del2            =   1.5706138387923E-03
(PID.TID 0000.0001) %MON dynstat_vvel_max             =   1.7405630136317E-01
(PID.TID 0000.0001) %MON dynstat_vvel_min             =  -2.2499896031783E-01
(PID.TID 0000.0001) %MON dynstat_vvel_mean            =  -4.1294337422336E-04
(PID.TID 0000.0001) %MON dynstat_vvel_sd              =   1.2660261073282E-02
(PID.TID 0000.0001) %MON dynstat_vvel_del2            =   1.5942733422385E-03
(PID.TID 0000.0001) %MON dynstat_wvel_max             =   1.0421944386566E-04
(PID.TID 0000.0001) %MON dynstat_wvel_min             =  -2.0586742822739E-04
(PID.TID 0000.0001) %MON dynstat_wvel_mean            =  -2.1942326025720E-22
(PID.TID 0000.0001) %MON dynstat_wvel_sd              =   3.9188514105935E-06
(PID.TID 0000.0001) %MON dynstat_wvel_del2            =   8.7637197995461E-07
(PID.TID 0000.0001) %MON dynstat_theta_max            =   3.0530648911455E+01
(PID.TID 0000.0001) %MON dynstat_theta_min            =  -2.2266725163349E+00
(PID.TID 0000.0001) %MON dynstat_theta_mean           =   3.9271832739413E+00
(PID.TID 0000.0001) %MON dynstat_theta_sd             =   4.5701783253540E+00
(PID.TID 0000.0001) %MON dynstat_theta_del2           =   8.6600478896881E-02
(PID.TID 0000.0001) %MON dynstat_salt_max             =   4.1457964485416E+01
(PID.TID 0000.0001) %MON dynstat_salt_min             =   1.8393368167940E+01
(PID.TID 0000.0001) %MON dynstat_salt_mean            =   3.4775381043207E+01
(PID.TID 0000.0001) %MON dynstat_salt_sd              =   5.3428767036768E-01
(PID.TID 0000.0001) %MON dynstat_salt_del2            =   1.8872335740023E-02
(PID.TID 0000.0001) %MON advcfl_uvel_max              =   8.1448557199093E-02
(PID.TID 0000.0001) %MON advcfl_vvel_max              =   7.5868689621750E-02
(PID.TID 0000.0001) %MON advcfl_wvel_max              =   6.7120550184327E-02
(PID.TID 0000.0001) %MON advcfl_W_hf_max              =   1.1969893027044E-01
(PID.TID 0000.0001) %MON pe_b_mean                    =   4.7362479759784E-04
(PID.TID 0000.0001) %MON ke_max                       =   4.0306147042696E-02
(PID.TID 0000.0001) %MON ke_mean                      =   1.4104780060236E-04
(PID.TID 0000.0001) %MON ke_vol                       =   1.3398024453628E+18
(PID.TID 0000.0001) %MON vort_r_min                   =  -1.2013555379793E-06
(PID.TID 0000.0001) %MON vort_r_max                   =   1.2186502121604E-06
(PID.TID 0000.0001) %MON vort_a_mean                  =  -2.0491686487794E-05
(PID.TID 0000.0001) %MON vort_a_sd                    =   7.5056306427279E-05
(PID.TID 0000.0001) %MON vort_p_mean                  =  -2.4712552298303E-05
(PID.TID 0000.0001) %MON vort_p_sd                    =   1.2774947242391E-04
(PID.TID 0000.0001) %MON surfExpan_theta_mean         =  -6.8262833264187E-08
(PID.TID 0000.0001) %MON surfExpan_salt_mean          =   4.8061705763547E-10
(PID.TID 0000.0001) // =======================================================
(PID.TID 0000.0001) // End MONITOR dynamic field statistics
(PID.TID 0000.0001) // =======================================================
(PID.TID 0000.0001) // =======================================================
(PID.TID 0000.0001) // Begin MONITOR Therm.SeaIce statistics
(PID.TID 0000.0001) // =======================================================
(PID.TID 0000.0001) %MON thSI_time_sec                =   6.2211456000000E+09
(PID.TID 0000.0001) %MON thSI_Ice_Area_G              =   6.4154041415372E+12
(PID.TID 0000.0001) %MON thSI_Ice_Area_S              =   1.4655380354277E+11
(PID.TID 0000.0001) %MON thSI_Ice_Area_N              =   6.2688503379944E+12
(PID.TID 0000.0001) %MON thSI_IceH_ave_G              =   5.8615171302143E-01
(PID.TID 0000.0001) %MON thSI_IceH_ave_S              =   1.5150121148718E-01
(PID.TID 0000.0001) %MON thSI_IceH_ave_N              =   5.9631301545762E-01
(PID.TID 0000.0001) %MON thSI_IceH_max_S              =   1.9645810314904E-01
(PID.TID 0000.0001) %MON thSI_IceH_max_N              =   8.6181147933409E-01
(PID.TID 0000.0001) %MON thSI_SnwH_ave_G              =   3.9488415171531E-03
(PID.TID 0000.0001) %MON thSI_SnwH_ave_S              =   2.3906850979807E-03
(PID.TID 0000.0001) %MON thSI_SnwH_ave_N              =   3.9852682521096E-03
(PID.TID 0000.0001) %MON thSI_SnwH_max_S              =   1.3529765903374E-02
(PID.TID 0000.0001) %MON thSI_SnwH_max_N              =   2.1471960766197E-02
(PID.TID 0000.0001) %MON thSI_TotEnerg_G              =  -1.2005700088651E+21
(PID.TID 0000.0001) %MON thSI_Tsrf_ave_G              =  -2.3019644423437E+01
(PID.TID 0000.0001) %MON thSI_Tsrf_ave_S              =  -6.2116817524151E-01
(PID.TID 0000.0001) %MON thSI_Tsrf_ave_N              =  -2.3543278217634E+01
(PID.TID 0000.0001) %MON thSI_Tsrf_min_S              =  -3.5154190757881E+00
(PID.TID 0000.0001) %MON thSI_Tsrf_min_N              =  -3.1671893173625E+01
(PID.TID 0000.0001) %MON thSI_Tsrf_max_S              =   0.0000000000000E+00
(PID.TID 0000.0001) %MON thSI_Tsrf_max_N              =  -1.5171464116363E+00
(PID.TID 0000.0001) %MON thSI_Tic1_ave_G              =  -1.6615148567955E+01
(PID.TID 0000.0001) %MON thSI_Tic1_ave_S              =  -9.0225106111987E-01
(PID.TID 0000.0001) %MON thSI_Tic1_ave_N              =  -1.6708475564032E+01
(PID.TID 0000.0001) %MON thSI_Tic1_min_S              =  -2.7386065829654E+00
(PID.TID 0000.0001) %MON thSI_Tic1_min_N              =  -2.1712856673466E+01
(PID.TID 0000.0001) %MON thSI_Tic1_max_S              =  -3.4540269003627E-01
(PID.TID 0000.0001) %MON thSI_Tic1_max_N              =  -1.5171464116363E+00
(PID.TID 0000.0001) %MON thSI_Tic2_ave_G              =  -6.1409120811622E+00
(PID.TID 0000.0001) %MON thSI_Tic2_ave_S              =  -1.5163181004328E+00
(PID.TID 0000.0001) %MON thSI_Tic2_ave_N              =  -6.1683799281401E+00
(PID.TID 0000.0001) %MON thSI_Tic2_min_S              =  -2.1231525259338E+00
(PID.TID 0000.0001) %MON thSI_Tic2_min_N              =  -7.5301297837057E+00
(PID.TID 0000.0001) %MON thSI_Tic2_max_S              =  -1.3245475530000E+00
(PID.TID 0000.0001) %MON thSI_Tic2_max_N              =  -1.5171464116363E+00
(PID.TID 0000.0001) // =======================================================
(PID.TID 0000.0001) // End MONITOR Therm.SeaIce statistics
(PID.TID 0000.0001) // =======================================================
 cg2d: Sum(rhs),rhsMax =  -3.46252471139508E-10  4.25211079800970E+00
(PID.TID 0000.0001)                    cg2d_init_res =    4.11024628442816E-01
(PID.TID 0000.0001)                       cg2d_iters =    66
(PID.TID 0000.0001)                         cg2d_res =    5.26334401958259E-07
(PID.TID 0000.0001) // =======================================================
(PID.TID 0000.0001) // Begin MONITOR dynamic field statistics
(PID.TID 0000.0001) // =======================================================
(PID.TID 0000.0001) %MON time_tsnumber                =                 72005
(PID.TID 0000.0001) %MON time_secondsf                =   6.2212320000000E+09
(PID.TID 0000.0001) %MON dynstat_eta_max              =   9.0932025791297E-01
(PID.TID 0000.0001) %MON dynstat_eta_min              =  -1.6081274971727E+00
(PID.TID 0000.0001) %MON dynstat_eta_mean             =   5.1487565138897E-13
(PID.TID 0000.0001) %MON dynstat_eta_sd               =   5.9570197465155E-01
(PID.TID 0000.0001) %MON dynstat_eta_del2             =   1.1124075888329E-02
(PID.TID 0000.0001) %MON dynstat_uvel_max             =   1.8652976431180E-01
(PID.TID 0000.0001) %MON dynstat_uvel_min             =  -2.8682957453254E-01
(PID.TID 0000.0001) %MON dynstat_uvel_mean            =  -4.8993833802677E-04
(PID.TID 0000.0001) %MON dynstat_uvel_sd              =   1.2033097088916E-02
(PID.TID 0000.0001) %MON dynstat_uvel_del2            =   1.5707687760322E-03
(PID.TID 0000.0001) %MON dynstat_vvel_max             =   1.7423816508292E-01
(PID.TID 0000.0001) %MON dynstat_vvel_min             =  -2.2492302359926E-01
(PID.TID 0000.0001) %MON dynstat_vvel_mean            =  -4.1378040802536E-04
(PID.TID 0000.0001) %MON dynstat_vvel_sd              =   1.2665398403924E-02
(PID.TID 0000.0001) %MON dynstat_vvel_del2            =   1.5937472257528E-03
(PID.TID 0000.0001) %MON dynstat_wvel_max             =   1.0455910931558E-04
(PID.TID 0000.0001) %MON dynstat_wvel_min             =  -2.0594506113035E-04
(PID.TID 0000.0001) %MON dynstat_wvel_mean            =  -4.3941289271853E-23
(PID.TID 0000.0001) %MON dynstat_wvel_sd              =   3.9177580218188E-06
(PID.TID 0000.0001) %MON dynstat_wvel_del2            =   8.7899790377527E-07
(PID.TID 0000.0001) %MON dynstat_theta_max            =   3.0442327974654E+01
(PID.TID 0000.0001) %MON dynstat_theta_min            =  -2.1995414085104E+00
(PID.TID 0000.0001) %MON dynstat_theta_mean           =   3.9271443939758E+00
(PID.TID 0000.0001) %MON dynstat_theta_sd             =   4.5695248101528E+00
(PID.TID 0000.0001) %MON dynstat_theta_del2           =   8.6401229542966E-02
(PID.TID 0000.0001) %MON dynstat_salt_max             =   4.1459854634066E+01
(PID.TID 0000.0001) %MON dynstat_salt_min             =   1.8394577812398E+01
(PID.TID 0000.0001) %MON dynstat_salt_mean            =   3.4775411991867E+01
(PID.TID 0000.0001) %MON dynstat_salt_sd              =   5.3416701179092E-01
(PID.TID 0000.0001) %MON dynstat_salt_del2            =   1.8867656700376E-02
(PID.TID 0000.0001) %MON advcfl_uvel_max              =   8.1350308117710E-02
(PID.TID 0000.0001) %MON advcfl_vvel_max              =   7.5947961455056E-02
(PID.TID 0000.0001) %MON advcfl_wvel_max              =   6.7145861440236E-02
(PID.TID 0000.0001) %MON advcfl_W_hf_max              =   1.1896369830671E-01
(PID.TID 0000.0001) %MON pe_b_mean                    =   4.7274021924468E-04
(PID.TID 0000.0001) %MON ke_max                       =   4.0188775255924E-02
(PID.TID 0000.0001) %MON ke_mean                      =   1.4112927093282E-04
(PID.TID 0000.0001) %MON ke_vol                       =   1.3398024453628E+18
(PID.TID 0000.0001) %MON vort_r_min                   =  -1.2062850524284E-06
(PID.TID 0000.0001) %MON vort_r_max                   =   1.2210728631077E-06
(PID.TID 0000.0001) %MON vort_a_mean                  =  -2.0491686498186E-05
(PID.TID 0000.0001) %MON vort_a_sd                    =   7.5056306310400E-05
(PID.TID 0000.0001) %MON vort_p_mean                  =  -2.4712552310835E-05
(PID.TID 0000.0001) %MON vort_p_sd                    =   1.2774947581235E-04
(PID.TID 0000.0001) %MON surfExpan_theta_mean         =  -6.2038753628309E-08
(PID.TID 0000.0001) %MON surfExpan_salt_mean          =   3.3018288257876E-10
(PID.TID 0000.0001) // =======================================================
(PID.TID 0000.0001) // End MONITOR dynamic field statistics
(PID.TID 0000.0001) // =======================================================
(PID.TID 0000.0001) // =======================================================
(PID.TID 0000.0001) // Begin MONITOR Therm.SeaIce statistics
(PID.TID 0000.0001) // =======================================================
(PID.TID 0000.0001) %MON thSI_time_sec                =   6.2212320000000E+09
(PID.TID 0000.0001) %MON thSI_Ice_Area_G              =   7.1220564669160E+12
(PID.TID 0000.0001) %MON thSI_Ice_Area_S              =   1.2901804372221E+11
(PID.TID 0000.0001) %MON thSI_Ice_Area_N              =   6.9930384231938E+12
(PID.TID 0000.0001) %MON thSI_IceH_ave_G              =   6.2221630389474E-01
(PID.TID 0000.0001) %MON thSI_IceH_ave_S              =   1.3253966037558E-01
(PID.TID 0000.0001) %MON thSI_IceH_ave_N              =   6.3125059182225E-01
(PID.TID 0000.0001) %MON thSI_IceH_max_S              =   1.9624643054183E-01
(PID.TID 0000.0001) %MON thSI_IceH_max_N              =   9.5349756922617E-01
(PID.TID 0000.0001) %MON thSI_SnwH_ave_G              =   5.4587233767349E-03
(PID.TID 0000.0001) %MON thSI_SnwH_ave_S              =   3.8310708553578E-03
(PID.TID 0000.0001) %MON thSI_SnwH_ave_N              =   5.4887527475834E-03
(PID.TID 0000.0001) %MON thSI_SnwH_max_S              =   1.9100532254477E-02
(PID.TID 0000.0001) %MON thSI_SnwH_max_N              =   2.9417233741627E-02
(PID.TID 0000.0001) %MON thSI_TotEnerg_G              =  -1.4233206659064E+21
(PID.TID 0000.0001) %MON thSI_Tsrf_ave_G              =  -2.3115838801274E+01
(PID.TID 0000.0001) %MON thSI_Tsrf_ave_S              =  -7.2715595768611E-01
(PID.TID 0000.0001) %MON thSI_Tsrf_ave_N              =  -2.3528898745635E+01
(PID.TID 0000.0001) %MON thSI_Tsrf_min_S              =  -3.6253743008679E+00
(PID.TID 0000.0001) %MON thSI_Tsrf_min_N              =  -3.2537728132271E+01
(PID.TID 0000.0001) %MON thSI_Tsrf_max_S              =   0.0000000000000E+00
(PID.TID 0000.0001) %MON thSI_Tsrf_max_N              =  -1.4860141272146E+00
(PID.TID 0000.0001) %MON thSI_Tic1_ave_G              =  -1.7065379033986E+01
(PID.TID 0000.0001) %MON thSI_Tic1_ave_S              =  -1.0503606838976E+00
(PID.TID 0000.0001) %MON thSI_Tic1_ave_N              =  -1.7127416783329E+01
(PID.TID 0000.0001) %MON thSI_Tic1_min_S              =  -2.7447266735522E+00
(PID.TID 0000.0001) %MON thSI_Tic1_min_N              =  -2.3128253360189E+01
(PID.TID 0000.0001) %MON thSI_Tic1_max_S              =  -3.2348947112871E-01
(PID.TID 0000.0001) %MON thSI_Tic1_max_N              =  -1.4860141272146E+00
(PID.TID 0000.0001) %MON thSI_Tic2_ave_G              =  -6.3104361794366E+00
(PID.TID 0000.0001) %MON thSI_Tic2_ave_S              =  -1.5664249770514E+00
(PID.TID 0000.0001) %MON thSI_Tic2_ave_N              =  -6.3288131660512E+00
(PID.TID 0000.0001) %MON thSI_Tic2_min_S              =  -2.1307544993992E+00
(PID.TID 0000.0001) %MON thSI_Tic2_min_N              =  -8.1200952379879E+00
(PID.TID 0000.0001) %MON thSI_Tic2_max_S              =  -1.3163137267273E+00
(PID.TID 0000.0001) %MON thSI_Tic2_max_N              =  -1.4860141272146E+00
(PID.TID 0000.0001) // =======================================================
(PID.TID 0000.0001) // End MONITOR Therm.SeaIce statistics
(PID.TID 0000.0001) // =======================================================
 cg2d: Sum(rhs),rhsMax =  -3.45430850590134E-10  4.24896080529668E+00
(PID.TID 0000.0001)                    cg2d_init_res =    3.46024566534886E-01
(PID.TID 0000.0001)                       cg2d_iters =    65
(PID.TID 0000.0001)                         cg2d_res =    5.75795882406826E-07
(PID.TID 0000.0001) // =======================================================
(PID.TID 0000.0001) // Begin MONITOR dynamic field statistics
(PID.TID 0000.0001) // =======================================================
(PID.TID 0000.0001) %MON time_tsnumber                =                 72006
(PID.TID 0000.0001) %MON time_secondsf                =   6.2213184000000E+09
(PID.TID 0000.0001) %MON dynstat_eta_max              =   9.0782519444629E-01
(PID.TID 0000.0001) %MON dynstat_eta_min              =  -1.6071998430859E+00
(PID.TID 0000.0001) %MON dynstat_eta_mean             =   5.1467382859464E-13
(PID.TID 0000.0001) %MON dynstat_eta_sd               =   5.9523596216837E-01
(PID.TID 0000.0001) %MON dynstat_eta_del2             =   1.1108319252622E-02
(PID.TID 0000.0001) %MON dynstat_uvel_max             =   1.8666835755940E-01
(PID.TID 0000.0001) %MON dynstat_uvel_min             =  -2.8646520183560E-01
(PID.TID 0000.0001) %MON dynstat_uvel_mean            =  -4.9040138564350E-04
(PID.TID 0000.0001) %MON dynstat_uvel_sd              =   1.2035484488457E-02
(PID.TID 0000.0001) %MON dynstat_uvel_del2            =   1.5708278774198E-03
(PID.TID 0000.0001) %MON dynstat_vvel_max             =   1.7438676254994E-01
(PID.TID 0000.0001) %MON dynstat_vvel_min             =  -2.2483866232118E-01
(PID.TID 0000.0001) %MON dynstat_vvel_mean            =  -4.1402848041308E-04
(PID.TID 0000.0001) %MON dynstat_vvel_sd              =   1.2670751771819E-02
(PID.TID 0000.0001) %MON dynstat_vvel_del2            =   1.5932889394971E-03
(PID.TID 0000.0001) %MON dynstat_wvel_max             =   1.0494761826718E-04
(PID.TID 0000.0001) %MON dynstat_wvel_min             =  -2.0595561362003E-04
(PID.TID 0000.0001) %MON dynstat_wvel_mean            =  -4.0294967614094E-22
(PID.TID 0000.0001) %MON dynstat_wvel_sd              =   3.9164694753937E-06
(PID.TID 0000.0001) %MON dynstat_wvel_del2            =   8.8099320060259E-07
(PID.TID 0000.0001) %MON dynstat_theta_max            =   3.0357642846470E+01
(PID.TID 0000.0001) %MON dynstat_theta_min            =  -2.0526898133828E+00
(PID.TID 0000.0001) %MON dynstat_theta_mean           =   3.9271210763074E+00
(PID.TID 0000.0001) %MON dynstat_theta_sd             =   4.5689261232174E+00
(PID.TID 0000.0001) %MON dynstat_theta_del2           =   8.6205468118610E-02
(PID.TID 0000.0001) %MON dynstat_salt_max             =   4.1461432006609E+01
(PID.TID 0000.0001) %MON dynstat_salt_min             =   1.8395751720183E+01
(PID.TID 0000.0001) %MON dynstat_salt_mean            =   3.4775441828883E+01
(PID.TID 0000.0001) %MON dynstat_salt_sd              =   5.3405473491586E-01
(PID.TID 0000.0001) %MON dynstat_salt_del2            =   1.8862442819296E-02
(PID.TID 0000.0001) %MON advcfl_uvel_max              =   8.1246965109187E-02
(PID.TID 0000.0001) %MON advcfl_vvel_max              =   7.6012732997455E-02
(PID.TID 0000.0001) %MON advcfl_wvel_max              =   6.7149301950079E-02
(PID.TID 0000.0001) %MON advcfl_W_hf_max              =   1.1816340168749E-01
(PID.TID 0000.0001) %MON pe_b_mean                    =   4.7200086741328E-04
(PID.TID 0000.0001) %MON ke_max                       =   4.0068575133516E-02
(PID.TID 0000.0001) %MON ke_mean                      =   1.4121889654902E-04
(PID.TID 0000.0001) %MON ke_vol                       =   1.3398024453628E+18
(PID.TID 0000.0001) %MON vort_r_min                   =  -1.2114188776259E-06
(PID.TID 0000.0001) %MON vort_r_max                   =   1.2236987911505E-06
(PID.TID 0000.0001) %MON vort_a_mean                  =  -2.0491686508910E-05
(PID.TID 0000.0001) %MON vort_a_sd                    =   7.5056306271458E-05
(PID.TID 0000.0001) %MON vort_p_mean                  =  -2.4712552323768E-05
(PID.TID 0000.0001) %MON vort_p_sd                    =   1.2774947985793E-04
(PID.TID 0000.0001) %MON surfExpan_theta_mean         =  -5.1488514966082E-08
(PID.TID 0000.0001) %MON surfExpan_salt_mean          =   4.4414478927661E-10
(PID.TID 0000.0001) // =======================================================
(PID.TID 0000.0001) // End MONITOR dynamic field statistics
(PID.TID 0000.0001) // =======================================================
(PID.TID 0000.0001) // =======================================================
(PID.TID 0000.0001) // Begin MONITOR Therm.SeaIce statistics
(PID.TID 0000.0001) // =======================================================
(PID.TID 0000.0001) %MON thSI_time_sec                =   6.2213184000000E+09
(PID.TID 0000.0001) %MON thSI_Ice_Area_G              =   7.4823840431250E+12
(PID.TID 0000.0001) %MON thSI_Ice_Area_S              =   1.0682036652954E+11
(PID.TID 0000.0001) %MON thSI_Ice_Area_N              =   7.3755636765955E+12
(PID.TID 0000.0001) %MON thSI_IceH_ave_G              =   6.7739795937563E-01
(PID.TID 0000.0001) %MON thSI_IceH_ave_S              =   1.1469472868137E-01
(PID.TID 0000.0001) %MON thSI_IceH_ave_N              =   6.8554759620148E-01
(PID.TID 0000.0001) %MON thSI_IceH_max_S              =   1.9494544753353E-01
(PID.TID 0000.0001) %MON thSI_IceH_max_N              =   1.0371756007275E+00
(PID.TID 0000.0001) %MON thSI_SnwH_ave_G              =   7.1721227425303E-03
(PID.TID 0000.0001) %MON thSI_SnwH_ave_S              =   5.9586505656747E-03
(PID.TID 0000.0001) %MON thSI_SnwH_ave_N              =   7.1896974728681E-03
(PID.TID 0000.0001) %MON thSI_SnwH_max_S              =   2.4702600026234E-02
(PID.TID 0000.0001) %MON thSI_SnwH_max_N              =   3.7333793381381E-02
(PID.TID 0000.0001) %MON thSI_TotEnerg_G              =  -1.6344671630122E+21
(PID.TID 0000.0001) %MON thSI_Tsrf_ave_G              =  -2.4622636032866E+01
(PID.TID 0000.0001) %MON thSI_Tsrf_ave_S              =  -8.9028643056044E-01
(PID.TID 0000.0001) %MON thSI_Tsrf_ave_N              =  -2.4966351902498E+01
(PID.TID 0000.0001) %MON thSI_Tsrf_min_S              =  -3.6908339162574E+00
(PID.TID 0000.0001) %MON thSI_Tsrf_min_N              =  -3.3080355174556E+01
(PID.TID 0000.0001) %MON thSI_Tsrf_max_S              =   0.0000000000000E+00
(PID.TID 0000.0001) %MON thSI_Tsrf_max_N              =  -1.5507390476298E+00
(PID.TID 0000.0001) %MON thSI_Tic1_ave_G              =  -1.7793644248107E+01
(PID.TID 0000.0001) %MON thSI_Tic1_ave_S              =  -1.2989218945532E+00
(PID.TID 0000.0001) %MON thSI_Tic1_ave_N              =  -1.7833611998340E+01
(PID.TID 0000.0001) %MON thSI_Tic1_min_S              =  -2.6806210180120E+00
(PID.TID 0000.0001) %MON thSI_Tic1_min_N              =  -2.3841712335582E+01
(PID.TID 0000.0001) %MON thSI_Tic1_max_S              =  -3.2230328079336E-01
(PID.TID 0000.0001) %MON thSI_Tic1_max_N              =  -1.5507390476298E+00
(PID.TID 0000.0001) %MON thSI_Tic2_ave_G              =  -6.6017601644075E+00
(PID.TID 0000.0001) %MON thSI_Tic2_ave_S              =  -1.6493104828416E+00
(PID.TID 0000.0001) %MON thSI_Tic2_ave_N              =  -6.6137602616309E+00
(PID.TID 0000.0001) %MON thSI_Tic2_min_S              =  -2.1102667721639E+00
(PID.TID 0000.0001) %MON thSI_Tic2_min_N              =  -8.4374285775033E+00
(PID.TID 0000.0001) %MON thSI_Tic2_max_S              =  -1.3175663034184E+00
(PID.TID 0000.0001) %MON thSI_Tic2_max_N              =  -1.5507390476298E+00
(PID.TID 0000.0001) // =======================================================
(PID.TID 0000.0001) // End MONITOR Therm.SeaIce statistics
(PID.TID 0000.0001) // =======================================================
 cg2d: Sum(rhs),rhsMax =  -3.46478457036170E-10  4.24581273475469E+00
(PID.TID 0000.0001)                    cg2d_init_res =    2.68180827110606E-01
(PID.TID 0000.0001)                       cg2d_iters =    65
(PID.TID 0000.0001)                         cg2d_res =    5.05240394899790E-07
(PID.TID 0000.0001) // =======================================================
(PID.TID 0000.0001) // Begin MONITOR dynamic field statistics
(PID.TID 0000.0001) // =======================================================
(PID.TID 0000.0001) %MON time_tsnumber                =                 72007
(PID.TID 0000.0001) %MON time_secondsf                =   6.2214048000000E+09
(PID.TID 0000.0001) %MON dynstat_eta_max              =   9.0645900677461E-01
(PID.TID 0000.0001) %MON dynstat_eta_min              =  -1.6064874732641E+00
(PID.TID 0000.0001) %MON dynstat_eta_mean             =   5.1472484181066E-13
(PID.TID 0000.0001) %MON dynstat_eta_sd               =   5.9487223563847E-01
(PID.TID 0000.0001) %MON dynstat_eta_del2             =   1.1092260584969E-02
(PID.TID 0000.0001) %MON dynstat_uvel_max             =   1.8675159239081E-01
(PID.TID 0000.0001) %MON dynstat_uvel_min             =  -2.8608325840868E-01
(PID.TID 0000.0001) %MON dynstat_uvel_mean            =  -4.9102353985166E-04
(PID.TID 0000.0001) %MON dynstat_uvel_sd              =   1.2038326030746E-02
(PID.TID 0000.0001) %MON dynstat_uvel_del2            =   1.5708596249988E-03
(PID.TID 0000.0001) %MON dynstat_vvel_max             =   1.7450317275090E-01
(PID.TID 0000.0001) %MON dynstat_vvel_min             =  -2.2474694479978E-01
(PID.TID 0000.0001) %MON dynstat_vvel_mean            =  -4.1391647877291E-04
(PID.TID 0000.0001) %MON dynstat_vvel_sd              =   1.2676187894831E-02
(PID.TID 0000.0001) %MON dynstat_vvel_del2            =   1.5929143721967E-03
(PID.TID 0000.0001) %MON dynstat_wvel_max             =   1.0538016010308E-04
(PID.TID 0000.0001) %MON dynstat_wvel_min             =  -2.0590076482943E-04
(PID.TID 0000.0001) %MON dynstat_wvel_mean            =   5.8328136751334E-23
(PID.TID 0000.0001) %MON dynstat_wvel_sd              =   3.9148945030351E-06
(PID.TID 0000.0001) %MON dynstat_wvel_del2            =   8.8213332223866E-07
(PID.TID 0000.0001) %MON dynstat_theta_max            =   3.0276447108965E+01
(PID.TID 0000.0001) %MON dynstat_theta_min            =  -2.1151394720008E+00
(PID.TID 0000.0001) %MON dynstat_theta_mean           =   3.9271065379528E+00
(PID.TID 0000.0001) %MON dynstat_theta_sd             =   4.5683845278116E+00
(PID.TID 0000.0001) %MON dynstat_theta_del2           =   8.6062562102317E-02
(PID.TID 0000.0001) %MON dynstat_salt_max             =   4.1462699180327E+01
(PID.TID 0000.0001) %MON dynstat_salt_min             =   1.8396893612028E+01
(PID.TID 0000.0001) %MON dynstat_salt_mean            =   3.4775470126129E+01
(PID.TID 0000.0001) %MON dynstat_salt_sd              =   5.3394234704074E-01
(PID.TID 0000.0001) %MON dynstat_salt_del2            =   1.8848941764607E-02
(PID.TID 0000.0001) %MON advcfl_uvel_max              =   8.1138638708348E-02
(PID.TID 0000.0001) %MON advcfl_vvel_max              =   7.6063474564042E-02
(PID.TID 0000.0001) %MON advcfl_wvel_max              =   6.7131419174576E-02
(PID.TID 0000.0001) %MON advcfl_W_hf_max              =   1.1730130733330E-01
(PID.TID 0000.0001) %MON pe_b_mean                    =   4.7142419935178E-04
(PID.TID 0000.0001) %MON ke_max                       =   3.9945658286785E-02
(PID.TID 0000.0001) %MON ke_mean                      =   1.4131448552212E-04
(PID.TID 0000.0001) %MON ke_vol                       =   1.3398024453628E+18
(PID.TID 0000.0001) %MON vort_r_min                   =  -1.2167231026581E-06
(PID.TID 0000.0001) %MON vort_r_max                   =   1.2265048301046E-06
(PID.TID 0000.0001) %MON vort_a_mean                  =  -2.0491686519962E-05
(PID.TID 0000.0001) %MON vort_a_sd                    =   7.5056306287196E-05
(PID.TID 0000.0001) %MON vort_p_mean                  =  -2.4712552337097E-05
(PID.TID 0000.0001) %MON vort_p_sd                    =   1.2774948461081E-04
(PID.TID 0000.0001) %MON surfExpan_theta_mean         =  -4.0764619239697E-08
(PID.TID 0000.0001) %MON surfExpan_salt_mean          =   3.4963224523786E-10
(PID.TID 0000.0001) // =======================================================
(PID.TID 0000.0001) // End MONITOR dynamic field statistics
(PID.TID 0000.0001) // =======================================================
(PID.TID 0000.0001) // =======================================================
(PID.TID 0000.0001) // Begin MONITOR Therm.SeaIce statistics
(PID.TID 0000.0001) // =======================================================
(PID.TID 0000.0001) %MON thSI_time_sec                =   6.2214048000000E+09
(PID.TID 0000.0001) %MON thSI_Ice_Area_G              =   7.9711060616559E+12
(PID.TID 0000.0001) %MON thSI_Ice_Area_S              =   7.6994598750699E+10
(PID.TID 0000.0001) %MON thSI_Ice_Area_N              =   7.8941114629052E+12
(PID.TID 0000.0001) %MON thSI_IceH_ave_G              =   7.0844801687638E-01
(PID.TID 0000.0001) %MON thSI_IceH_ave_S              =   1.0512808079540E-01
(PID.TID 0000.0001) %MON thSI_IceH_ave_N              =   7.1433245068697E-01
(PID.TID 0000.0001) %MON thSI_IceH_max_S              =   1.9259911114383E-01
(PID.TID 0000.0001) %MON thSI_IceH_max_N              =   1.1142216915140E+00
(PID.TID 0000.0001) %MON thSI_SnwH_ave_G              =   8.7135145049371E-03
(PID.TID 0000.0001) %MON thSI_SnwH_ave_S              =   1.0065317964921E-02
(PID.TID 0000.0001) %MON thSI_SnwH_ave_N              =   8.7003297956154E-03
(PID.TID 0000.0001) %MON thSI_SnwH_max_S              =   3.0311384285956E-02
(PID.TID 0000.0001) %MON thSI_SnwH_max_N              =   4.5202379536723E-02
(PID.TID 0000.0001) %MON thSI_TotEnerg_G              =  -1.8260699926906E+21
(PID.TID 0000.0001) %MON thSI_Tsrf_ave_G              =  -2.4849690209299E+01
(PID.TID 0000.0001) %MON thSI_Tsrf_ave_S              =  -1.2426512821293E+00
(PID.TID 0000.0001) %MON thSI_Tsrf_ave_N              =  -2.5079939617156E+01
(PID.TID 0000.0001) %MON thSI_Tsrf_min_S              =  -3.7422047348458E+00
(PID.TID 0000.0001) %MON thSI_Tsrf_min_N              =  -3.3546060703530E+01
(PID.TID 0000.0001) %MON thSI_Tsrf_max_S              =   0.0000000000000E+00
(PID.TID 0000.0001) %MON thSI_Tsrf_max_N              =  -1.1075493809504E+00
(PID.TID 0000.0001) %MON thSI_Tic1_ave_G              =  -1.7994108367904E+01
(PID.TID 0000.0001) %MON thSI_Tic1_ave_S              =  -1.7317975874334E+00
(PID.TID 0000.0001) %MON thSI_Tic1_ave_N              =  -1.8017451418886E+01
(PID.TID 0000.0001) %MON thSI_Tic1_min_S              =  -2.6126343358932E+00
(PID.TID 0000.0001) %MON thSI_Tic1_min_N              =  -2.4289405607746E+01
(PID.TID 0000.0001) %MON thSI_Tic1_max_S              =  -3.4688805439484E-01
(PID.TID 0000.0001) %MON thSI_Tic1_max_N              =  -1.1075493809504E+00
(PID.TID 0000.0001) %MON thSI_Tic2_ave_G              =  -6.6830214401008E+00
(PID.TID 0000.0001) %MON thSI_Tic2_ave_S              =  -1.7922490493234E+00
(PID.TID 0000.0001) %MON thSI_Tic2_ave_N              =  -6.6900416939135E+00
(PID.TID 0000.0001) %MON thSI_Tic2_min_S              =  -2.0871268940831E+00
(PID.TID 0000.0001) %MON thSI_Tic2_min_N              =  -8.6139866699231E+00
(PID.TID 0000.0001) %MON thSI_Tic2_max_S              =  -1.3233369157780E+00
(PID.TID 0000.0001) %MON thSI_Tic2_max_N              =  -1.1075493809504E+00
(PID.TID 0000.0001) // =======================================================
(PID.TID 0000.0001) // End MONITOR Therm.SeaIce statistics
(PID.TID 0000.0001) // =======================================================
 cg2d: Sum(rhs),rhsMax =  -3.46684736474145E-10  4.24267498822948E+00
(PID.TID 0000.0001)                    cg2d_init_res =    2.84961962716236E-01
(PID.TID 0000.0001)                       cg2d_iters =    64
(PID.TID 0000.0001)                         cg2d_res =    5.34667019137969E-07
(PID.TID 0000.0001) // =======================================================
(PID.TID 0000.0001) // Begin MONITOR dynamic field statistics
(PID.TID 0000.0001) // =======================================================
(PID.TID 0000.0001) %MON time_tsnumber                =                 72008
(PID.TID 0000.0001) %MON time_secondsf                =   6.2214912000000E+09
(PID.TID 0000.0001) %MON dynstat_eta_max              =   9.0523968211543E-01
(PID.TID 0000.0001) %MON dynstat_eta_min              =  -1.6059894962191E+00
(PID.TID 0000.0001) %MON dynstat_eta_mean             =   5.1435507403909E-13
(PID.TID 0000.0001) %MON dynstat_eta_sd               =   5.9459738896148E-01
(PID.TID 0000.0001) %MON dynstat_eta_del2             =   1.1076712254231E-02
(PID.TID 0000.0001) %MON dynstat_uvel_max             =   1.8677766234749E-01
(PID.TID 0000.0001) %MON dynstat_uvel_min             =  -2.8568395535397E-01
(PID.TID 0000.0001) %MON dynstat_uvel_mean            =  -4.9160519038689E-04
(PID.TID 0000.0001) %MON dynstat_uvel_sd              =   1.2041577668016E-02
(PID.TID 0000.0001) %MON dynstat_uvel_del2            =   1.5708192480771E-03
(PID.TID 0000.0001) %MON dynstat_vvel_max             =   1.7458783481019E-01
(PID.TID 0000.0001) %MON dynstat_vvel_min             =  -2.2464901949323E-01
(PID.TID 0000.0001) %MON dynstat_vvel_mean            =  -4.1369788076140E-04
(PID.TID 0000.0001) %MON dynstat_vvel_sd              =   1.2681624988926E-02
(PID.TID 0000.0001) %MON dynstat_vvel_del2            =   1.5926320242284E-03
(PID.TID 0000.0001) %MON dynstat_wvel_max             =   1.0585059669185E-04
(PID.TID 0000.0001) %MON dynstat_wvel_min             =  -2.0579420686345E-04
(PID.TID 0000.0001) %MON dynstat_wvel_mean            =   2.4383581648219E-22
(PID.TID 0000.0001) %MON dynstat_wvel_sd              =   3.9129985248536E-06
(PID.TID 0000.0001) %MON dynstat_wvel_del2            =   8.8263112015267E-07
(PID.TID 0000.0001) %MON dynstat_theta_max            =   3.0198599076881E+01
(PID.TID 0000.0001) %MON dynstat_theta_min            =  -2.1070420428333E+00
(PID.TID 0000.0001) %MON dynstat_theta_mean           =   3.9271052212386E+00
(PID.TID 0000.0001) %MON dynstat_theta_sd             =   4.5678907407158E+00
(PID.TID 0000.0001) %MON dynstat_theta_del2           =   8.5949867950651E-02
(PID.TID 0000.0001) %MON dynstat_salt_max             =   4.1463647534953E+01
(PID.TID 0000.0001) %MON dynstat_salt_min             =   1.8398007388028E+01
(PID.TID 0000.0001) %MON dynstat_salt_mean            =   3.4775498251057E+01
(PID.TID 0000.0001) %MON dynstat_salt_sd              =   5.3382670117058E-01
(PID.TID 0000.0001) %MON dynstat_salt_del2            =   1.8837067150205E-02
(PID.TID 0000.0001) %MON advcfl_uvel_max              =   8.1025388787777E-02
(PID.TID 0000.0001) %MON advcfl_vvel_max              =   7.6100377562950E-02
(PID.TID 0000.0001) %MON advcfl_wvel_max              =   6.7096677256612E-02
(PID.TID 0000.0001) %MON advcfl_W_hf_max              =   1.1638001493533E-01
(PID.TID 0000.0001) %MON pe_b_mean                    =   4.7098867913534E-04
(PID.TID 0000.0001) %MON ke_max                       =   3.9820050026018E-02
(PID.TID 0000.0001) %MON ke_mean                      =   1.4141460046583E-04
(PID.TID 0000.0001) %MON ke_vol                       =   1.3398024453628E+18
(PID.TID 0000.0001) %MON vort_r_min                   =  -1.2221667490202E-06
(PID.TID 0000.0001) %MON vort_r_max                   =   1.2294635308457E-06
(PID.TID 0000.0001) %MON vort_a_mean                  =  -2.0491686531168E-05
(PID.TID 0000.0001) %MON vort_a_sd                    =   7.5056306330628E-05
(PID.TID 0000.0001) %MON vort_p_mean                  =  -2.4712552350610E-05
(PID.TID 0000.0001) %MON vort_p_sd                    =   1.2774948985663E-04
(PID.TID 0000.0001) %MON surfExpan_theta_mean         =  -3.2427016655100E-08
(PID.TID 0000.0001) %MON surfExpan_salt_mean          =   9.1772325098029E-12
(PID.TID 0000.0001) // =======================================================
(PID.TID 0000.0001) // End MONITOR dynamic field statistics
(PID.TID 0000.0001) // =======================================================
(PID.TID 0000.0001) // =======================================================
(PID.TID 0000.0001) // Begin MONITOR Therm.SeaIce statistics
(PID.TID 0000.0001) // =======================================================
(PID.TID 0000.0001) %MON thSI_time_sec                =   6.2214912000000E+09
(PID.TID 0000.0001) %MON thSI_Ice_Area_G              =   8.3457094197346E+12
(PID.TID 0000.0001) %MON thSI_Ice_Area_S              =   4.0065522675120E+10
(PID.TID 0000.0001) %MON thSI_Ice_Area_N              =   8.3056438970595E+12
(PID.TID 0000.0001) %MON thSI_IceH_ave_G              =   7.4698017722816E-01
(PID.TID 0000.0001) %MON thSI_IceH_ave_S              =   1.3385419525795E-01
(PID.TID 0000.0001) %MON thSI_IceH_ave_N              =   7.4993783026961E-01
(PID.TID 0000.0001) %MON thSI_IceH_max_S              =   1.8916017282237E-01
(PID.TID 0000.0001) %MON thSI_IceH_max_N              =   1.1861338653669E+00
(PID.TID 0000.0001) %MON thSI_SnwH_ave_G              =   1.0301386616732E-02
(PID.TID 0000.0001) %MON thSI_SnwH_ave_S              =   2.2659125565839E-02
(PID.TID 0000.0001) %MON thSI_SnwH_ave_N              =   1.0241774228311E-02
(PID.TID 0000.0001) %MON thSI_SnwH_max_S              =   3.5919257720295E-02
(PID.TID 0000.0001) %MON thSI_SnwH_max_N              =   5.2982051181415E-02
(PID.TID 0000.0001) %MON thSI_TotEnerg_G              =  -2.0198197413917E+21
(PID.TID 0000.0001) %MON thSI_Tsrf_ave_G              =  -2.5576258931662E+01
(PID.TID 0000.0001) %MON thSI_Tsrf_ave_S              =  -2.3883758507292E+00
(PID.TID 0000.0001) %MON thSI_Tsrf_ave_N              =  -2.5688114757277E+01
(PID.TID 0000.0001) %MON thSI_Tsrf_min_S              =  -3.7860546500792E+00
(PID.TID 0000.0001) %MON thSI_Tsrf_min_N              =  -3.3851447307245E+01
(PID.TID 0000.0001) %MON thSI_Tsrf_max_S              =   0.0000000000000E+00
(PID.TID 0000.0001) %MON thSI_Tsrf_max_N              =  -1.4136032126039E+00
(PID.TID 0000.0001) %MON thSI_Tic1_ave_G              =  -1.8282383167600E+01
(PID.TID 0000.0001) %MON thSI_Tic1_ave_S              =  -2.3158411629685E+00
(PID.TID 0000.0001) %MON thSI_Tic1_ave_N              =  -1.8296130394447E+01
(PID.TID 0000.0001) %MON thSI_Tic1_min_S              =  -2.5499635765052E+00
(PID.TID 0000.0001) %MON thSI_Tic1_min_N              =  -2.4579610120571E+01
(PID.TID 0000.0001) %MON thSI_Tic1_max_S              =  -3.8472943115072E-01
(PID.TID 0000.0001) %MON thSI_Tic1_max_N              =  -1.4136032126039E+00
(PID.TID 0000.0001) %MON thSI_Tic2_ave_G              =  -6.8065060576353E+00
(PID.TID 0000.0001) %MON thSI_Tic2_ave_S              =  -1.9876086660925E+00
(PID.TID 0000.0001) %MON thSI_Tic2_ave_N              =  -6.8106551386056E+00
(PID.TID 0000.0001) %MON thSI_Tic2_min_S              =  -2.0655921462439E+00
(PID.TID 0000.0001) %MON thSI_Tic2_min_N              =  -9.0836300706291E+00
(PID.TID 0000.0001) %MON thSI_Tic2_max_S              =  -1.3423729238568E+00
(PID.TID 0000.0001) %MON thSI_Tic2_max_N              =  -1.4136032126039E+00
(PID.TID 0000.0001) // =======================================================
(PID.TID 0000.0001) // End MONITOR Therm.SeaIce statistics
(PID.TID 0000.0001) // =======================================================
 cg2d: Sum(rhs),rhsMax =  -3.46746575896617E-10  4.23958375127383E+00
(PID.TID 0000.0001)                    cg2d_init_res =    2.28168653440073E-01
(PID.TID 0000.0001)                       cg2d_iters =    62
(PID.TID 0000.0001)                         cg2d_res =    5.26897999685963E-07
(PID.TID 0000.0001) // =======================================================
(PID.TID 0000.0001) // Begin MONITOR dynamic field statistics
(PID.TID 0000.0001) // =======================================================
(PID.TID 0000.0001) %MON time_tsnumber                =                 72009
(PID.TID 0000.0001) %MON time_secondsf                =   6.2215776000000E+09
(PID.TID 0000.0001) %MON dynstat_eta_max              =   9.0404604266556E-01
(PID.TID 0000.0001) %MON dynstat_eta_min              =  -1.6056719215051E+00
(PID.TID 0000.0001) %MON dynstat_eta_mean             =   5.1462918438588E-13
(PID.TID 0000.0001) %MON dynstat_eta_sd               =   5.9438890488931E-01
(PID.TID 0000.0001) %MON dynstat_eta_del2             =   1.1064225594725E-02
(PID.TID 0000.0001) %MON dynstat_uvel_max             =   1.8674553862572E-01
(PID.TID 0000.0001) %MON dynstat_uvel_min             =  -2.8526725180589E-01
(PID.TID 0000.0001) %MON dynstat_uvel_mean            =  -4.9201170760236E-04
(PID.TID 0000.0001) %MON dynstat_uvel_sd              =   1.2045205181204E-02
(PID.TID 0000.0001) %MON dynstat_uvel_del2            =   1.5706788328105E-03
(PID.TID 0000.0001) %MON dynstat_vvel_max             =   1.7464091103959E-01
(PID.TID 0000.0001) %MON dynstat_vvel_min             =  -2.2454598250716E-01
(PID.TID 0000.0001) %MON dynstat_vvel_mean            =  -4.1349530244153E-04
(PID.TID 0000.0001) %MON dynstat_vvel_sd              =   1.2686982944680E-02
(PID.TID 0000.0001) %MON dynstat_vvel_del2            =   1.5923216643864E-03
(PID.TID 0000.0001) %MON dynstat_wvel_max             =   1.0634913569144E-04
(PID.TID 0000.0001) %MON dynstat_wvel_min             =  -2.0564031254078E-04
(PID.TID 0000.0001) %MON dynstat_wvel_mean            =   2.7690990202807E-22
(PID.TID 0000.0001) %MON dynstat_wvel_sd              =   3.9108107527853E-06
(PID.TID 0000.0001) %MON dynstat_wvel_del2            =   8.8269679022090E-07
(PID.TID 0000.0001) %MON dynstat_theta_max            =   3.0163000981708E+01
(PID.TID 0000.0001) %MON dynstat_theta_min            =  -2.1352975836489E+00
(PID.TID 0000.0001) %MON dynstat_theta_mean           =   3.9271135316589E+00
(PID.TID 0000.0001) %MON dynstat_theta_sd             =   4.5674430164915E+00
(PID.TID 0000.0001) %MON dynstat_theta_del2           =   8.5843601695813E-02
(PID.TID 0000.0001) %MON dynstat_salt_max             =   4.1464265615618E+01
(PID.TID 0000.0001) %MON dynstat_salt_min             =   1.8399097417162E+01
(PID.TID 0000.0001) %MON dynstat_salt_mean            =   3.4775525635705E+01
(PID.TID 0000.0001) %MON dynstat_salt_sd              =   5.3372187425450E-01
(PID.TID 0000.0001) %MON dynstat_salt_del2            =   1.8823693572798E-02
(PID.TID 0000.0001) %MON advcfl_uvel_max              =   8.0907203757223E-02
(PID.TID 0000.0001) %MON advcfl_vvel_max              =   7.6123512743595E-02
(PID.TID 0000.0001) %MON advcfl_wvel_max              =   6.7046501900088E-02
(PID.TID 0000.0001) %MON advcfl_W_hf_max              =   1.1540313832847E-01
(PID.TID 0000.0001) %MON pe_b_mean                    =   4.7065845090109E-04
(PID.TID 0000.0001) %MON ke_max                       =   3.9691680101299E-02
(PID.TID 0000.0001) %MON ke_mean                      =   1.4151790934886E-04
(PID.TID 0000.0001) %MON ke_vol                       =   1.3398024453628E+18
(PID.TID 0000.0001) %MON vort_r_min                   =  -1.2277208316086E-06
(PID.TID 0000.0001) %MON vort_r_max                   =   1.2325411649041E-06
(PID.TID 0000.0001) %MON vort_a_mean                  =  -2.0491686542305E-05
(PID.TID 0000.0001) %MON vort_a_sd                    =   7.5056306381004E-05
(PID.TID 0000.0001) %MON vort_p_mean                  =  -2.4712552364042E-05
(PID.TID 0000.0001) %MON vort_p_sd                    =   1.2774949526946E-04
(PID.TID 0000.0001) %MON surfExpan_theta_mean         =  -2.7444981456117E-08
(PID.TID 0000.0001) %MON surfExpan_salt_mean          =  -2.5186641524199E-10
(PID.TID 0000.0001) // =======================================================
(PID.TID 0000.0001) // End MONITOR dynamic field statistics
(PID.TID 0000.0001) // =======================================================
(PID.TID 0000.0001) // =======================================================
(PID.TID 0000.0001) // Begin MONITOR Therm.SeaIce statistics
(PID.TID 0000.0001) // =======================================================
(PID.TID 0000.0001) %MON thSI_time_sec                =   6.2215776000000E+09
(PID.TID 0000.0001) %MON thSI_Ice_Area_G              =   8.7156504278661E+12
(PID.TID 0000.0001) %MON thSI_Ice_Area_S              =   2.4888584519323E+10
(PID.TID 0000.0001) %MON thSI_Ice_Area_N              =   8.6907618433468E+12
(PID.TID 0000.0001) %MON thSI_IceH_ave_G              =   7.8010209967069E-01
(PID.TID 0000.0001) %MON thSI_IceH_ave_S              =   1.8462431685205E-01
(PID.TID 0000.0001) %MON thSI_IceH_ave_N              =   7.8180742762631E-01
(PID.TID 0000.0001) %MON thSI_IceH_max_S              =   1.8462431685205E-01
(PID.TID 0000.0001) %MON thSI_IceH_max_N              =   1.2537176072137E+00
(PID.TID 0000.0001) %MON thSI_SnwH_ave_G              =   1.1841889789730E-02
(PID.TID 0000.0001) %MON thSI_SnwH_ave_S              =   4.1522201989702E-02
(PID.TID 0000.0001) %MON thSI_SnwH_ave_N              =   1.1756891377386E-02
(PID.TID 0000.0001) %MON thSI_SnwH_max_S              =   4.1522201989702E-02
(PID.TID 0000.0001) %MON thSI_SnwH_max_N              =   6.2233238771872E-02
(PID.TID 0000.0001) %MON thSI_TotEnerg_G              =  -2.2063735246782E+21
(PID.TID 0000.0001) %MON thSI_Tsrf_ave_G              =  -2.5966427894856E+01
(PID.TID 0000.0001) %MON thSI_Tsrf_ave_S              =  -3.8244644216137E+00
(PID.TID 0000.0001) %MON thSI_Tsrf_ave_N              =  -2.6029838000812E+01
(PID.TID 0000.0001) %MON thSI_Tsrf_min_S              =  -3.8244644216137E+00
(PID.TID 0000.0001) %MON thSI_Tsrf_min_N              =  -3.4125585980864E+01
(PID.TID 0000.0001) %MON thSI_Tsrf_max_S              =  -3.8244644216137E+00
(PID.TID 0000.0001) %MON thSI_Tsrf_max_N              =  -1.6093987722946E+00
(PID.TID 0000.0001) %MON thSI_Tic1_ave_G              =  -1.8415969324520E+01
(PID.TID 0000.0001) %MON thSI_Tic1_ave_S              =  -2.4926366489074E+00
(PID.TID 0000.0001) %MON thSI_Tic1_ave_N              =  -1.8426738077791E+01
(PID.TID 0000.0001) %MON thSI_Tic1_min_S              =  -2.4926366489074E+00
(PID.TID 0000.0001) %MON thSI_Tic1_min_N              =  -2.4796580962827E+01
(PID.TID 0000.0001) %MON thSI_Tic1_max_S              =  -2.4926366489074E+00
(PID.TID 0000.0001) %MON thSI_Tic1_max_N              =  -1.6093987722946E+00
(PID.TID 0000.0001) %MON thSI_Tic2_ave_G              =  -6.8620370061908E+00
(PID.TID 0000.0001) %MON thSI_Tic2_ave_S              =  -2.0457822206419E+00
(PID.TID 0000.0001) %MON thSI_Tic2_ave_N              =  -6.8652941798322E+00
(PID.TID 0000.0001) %MON thSI_Tic2_min_S              =  -2.0457822206419E+00
(PID.TID 0000.0001) %MON thSI_Tic2_min_N              =  -9.3255122083259E+00
(PID.TID 0000.0001) %MON thSI_Tic2_max_S              =  -2.0457822206419E+00
(PID.TID 0000.0001) %MON thSI_Tic2_max_N              =  -1.6093987722946E+00
(PID.TID 0000.0001) // =======================================================
(PID.TID 0000.0001) // End MONITOR Therm.SeaIce statistics
(PID.TID 0000.0001) // =======================================================
 cg2d: Sum(rhs),rhsMax =  -3.46108364190911E-10  4.23658989019067E+00
(PID.TID 0000.0001)                    cg2d_init_res =    2.20413136594610E-01
(PID.TID 0000.0001)                       cg2d_iters =    61
(PID.TID 0000.0001)                         cg2d_res =    5.00576384835982E-07
(PID.TID 0000.0001) // =======================================================
(PID.TID 0000.0001) // Begin MONITOR dynamic field statistics
(PID.TID 0000.0001) // =======================================================
(PID.TID 0000.0001) %MON time_tsnumber                =                 72010
(PID.TID 0000.0001) %MON time_secondsf                =   6.2216640000000E+09
(PID.TID 0000.0001) %MON dynstat_eta_max              =   9.0291382583101E-01
(PID.TID 0000.0001) %MON dynstat_eta_min              =  -1.6054774825121E+00
(PID.TID 0000.0001) %MON dynstat_eta_mean             =   5.1479151076294E-13
(PID.TID 0000.0001) %MON dynstat_eta_sd               =   5.9422371681203E-01
(PID.TID 0000.0001) %MON dynstat_eta_del2             =   1.1052358593183E-02
(PID.TID 0000.0001) %MON dynstat_uvel_max             =   1.8665505727323E-01
(PID.TID 0000.0001) %MON dynstat_uvel_min             =  -2.8483293928068E-01
(PID.TID 0000.0001) %MON dynstat_uvel_mean            =  -4.9212370404502E-04
(PID.TID 0000.0001) %MON dynstat_uvel_sd              =   1.2049161094949E-02
(PID.TID 0000.0001) %MON dynstat_uvel_del2            =   1.5704713925161E-03
(PID.TID 0000.0001) %MON dynstat_vvel_max             =   1.7466236900257E-01
(PID.TID 0000.0001) %MON dynstat_vvel_min             =  -2.2443876073265E-01
(PID.TID 0000.0001) %MON dynstat_vvel_mean            =  -4.1340306179382E-04
(PID.TID 0000.0001) %MON dynstat_vvel_sd              =   1.2692175977833E-02
(PID.TID 0000.0001) %MON dynstat_vvel_del2            =   1.5919582390312E-03
(PID.TID 0000.0001) %MON dynstat_wvel_max             =   1.0686450940888E-04
(PID.TID 0000.0001) %MON dynstat_wvel_min             =  -2.0543545247451E-04
(PID.TID 0000.0001) %MON dynstat_wvel_mean            =  -4.8415959189368E-23
(PID.TID 0000.0001) %MON dynstat_wvel_sd              =   3.9083066453993E-06
(PID.TID 0000.0001) %MON dynstat_wvel_del2            =   8.8245285030645E-07
(PID.TID 0000.0001) %MON dynstat_theta_max            =   3.0141531257775E+01
(PID.TID 0000.0001) %MON dynstat_theta_min            =  -2.1636083602315E+00
(PID.TID 0000.0001) %MON dynstat_theta_mean           =   3.9271285732693E+00
(PID.TID 0000.0001) %MON dynstat_theta_sd             =   4.5670415003080E+00
(PID.TID 0000.0001) %MON dynstat_theta_del2           =   8.5783880319786E-02
(PID.TID 0000.0001) %MON dynstat_salt_max             =   4.1464546074285E+01
(PID.TID 0000.0001) %MON dynstat_salt_min             =   1.8400168911464E+01
(PID.TID 0000.0001) %MON dynstat_salt_mean            =   3.4775551677387E+01
(PID.TID 0000.0001) %MON dynstat_salt_sd              =   5.3362992820138E-01
(PID.TID 0000.0001) %MON dynstat_salt_del2            =   1.8813550672577E-02
(PID.TID 0000.0001) %MON advcfl_uvel_max              =   8.0784024486736E-02
(PID.TID 0000.0001) %MON advcfl_vvel_max              =   7.6132865967356E-02
(PID.TID 0000.0001) %MON advcfl_wvel_max              =   6.6979709787916E-02
(PID.TID 0000.0001) %MON advcfl_W_hf_max              =   1.1437552404849E-01
(PID.TID 0000.0001) %MON pe_b_mean                    =   4.7039688356541E-04
(PID.TID 0000.0001) %MON ke_max                       =   3.9560418291206E-02
(PID.TID 0000.0001) %MON ke_mean                      =   1.4162286087410E-04
(PID.TID 0000.0001) %MON ke_vol                       =   1.3398024453628E+18
(PID.TID 0000.0001) %MON vort_r_min                   =  -1.2333570789322E-06
(PID.TID 0000.0001) %MON vort_r_max                   =   1.2357025484334E-06
(PID.TID 0000.0001) %MON vort_a_mean                  =  -2.0491686553209E-05
(PID.TID 0000.0001) %MON vort_a_sd                    =   7.5056306424741E-05
(PID.TID 0000.0001) %MON vort_p_mean                  =  -2.4712552377191E-05
(PID.TID 0000.0001) %MON vort_p_sd                    =   1.2774950084249E-04
(PID.TID 0000.0001) %MON surfExpan_theta_mean         =  -2.5301076164824E-08
(PID.TID 0000.0001) %MON surfExpan_salt_mean          =  -3.7070309760098E-10
(PID.TID 0000.0001) // =======================================================
(PID.TID 0000.0001) // End MONITOR dynamic field statistics
(PID.TID 0000.0001) // =======================================================
(PID.TID 0000.0001) // =======================================================
(PID.TID 0000.0001) // Begin MONITOR Therm.SeaIce statistics
(PID.TID 0000.0001) // =======================================================
(PID.TID 0000.0001) %MON thSI_time_sec                =   6.2216640000000E+09
(PID.TID 0000.0001) %MON thSI_Ice_Area_G              =   8.9626451085409E+12
(PID.TID 0000.0001) %MON thSI_Ice_Area_S              =   2.4407409997931E+10
(PID.TID 0000.0001) %MON thSI_Ice_Area_N              =   8.9382376985429E+12
(PID.TID 0000.0001) %MON thSI_IceH_ave_G              =   8.1573662560544E-01
(PID.TID 0000.0001) %MON thSI_IceH_ave_S              =   1.7898980859627E-01
(PID.TID 0000.0001) %MON thSI_IceH_ave_N              =   8.1747537334876E-01
(PID.TID 0000.0001) %MON thSI_IceH_max_S              =   1.7898980859627E-01
(PID.TID 0000.0001) %MON thSI_IceH_max_N              =   1.3201767720241E+00
(PID.TID 0000.0001) %MON thSI_SnwH_ave_G              =   1.3541360417153E-02
(PID.TID 0000.0001) %MON thSI_SnwH_ave_S              =   4.7117399075937E-02
(PID.TID 0000.0001) %MON thSI_SnwH_ave_N              =   1.3449675213728E-02
(PID.TID 0000.0001) %MON thSI_SnwH_max_S              =   4.7117399075937E-02
(PID.TID 0000.0001) %MON thSI_SnwH_max_N              =   7.4629960436840E-02
(PID.TID 0000.0001) %MON thSI_TotEnerg_G              =  -2.3760889306092E+21
(PID.TID 0000.0001) %MON thSI_Tsrf_ave_G              =  -2.6336063310849E+01
(PID.TID 0000.0001) %MON thSI_Tsrf_ave_S              =  -3.8585915777621E+00
(PID.TID 0000.0001) %MON thSI_Tsrf_ave_N              =  -2.6397441950219E+01
(PID.TID 0000.0001) %MON thSI_Tsrf_min_S              =  -3.8585915777621E+00
(PID.TID 0000.0001) %MON thSI_Tsrf_min_N              =  -3.4369321596058E+01
(PID.TID 0000.0001) %MON thSI_Tsrf_max_S              =  -3.8585915777621E+00
(PID.TID 0000.0001) %MON thSI_Tsrf_max_N              =  -1.6190117267840E+00
(PID.TID 0000.0001) %MON thSI_Tic1_ave_G              =  -1.8534763920905E+01
(PID.TID 0000.0001) %MON thSI_Tic1_ave_S              =  -2.4395926370748E+00
(PID.TID 0000.0001) %MON thSI_Tic1_ave_N              =  -1.8544387110112E+01
(PID.TID 0000.0001) %MON thSI_Tic1_min_S              =  -2.4395926370748E+00
(PID.TID 0000.0001) %MON thSI_Tic1_min_N              =  -2.4961114395076E+01
(PID.TID 0000.0001) %MON thSI_Tic1_max_S              =  -2.4395926370748E+00
(PID.TID 0000.0001) %MON thSI_Tic1_max_N              =  -1.6190117267840E+00
(PID.TID 0000.0001) %MON thSI_Tic2_ave_G              =  -6.9122606900408E+00
(PID.TID 0000.0001) %MON thSI_Tic2_ave_S              =  -2.0273953915455E+00
(PID.TID 0000.0001) %MON thSI_Tic2_ave_N              =  -6.9151813164938E+00
(PID.TID 0000.0001) %MON thSI_Tic2_min_S              =  -2.0273953915455E+00
(PID.TID 0000.0001) %MON thSI_Tic2_min_N              =  -9.4411690067273E+00
(PID.TID 0000.0001) %MON thSI_Tic2_max_S              =  -2.0273953915455E+00
(PID.TID 0000.0001) %MON thSI_Tic2_max_N              =  -1.6190117267840E+00
(PID.TID 0000.0001) // =======================================================
(PID.TID 0000.0001) // End MONITOR Therm.SeaIce statistics
(PID.TID 0000.0001) // =======================================================
 cg2d: Sum(rhs),rhsMax =  -3.46230433212469E-10  4.23374882749472E+00
(PID.TID 0000.0001)                    cg2d_init_res =    2.11840167035944E-01
(PID.TID 0000.0001)                       cg2d_iters =    61
(PID.TID 0000.0001)                         cg2d_res =    5.67846583251467E-07
(PID.TID 0000.0001) // =======================================================
(PID.TID 0000.0001) // Begin MONITOR dynamic field statistics
(PID.TID 0000.0001) // =======================================================
(PID.TID 0000.0001) %MON time_tsnumber                =                 72011
(PID.TID 0000.0001) %MON time_secondsf                =   6.2217504000000E+09
(PID.TID 0000.0001) %MON dynstat_eta_max              =   9.0181641786128E-01
(PID.TID 0000.0001) %MON dynstat_eta_min              =  -1.6053423935533E+00
(PID.TID 0000.0001) %MON dynstat_eta_mean             =   5.1453417650177E-13
(PID.TID 0000.0001) %MON dynstat_eta_sd               =   5.9408119950769E-01
(PID.TID 0000.0001) %MON dynstat_eta_del2             =   1.1036324247703E-02
(PID.TID 0000.0001) %MON dynstat_uvel_max             =   1.8650687855087E-01
(PID.TID 0000.0001) %MON dynstat_uvel_min             =  -2.8438077167695E-01
(PID.TID 0000.0001) %MON dynstat_uvel_mean            =  -4.9191224411145E-04
(PID.TID 0000.0001) %MON dynstat_uvel_sd              =   1.2053391789781E-02
(PID.TID 0000.0001) %MON dynstat_uvel_del2            =   1.5702436030893E-03
(PID.TID 0000.0001) %MON dynstat_vvel_max             =   1.7465218330227E-01
(PID.TID 0000.0001) %MON dynstat_vvel_min             =  -2.2432807138851E-01
(PID.TID 0000.0001) %MON dynstat_vvel_mean            =  -4.1346107512330E-04
(PID.TID 0000.0001) %MON dynstat_vvel_sd              =   1.2697128242683E-02
(PID.TID 0000.0001) %MON dynstat_vvel_del2            =   1.5917795894477E-03
(PID.TID 0000.0001) %MON dynstat_wvel_max             =   1.0738625837618E-04
(PID.TID 0000.0001) %MON dynstat_wvel_min             =  -2.0518014104340E-04
(PID.TID 0000.0001) %MON dynstat_wvel_mean            =  -4.3112764224823E-23
(PID.TID 0000.0001) %MON dynstat_wvel_sd              =   3.9055341148417E-06
(PID.TID 0000.0001) %MON dynstat_wvel_del2            =   8.8210234789415E-07
(PID.TID 0000.0001) %MON dynstat_theta_max            =   3.0119889550617E+01
(PID.TID 0000.0001) %MON dynstat_theta_min            =  -2.1919543853868E+00
(PID.TID 0000.0001) %MON dynstat_theta_mean           =   3.9271521228949E+00
(PID.TID 0000.0001) %MON dynstat_theta_sd             =   4.5666780638232E+00
(PID.TID 0000.0001) %MON dynstat_theta_del2           =   8.5765233208438E-02
(PID.TID 0000.0001) %MON dynstat_salt_max             =   4.1464489938547E+01
(PID.TID 0000.0001) %MON dynstat_salt_min             =   1.8401228626312E+01
(PID.TID 0000.0001) %MON dynstat_salt_mean            =   3.4775577741789E+01
(PID.TID 0000.0001) %MON dynstat_salt_sd              =   5.3353627111902E-01
(PID.TID 0000.0001) %MON dynstat_salt_del2            =   1.8803832036816E-02
(PID.TID 0000.0001) %MON advcfl_uvel_max              =   8.0655781177292E-02
(PID.TID 0000.0001) %MON advcfl_vvel_max              =   7.6128426164090E-02
(PID.TID 0000.0001) %MON advcfl_wvel_max              =   6.6896468626981E-02
(PID.TID 0000.0001) %MON advcfl_W_hf_max              =   1.1424324330045E-01
(PID.TID 0000.0001) %MON pe_b_mean                    =   4.7017127272358E-04
(PID.TID 0000.0001) %MON ke_max                       =   3.9426119243660E-02
(PID.TID 0000.0001) %MON ke_mean                      =   1.4172797088959E-04
(PID.TID 0000.0001) %MON ke_vol                       =   1.3398024453628E+18
(PID.TID 0000.0001) %MON vort_r_min                   =  -1.2390477529790E-06
(PID.TID 0000.0001) %MON vort_r_max                   =   1.2389143874863E-06
(PID.TID 0000.0001) %MON vort_a_mean                  =  -2.0491686563816E-05
(PID.TID 0000.0001) %MON vort_a_sd                    =   7.5056306454126E-05
(PID.TID 0000.0001) %MON vort_p_mean                  =  -2.4712552389983E-05
(PID.TID 0000.0001) %MON vort_p_sd                    =   1.2774950648938E-04
(PID.TID 0000.0001) %MON surfExpan_theta_mean         =  -2.5021800460726E-08
(PID.TID 0000.0001) %MON surfExpan_salt_mean          =  -2.0747445016776E-10
(PID.TID 0000.0001) // =======================================================
(PID.TID 0000.0001) // End MONITOR dynamic field statistics
(PID.TID 0000.0001) // =======================================================
(PID.TID 0000.0001) // =======================================================
(PID.TID 0000.0001) // Begin MONITOR Therm.SeaIce statistics
(PID.TID 0000.0001) // =======================================================
(PID.TID 0000.0001) %MON thSI_time_sec                =   6.2217504000000E+09
(PID.TID 0000.0001) %MON thSI_Ice_Area_G              =   9.3732813064116E+12
(PID.TID 0000.0001) %MON thSI_Ice_Area_S              =   2.3829686780027E+10
(PID.TID 0000.0001) %MON thSI_Ice_Area_N              =   9.3494516196316E+12
(PID.TID 0000.0001) %MON thSI_IceH_ave_G              =   8.3607850519640E-01
(PID.TID 0000.0001) %MON thSI_IceH_ave_S              =   1.7225867294288E-01
(PID.TID 0000.0001) %MON thSI_IceH_ave_N              =   8.3777043530359E-01
(PID.TID 0000.0001) %MON thSI_IceH_max_S              =   1.7225867294288E-01
(PID.TID 0000.0001) %MON thSI_IceH_max_N              =   1.3932405165983E+00
(PID.TID 0000.0001) %MON thSI_SnwH_ave_G              =   1.4967619923543E-02
(PID.TID 0000.0001) %MON thSI_SnwH_ave_S              =   5.2702707296642E-02
(PID.TID 0000.0001) %MON thSI_SnwH_ave_N              =   1.4871441521931E-02
(PID.TID 0000.0001) %MON thSI_SnwH_max_S              =   5.2702707296642E-02
(PID.TID 0000.0001) %MON thSI_SnwH_max_N              =   8.7104520940670E-02
(PID.TID 0000.0001) %MON thSI_TotEnerg_G              =  -2.5487245072335E+21
(PID.TID 0000.0001) %MON thSI_Tsrf_ave_G              =  -2.6104592076958E+01
(PID.TID 0000.0001) %MON thSI_Tsrf_ave_S              =  -3.8892346011979E+00
(PID.TID 0000.0001) %MON thSI_Tsrf_ave_N              =  -2.6161214115543E+01
(PID.TID 0000.0001) %MON thSI_Tsrf_min_S              =  -3.8892346011979E+00
(PID.TID 0000.0001) %MON thSI_Tsrf_min_N              =  -3.4592434527635E+01
(PID.TID 0000.0001) %MON thSI_Tsrf_max_S              =  -3.8892346011979E+00
(PID.TID 0000.0001) %MON thSI_Tsrf_max_N              =  -1.5978960187255E+00
(PID.TID 0000.0001) %MON thSI_Tic1_ave_G              =  -1.8521570667806E+01
(PID.TID 0000.0001) %MON thSI_Tic1_ave_S              =  -2.3898314406872E+00
(PID.TID 0000.0001) %MON thSI_Tic1_ave_N              =  -1.8530024808192E+01
(PID.TID 0000.0001) %MON thSI_Tic1_min_S              =  -2.3898314406872E+00
(PID.TID 0000.0001) %MON thSI_Tic1_min_N              =  -2.5079813955420E+01
(PID.TID 0000.0001) %MON thSI_Tic1_max_S              =  -2.3898314406872E+00
(PID.TID 0000.0001) %MON thSI_Tic1_max_N              =  -1.5978960187255E+00
(PID.TID 0000.0001) %MON thSI_Tic2_ave_G              =  -6.9205080396857E+00
(PID.TID 0000.0001) %MON thSI_Tic2_ave_S              =  -2.0101160401176E+00
(PID.TID 0000.0001) %MON thSI_Tic2_ave_N              =  -6.9230814226750E+00
(PID.TID 0000.0001) %MON thSI_Tic2_min_S              =  -2.0101160401176E+00
(PID.TID 0000.0001) %MON thSI_Tic2_min_N              =  -9.4916508990759E+00
(PID.TID 0000.0001) %MON thSI_Tic2_max_S              =  -2.0101160401176E+00
(PID.TID 0000.0001) %MON thSI_Tic2_max_N              =  -1.5978960187255E+00
(PID.TID 0000.0001) // =======================================================
(PID.TID 0000.0001) // End MONITOR Therm.SeaIce statistics
(PID.TID 0000.0001) // =======================================================
 cg2d: Sum(rhs),rhsMax =  -3.46245809801360E-10  4.23111097357218E+00
(PID.TID 0000.0001)                    cg2d_init_res =    2.06334038267824E-01
(PID.TID 0000.0001)                       cg2d_iters =    62
(PID.TID 0000.0001)                         cg2d_res =    5.46168012216385E-07
(PID.TID 0000.0001) // =======================================================
(PID.TID 0000.0001) // Begin MONITOR dynamic field statistics
(PID.TID 0000.0001) // =======================================================
(PID.TID 0000.0001) %MON time_tsnumber                =                 72012
(PID.TID 0000.0001) %MON time_secondsf                =   6.2218368000000E+09
(PID.TID 0000.0001) %MON dynstat_eta_max              =   9.0074874993650E-01
(PID.TID 0000.0001) %MON dynstat_eta_min              =  -1.6052106360190E+00
(PID.TID 0000.0001) %MON dynstat_eta_mean             =   5.1423447043077E-13
(PID.TID 0000.0001) %MON dynstat_eta_sd               =   5.9394989665219E-01
(PID.TID 0000.0001) %MON dynstat_eta_del2             =   1.1023777934383E-02
(PID.TID 0000.0001) %MON dynstat_uvel_max             =   1.8630248484696E-01
(PID.TID 0000.0001) %MON dynstat_uvel_min             =  -2.8391057461718E-01
(PID.TID 0000.0001) %MON dynstat_uvel_mean            =  -4.9144132631899E-04
(PID.TID 0000.0001) %MON dynstat_uvel_sd              =   1.2057894910383E-02
(PID.TID 0000.0001) %MON dynstat_uvel_del2            =   1.5699290996277E-03
(PID.TID 0000.0001) %MON dynstat_vvel_max             =   1.7461063337306E-01
(PID.TID 0000.0001) %MON dynstat_vvel_min             =  -2.2421444432508E-01
(PID.TID 0000.0001) %MON dynstat_vvel_mean            =  -4.1363564781035E-04
(PID.TID 0000.0001) %MON dynstat_vvel_sd              =   1.2701796934801E-02
(PID.TID 0000.0001) %MON dynstat_vvel_del2            =   1.5917170938760E-03
(PID.TID 0000.0001) %MON dynstat_wvel_max             =   1.0791270074683E-04
(PID.TID 0000.0001) %MON dynstat_wvel_min             =  -2.0488178462589E-04
(PID.TID 0000.0001) %MON dynstat_wvel_mean            =   5.1451717634096E-23
(PID.TID 0000.0001) %MON dynstat_wvel_sd              =   3.9025820251022E-06
(PID.TID 0000.0001) %MON dynstat_wvel_del2            =   8.8177827841754E-07
(PID.TID 0000.0001) %MON dynstat_theta_max            =   3.0098144891263E+01
(PID.TID 0000.0001) %MON dynstat_theta_min            =  -2.2203165646031E+00
(PID.TID 0000.0001) %MON dynstat_theta_mean           =   3.9271838430103E+00
(PID.TID 0000.0001) %MON dynstat_theta_sd             =   4.5663526325106E+00
(PID.TID 0000.0001) %MON dynstat_theta_del2           =   8.5764973986999E-02
(PID.TID 0000.0001) %MON dynstat_salt_max             =   4.1464107851352E+01
(PID.TID 0000.0001) %MON dynstat_salt_min             =   1.8402286388942E+01
(PID.TID 0000.0001) %MON dynstat_salt_mean            =   3.4775603177565E+01
(PID.TID 0000.0001) %MON dynstat_salt_sd              =   5.3344696632588E-01
(PID.TID 0000.0001) %MON dynstat_salt_del2            =   1.8799388062974E-02
(PID.TID 0000.0001) %MON advcfl_uvel_max              =   8.0522424372121E-02
(PID.TID 0000.0001) %MON advcfl_vvel_max              =   7.6110315135315E-02
(PID.TID 0000.0001) %MON advcfl_wvel_max              =   6.6799193176139E-02
(PID.TID 0000.0001) %MON advcfl_W_hf_max              =   1.1427548874892E-01
(PID.TID 0000.0001) %MON pe_b_mean                    =   4.6996346271893E-04
(PID.TID 0000.0001) %MON ke_max                       =   3.9288660232062E-02
(PID.TID 0000.0001) %MON ke_mean                      =   1.4183272494794E-04
(PID.TID 0000.0001) %MON ke_vol                       =   1.3398024453628E+18
(PID.TID 0000.0001) %MON vort_r_min                   =  -1.2447654102277E-06
(PID.TID 0000.0001) %MON vort_r_max                   =   1.2421473268706E-06
(PID.TID 0000.0001) %MON vort_a_mean                  =  -2.0491686574162E-05
(PID.TID 0000.0001) %MON vort_a_sd                    =   7.5056306470515E-05
(PID.TID 0000.0001) %MON vort_p_mean                  =  -2.4712552402461E-05
(PID.TID 0000.0001) %MON vort_p_sd                    =   1.2774951202683E-04
(PID.TID 0000.0001) %MON surfExpan_theta_mean         =  -2.5145788034579E-08
(PID.TID 0000.0001) %MON surfExpan_salt_mean          =  -8.5479916976678E-11
(PID.TID 0000.0001) // =======================================================
(PID.TID 0000.0001) // End MONITOR dynamic field statistics
(PID.TID 0000.0001) // =======================================================
(PID.TID 0000.0001) // =======================================================
(PID.TID 0000.0001) // Begin MONITOR Therm.SeaIce statistics
(PID.TID 0000.0001) // =======================================================
(PID.TID 0000.0001) %MON thSI_time_sec                =   6.2218368000000E+09
(PID.TID 0000.0001) %MON thSI_Ice_Area_G              =   9.5362533903993E+12
(PID.TID 0000.0001) %MON thSI_Ice_Area_S              =   2.3153397127655E+10
(PID.TID 0000.0001) %MON thSI_Ice_Area_N              =   9.5130999932717E+12
(PID.TID 0000.0001) %MON thSI_IceH_ave_G              =   8.7503598120493E-01
(PID.TID 0000.0001) %MON thSI_IceH_ave_S              =   1.6443470700978E-01
(PID.TID 0000.0001) %MON thSI_IceH_ave_N              =   8.7676547353787E-01
(PID.TID 0000.0001) %MON thSI_IceH_max_S              =   1.6443470700978E-01
(PID.TID 0000.0001) %MON thSI_IceH_max_N              =   1.4630186466654E+00
(PID.TID 0000.0001) %MON thSI_SnwH_ave_G              =   1.6783916805081E-02
(PID.TID 0000.0001) %MON thSI_SnwH_ave_S              =   5.8276444774780E-02
(PID.TID 0000.0001) %MON thSI_SnwH_ave_N              =   1.6682930483210E-02
(PID.TID 0000.0001) %MON thSI_SnwH_max_S              =   5.8276444774780E-02
(PID.TID 0000.0001) %MON thSI_SnwH_max_N              =   9.9648153602262E-02
(PID.TID 0000.0001) %MON thSI_TotEnerg_G              =  -2.7160355233325E+21
(PID.TID 0000.0001) %MON thSI_Tsrf_ave_G              =  -2.6652427634412E+01
(PID.TID 0000.0001) %MON thSI_Tsrf_ave_S              =  -3.9169938401642E+00
(PID.TID 0000.0001) %MON thSI_Tsrf_ave_N              =  -2.6707762123472E+01
(PID.TID 0000.0001) %MON thSI_Tsrf_min_S              =  -3.9169938401642E+00
(PID.TID 0000.0001) %MON thSI_Tsrf_min_N              =  -3.4801785440899E+01
(PID.TID 0000.0001) %MON thSI_Tsrf_max_S              =  -3.9169938401642E+00
(PID.TID 0000.0001) %MON thSI_Tsrf_max_N              =  -1.7630083542311E+00
(PID.TID 0000.0001) %MON thSI_Tic1_ave_G              =  -1.8592264752744E+01
(PID.TID 0000.0001) %MON thSI_Tic1_ave_S              =  -2.3425606935800E+00
(PID.TID 0000.0001) %MON thSI_Tic1_ave_N              =  -1.8599682092366E+01
(PID.TID 0000.0001) %MON thSI_Tic1_min_S              =  -2.3425606935800E+00
(PID.TID 0000.0001) %MON thSI_Tic1_min_N              =  -2.5183779880095E+01
(PID.TID 0000.0001) %MON thSI_Tic1_max_S              =  -2.3425606935800E+00
(PID.TID 0000.0001) %MON thSI_Tic1_max_N              =  -1.7630083542311E+00
(PID.TID 0000.0001) %MON thSI_Tic2_ave_G              =  -6.9503104158054E+00
(PID.TID 0000.0001) %MON thSI_Tic2_ave_S              =  -1.9936958103618E+00
(PID.TID 0000.0001) %MON thSI_Tic2_ave_N              =  -6.9525729120188E+00
(PID.TID 0000.0001) %MON thSI_Tic2_min_S              =  -1.9936958103618E+00
(PID.TID 0000.0001) %MON thSI_Tic2_min_N              =  -9.5114416710737E+00
(PID.TID 0000.0001) %MON thSI_Tic2_max_S              =  -1.9936958103618E+00
(PID.TID 0000.0001) %MON thSI_Tic2_max_N              =  -1.7630083542311E+00
(PID.TID 0000.0001) // =======================================================
(PID.TID 0000.0001) // End MONITOR Therm.SeaIce statistics
(PID.TID 0000.0001) // =======================================================
 cg2d: Sum(rhs),rhsMax =  -3.45986073124749E-10  4.22871540681556E+00
(PID.TID 0000.0001)                    cg2d_init_res =    2.00418767915095E-01
(PID.TID 0000.0001)                       cg2d_iters =    62
(PID.TID 0000.0001)                         cg2d_res =    5.46413948167136E-07
(PID.TID 0000.0001) // =======================================================
(PID.TID 0000.0001) // Begin MONITOR dynamic field statistics
(PID.TID 0000.0001) // =======================================================
(PID.TID 0000.0001) %MON time_tsnumber                =                 72013
(PID.TID 0000.0001) %MON time_secondsf                =   6.2219232000000E+09
(PID.TID 0000.0001) %MON dynstat_eta_max              =   8.9982370168758E-01
(PID.TID 0000.0001) %MON dynstat_eta_min              =  -1.6050413902475E+00
(PID.TID 0000.0001) %MON dynstat_eta_mean             =   5.1497352445435E-13
(PID.TID 0000.0001) %MON dynstat_eta_sd               =   5.9382399479748E-01
(PID.TID 0000.0001) %MON dynstat_eta_del2             =   1.1016600947702E-02
(PID.TID 0000.0001) %MON dynstat_uvel_max             =   1.8604414385270E-01
(PID.TID 0000.0001) %MON dynstat_uvel_min             =  -2.8342231436618E-01
(PID.TID 0000.0001) %MON dynstat_uvel_mean            =  -4.9078967193818E-04
(PID.TID 0000.0001) %MON dynstat_uvel_sd              =   1.2062535084585E-02
(PID.TID 0000.0001) %MON dynstat_uvel_del2            =   1.5695603384767E-03
(PID.TID 0000.0001) %MON dynstat_vvel_max             =   1.7453814204794E-01
(PID.TID 0000.0001) %MON dynstat_vvel_min             =  -2.2409827480715E-01
(PID.TID 0000.0001) %MON dynstat_vvel_mean            =  -4.1385602474013E-04
(PID.TID 0000.0001) %MON dynstat_vvel_sd              =   1.2706106897327E-02
(PID.TID 0000.0001) %MON dynstat_vvel_del2            =   1.5916875021217E-03
(PID.TID 0000.0001) %MON dynstat_wvel_max             =   1.0842586944722E-04
(PID.TID 0000.0001) %MON dynstat_wvel_min             =  -2.0454236999525E-04
(PID.TID 0000.0001) %MON dynstat_wvel_mean            =   3.3918295967834E-23
(PID.TID 0000.0001) %MON dynstat_wvel_sd              =   3.8995135940282E-06
(PID.TID 0000.0001) %MON dynstat_wvel_del2            =   8.8147592530078E-07
(PID.TID 0000.0001) %MON dynstat_theta_max            =   3.0076364551764E+01
(PID.TID 0000.0001) %MON dynstat_theta_min            =  -2.2486772013306E+00
(PID.TID 0000.0001) %MON dynstat_theta_mean           =   3.9272184580847E+00
(PID.TID 0000.0001) %MON dynstat_theta_sd             =   4.5660676653771E+00
(PID.TID 0000.0001) %MON dynstat_theta_del2           =   8.5745169683368E-02
(PID.TID 0000.0001) %MON dynstat_salt_max             =   4.1463418756226E+01
(PID.TID 0000.0001) %MON dynstat_salt_min             =   1.8403358440290E+01
(PID.TID 0000.0001) %MON dynstat_salt_mean            =   3.4775627157074E+01
(PID.TID 0000.0001) %MON dynstat_salt_sd              =   5.3336729542226E-01
(PID.TID 0000.0001) %MON dynstat_salt_del2            =   1.8786282718149E-02
(PID.TID 0000.0001) %MON advcfl_uvel_max              =   8.0383944503281E-02
(PID.TID 0000.0001) %MON advcfl_vvel_max              =   7.6078717187967E-02
(PID.TID 0000.0001) %MON advcfl_wvel_max              =   6.6688531198452E-02
(PID.TID 0000.0001) %MON advcfl_W_hf_max              =   1.1423095033742E-01
(PID.TID 0000.0001) %MON pe_b_mean                    =   4.6976424389335E-04
(PID.TID 0000.0001) %MON ke_max                       =   3.9147964805392E-02
(PID.TID 0000.0001) %MON ke_mean                      =   1.4193474487151E-04
(PID.TID 0000.0001) %MON ke_vol                       =   1.3398024453628E+18
(PID.TID 0000.0001) %MON vort_r_min                   =  -1.2504830835332E-06
(PID.TID 0000.0001) %MON vort_r_max                   =   1.2453740869824E-06
(PID.TID 0000.0001) %MON vort_a_mean                  =  -2.0491686584338E-05
(PID.TID 0000.0001) %MON vort_a_sd                    =   7.5056306474704E-05
(PID.TID 0000.0001) %MON vort_p_mean                  =  -2.4712552414733E-05
(PID.TID 0000.0001) %MON vort_p_sd                    =   1.2774951750041E-04
(PID.TID 0000.0001) %MON surfExpan_theta_mean         =  -2.5127340478281E-08
(PID.TID 0000.0001) %MON surfExpan_salt_mean          =   5.5043243669870E-11
(PID.TID 0000.0001) // =======================================================
(PID.TID 0000.0001) // End MONITOR dynamic field statistics
(PID.TID 0000.0001) // =======================================================
(PID.TID 0000.0001) // =======================================================
(PID.TID 0000.0001) // Begin MONITOR Therm.SeaIce statistics
(PID.TID 0000.0001) // =======================================================
(PID.TID 0000.0001) %MON thSI_time_sec                =   6.2219232000000E+09
(PID.TID 0000.0001) %MON thSI_Ice_Area_G              =   9.7187669575309E+12
(PID.TID 0000.0001) %MON thSI_Ice_Area_S              =   2.2375843836112E+10
(PID.TID 0000.0001) %MON thSI_Ice_Area_N              =   9.6963911136948E+12
(PID.TID 0000.0001) %MON thSI_IceH_ave_G              =   9.0454088115748E-01
(PID.TID 0000.0001) %MON thSI_IceH_ave_S              =   1.5559087401030E-01
(PID.TID 0000.0001) %MON thSI_IceH_ave_N              =   9.0626919308348E-01
(PID.TID 0000.0001) %MON thSI_IceH_max_S              =   1.5559087401030E-01
(PID.TID 0000.0001) %MON thSI_IceH_max_N              =   1.5299724902326E+00
(PID.TID 0000.0001) %MON thSI_SnwH_ave_G              =   1.8565332684866E-02
(PID.TID 0000.0001) %MON thSI_SnwH_ave_S              =   6.3650812095122E-02
(PID.TID 0000.0001) %MON thSI_SnwH_ave_N              =   1.8461291332292E-02
(PID.TID 0000.0001) %MON thSI_SnwH_max_S              =   6.3650812095122E-02
(PID.TID 0000.0001) %MON thSI_SnwH_max_N              =   1.1226354949757E-01
(PID.TID 0000.0001) %MON thSI_TotEnerg_G              =  -2.8641883401001E+21
(PID.TID 0000.0001) %MON thSI_Tsrf_ave_G              =  -2.6827142036206E+01
(PID.TID 0000.0001) %MON thSI_Tsrf_ave_S              =  -3.9423353832714E+00
(PID.TID 0000.0001) %MON thSI_Tsrf_ave_N              =  -2.6879952082117E+01
(PID.TID 0000.0001) %MON thSI_Tsrf_min_S              =  -3.9423353832714E+00
(PID.TID 0000.0001) %MON thSI_Tsrf_min_N              =  -3.4999361684956E+01
(PID.TID 0000.0001) %MON thSI_Tsrf_max_S              =  -3.9423353832714E+00
(PID.TID 0000.0001) %MON thSI_Tsrf_max_N              =  -1.7572430003042E+00
(PID.TID 0000.0001) %MON thSI_Tic1_ave_G              =  -1.8609855668440E+01
(PID.TID 0000.0001) %MON thSI_Tic1_ave_S              =  -2.2971663299847E+00
(PID.TID 0000.0001) %MON thSI_Tic1_ave_N              =  -1.8616318484063E+01
(PID.TID 0000.0001) %MON thSI_Tic1_min_S              =  -2.2971663299847E+00
(PID.TID 0000.0001) %MON thSI_Tic1_min_N              =  -2.5277548239504E+01
(PID.TID 0000.0001) %MON thSI_Tic1_max_S              =  -2.2971663299847E+00
(PID.TID 0000.0001) %MON thSI_Tic1_max_N              =  -1.7572430003042E+00
(PID.TID 0000.0001) %MON thSI_Tic2_ave_G              =  -6.9537113742030E+00
(PID.TID 0000.0001) %MON thSI_Tic2_ave_S              =  -1.9779455022698E+00
(PID.TID 0000.0001) %MON thSI_Tic2_ave_N              =  -6.9556826897076E+00
(PID.TID 0000.0001) %MON thSI_Tic2_min_S              =  -1.9779455022698E+00
(PID.TID 0000.0001) %MON thSI_Tic2_min_N              =  -9.5171314582437E+00
(PID.TID 0000.0001) %MON thSI_Tic2_max_S              =  -1.9779455022698E+00
(PID.TID 0000.0001) %MON thSI_Tic2_max_N              =  -1.7572430003042E+00
(PID.TID 0000.0001) // =======================================================
(PID.TID 0000.0001) // End MONITOR Therm.SeaIce statistics
(PID.TID 0000.0001) // =======================================================
 cg2d: Sum(rhs),rhsMax =  -3.45979522808904E-10  4.22658773380010E+00
(PID.TID 0000.0001)                    cg2d_init_res =    1.96465710994909E-01
(PID.TID 0000.0001)                       cg2d_iters =    62
(PID.TID 0000.0001)                         cg2d_res =    5.53265956678168E-07
(PID.TID 0000.0001) // =======================================================
(PID.TID 0000.0001) // Begin MONITOR dynamic field statistics
(PID.TID 0000.0001) // =======================================================
(PID.TID 0000.0001) %MON time_tsnumber                =                 72014
(PID.TID 0000.0001) %MON time_secondsf                =   6.2220096000000E+09
(PID.TID 0000.0001) %MON dynstat_eta_max              =   8.9887526741111E-01
(PID.TID 0000.0001) %MON dynstat_eta_min              =  -1.6048103372415E+00
(PID.TID 0000.0001) %MON dynstat_eta_mean             =   5.1460775278507E-13
(PID.TID 0000.0001) %MON dynstat_eta_sd               =   5.9370463648307E-01
(PID.TID 0000.0001) %MON dynstat_eta_del2             =   1.1011221131584E-02
(PID.TID 0000.0001) %MON dynstat_uvel_max             =   1.8573487946091E-01
(PID.TID 0000.0001) %MON dynstat_uvel_min             =  -2.8291612613876E-01
(PID.TID 0000.0001) %MON dynstat_uvel_mean            =  -4.9003873340660E-04
(PID.TID 0000.0001) %MON dynstat_uvel_sd              =   1.2067260371579E-02
(PID.TID 0000.0001) %MON dynstat_uvel_del2            =   1.5693228650180E-03
(PID.TID 0000.0001) %MON dynstat_vvel_max             =   1.7443505480346E-01
(PID.TID 0000.0001) %MON dynstat_vvel_min             =  -2.2397987409235E-01
(PID.TID 0000.0001) %MON dynstat_vvel_mean            =  -4.1403893985738E-04
(PID.TID 0000.0001) %MON dynstat_vvel_sd              =   1.2710024147215E-02
(PID.TID 0000.0001) %MON dynstat_vvel_del2            =   1.5918070366254E-03
(PID.TID 0000.0001) %MON dynstat_wvel_max             =   1.0892586117566E-04
(PID.TID 0000.0001) %MON dynstat_wvel_min             =  -2.0417045585707E-04
(PID.TID 0000.0001) %MON dynstat_wvel_mean            =   2.5463571792878E-22
(PID.TID 0000.0001) %MON dynstat_wvel_sd              =   3.8964172082179E-06
(PID.TID 0000.0001) %MON dynstat_wvel_del2            =   8.8112124105670E-07
(PID.TID 0000.0001) %MON dynstat_theta_max            =   3.0054613632475E+01
(PID.TID 0000.0001) %MON dynstat_theta_min            =  -2.2770119359199E+00
(PID.TID 0000.0001) %MON dynstat_theta_mean           =   3.9272584135572E+00
(PID.TID 0000.0001) %MON dynstat_theta_sd             =   4.5658177809041E+00
(PID.TID 0000.0001) %MON dynstat_theta_del2           =   8.5727866128683E-02
(PID.TID 0000.0001) %MON dynstat_salt_max             =   4.1462446972286E+01
(PID.TID 0000.0001) %MON dynstat_salt_min             =   1.8404478484390E+01
(PID.TID 0000.0001) %MON dynstat_salt_mean            =   3.4775650689432E+01
(PID.TID 0000.0001) %MON dynstat_salt_sd              =   5.3329142517131E-01
(PID.TID 0000.0001) %MON dynstat_salt_del2            =   1.8782461788816E-02
(PID.TID 0000.0001) %MON advcfl_uvel_max              =   8.0240379920260E-02
(PID.TID 0000.0001) %MON advcfl_vvel_max              =   7.6033782910414E-02
(PID.TID 0000.0001) %MON advcfl_wvel_max              =   6.6567273154908E-02
(PID.TID 0000.0001) %MON advcfl_W_hf_max              =   1.1411089654336E-01
(PID.TID 0000.0001) %MON pe_b_mean                    =   4.6957541813432E-04
(PID.TID 0000.0001) %MON ke_max                       =   3.9004012469699E-02
(PID.TID 0000.0001) %MON ke_mean                      =   1.4203305637474E-04
(PID.TID 0000.0001) %MON ke_vol                       =   1.3398024453628E+18
(PID.TID 0000.0001) %MON vort_r_min                   =  -1.2561744385295E-06
(PID.TID 0000.0001) %MON vort_r_max                   =   1.2485654932022E-06
(PID.TID 0000.0001) %MON vort_a_mean                  =  -2.0491686594432E-05
(PID.TID 0000.0001) %MON vort_a_sd                    =   7.5056306475035E-05
(PID.TID 0000.0001) %MON vort_p_mean                  =  -2.4712552426906E-05
(PID.TID 0000.0001) %MON vort_p_sd                    =   1.2774952267430E-04
(PID.TID 0000.0001) %MON surfExpan_theta_mean         =  -2.3906340062850E-08
(PID.TID 0000.0001) %MON surfExpan_salt_mean          =   1.6322859179374E-10
(PID.TID 0000.0001) // =======================================================
(PID.TID 0000.0001) // End MONITOR dynamic field statistics
(PID.TID 0000.0001) // =======================================================
(PID.TID 0000.0001) // =======================================================
(PID.TID 0000.0001) // Begin MONITOR Therm.SeaIce statistics
(PID.TID 0000.0001) // =======================================================
(PID.TID 0000.0001) %MON thSI_time_sec                =   6.2220096000000E+09
(PID.TID 0000.0001) %MON thSI_Ice_Area_G              =   9.8954371915096E+12
(PID.TID 0000.0001) %MON thSI_Ice_Area_S              =   2.1493582627296E+10
(PID.TID 0000.0001) %MON thSI_Ice_Area_N              =   9.8739436088823E+12
(PID.TID 0000.0001) %MON thSI_IceH_ave_G              =   9.3231317776548E-01
(PID.TID 0000.0001) %MON thSI_IceH_ave_S              =   1.4866876919495E-01
(PID.TID 0000.0001) %MON thSI_IceH_ave_N              =   9.3401901349973E-01
(PID.TID 0000.0001) %MON thSI_IceH_max_S              =   1.4866876919495E-01
(PID.TID 0000.0001) %MON thSI_IceH_max_N              =   1.5944625190843E+00
(PID.TID 0000.0001) %MON thSI_SnwH_ave_G              =   2.0353616934767E-02
(PID.TID 0000.0001) %MON thSI_SnwH_ave_S              =   6.0819041943387E-02
(PID.TID 0000.0001) %MON thSI_SnwH_ave_N              =   2.0265531870640E-02
(PID.TID 0000.0001) %MON thSI_SnwH_max_S              =   6.0819041943387E-02
(PID.TID 0000.0001) %MON thSI_SnwH_max_N              =   1.2496620414347E-01
(PID.TID 0000.0001) %MON thSI_TotEnerg_G              =  -3.0077321485677E+21
(PID.TID 0000.0001) %MON thSI_Tsrf_ave_G              =  -2.6885275521118E+01
(PID.TID 0000.0001) %MON thSI_Tsrf_ave_S              =  -3.9649621847403E+00
(PID.TID 0000.0001) %MON thSI_Tsrf_ave_N              =  -2.6935168417822E+01
(PID.TID 0000.0001) %MON thSI_Tsrf_min_S              =  -3.9649621847403E+00
(PID.TID 0000.0001) %MON thSI_Tsrf_min_N              =  -3.5186840743380E+01
(PID.TID 0000.0001) %MON thSI_Tsrf_max_S              =  -3.9649621847403E+00
(PID.TID 0000.0001) %MON thSI_Tsrf_max_N              =  -1.7365541205233E+00
(PID.TID 0000.0001) %MON thSI_Tic1_ave_G              =  -1.8609762364320E+01
(PID.TID 0000.0001) %MON thSI_Tic1_ave_S              =  -2.2539718436100E+00
(PID.TID 0000.0001) %MON thSI_Tic1_ave_N              =  -1.8615429371165E+01
(PID.TID 0000.0001) %MON thSI_Tic1_min_S              =  -2.2539718436100E+00
(PID.TID 0000.0001) %MON thSI_Tic1_min_N              =  -2.5363009870822E+01
(PID.TID 0000.0001) %MON thSI_Tic1_max_S              =  -2.2539718436100E+00
(PID.TID 0000.0001) %MON thSI_Tic1_max_N              =  -1.7365541205233E+00
(PID.TID 0000.0001) %MON thSI_Tic2_ave_G              =  -6.9575201867404E+00
(PID.TID 0000.0001) %MON thSI_Tic2_ave_S              =  -1.9629517541444E+00
(PID.TID 0000.0001) %MON thSI_Tic2_ave_N              =  -6.9592507208567E+00
(PID.TID 0000.0001) %MON thSI_Tic2_min_S              =  -1.9629517541444E+00
(PID.TID 0000.0001) %MON thSI_Tic2_min_N              =  -9.5166177048953E+00
(PID.TID 0000.0001) %MON thSI_Tic2_max_S              =  -1.9629517541444E+00
(PID.TID 0000.0001) %MON thSI_Tic2_max_N              =  -1.7365541205233E+00
(PID.TID 0000.0001) // =======================================================
(PID.TID 0000.0001) // End MONITOR Therm.SeaIce statistics
(PID.TID 0000.0001) // =======================================================
 cg2d: Sum(rhs),rhsMax =  -3.46350614854884E-10  4.22474012690329E+00
(PID.TID 0000.0001)                    cg2d_init_res =    1.92761026944465E-01
(PID.TID 0000.0001)                       cg2d_iters =    62
(PID.TID 0000.0001)                         cg2d_res =    5.73686900943812E-07
(PID.TID 0000.0001) // =======================================================
(PID.TID 0000.0001) // Begin MONITOR dynamic field statistics
(PID.TID 0000.0001) // =======================================================
(PID.TID 0000.0001) %MON time_tsnumber                =                 72015
(PID.TID 0000.0001) %MON time_secondsf                =   6.2220960000000E+09
(PID.TID 0000.0001) %MON dynstat_eta_max              =   8.9791859136629E-01
(PID.TID 0000.0001) %MON dynstat_eta_min              =  -1.6045074799350E+00
(PID.TID 0000.0001) %MON dynstat_eta_mean             =   5.1434358819854E-13
(PID.TID 0000.0001) %MON dynstat_eta_sd               =   5.9359356804518E-01
(PID.TID 0000.0001) %MON dynstat_eta_del2             =   1.1003563009183E-02
(PID.TID 0000.0001) %MON dynstat_uvel_max             =   1.8537841556857E-01
(PID.TID 0000.0001) %MON dynstat_uvel_min             =  -2.8239230648591E-01
(PID.TID 0000.0001) %MON dynstat_uvel_mean            =  -4.8923500630485E-04
(PID.TID 0000.0001) %MON dynstat_uvel_sd              =   1.2071959501529E-02
(PID.TID 0000.0001) %MON dynstat_uvel_del2            =   1.5692928595403E-03
(PID.TID 0000.0001) %MON dynstat_vvel_max             =   1.7430212144397E-01
(PID.TID 0000.0001) %MON dynstat_vvel_min             =  -2.2385950447424E-01
(PID.TID 0000.0001) %MON dynstat_vvel_mean            =  -4.1414006930976E-04
(PID.TID 0000.0001) %MON dynstat_vvel_sd              =   1.2713506947840E-02
(PID.TID 0000.0001) %MON dynstat_vvel_del2            =   1.5919401661954E-03
(PID.TID 0000.0001) %MON dynstat_wvel_max             =   1.0939837648594E-04
(PID.TID 0000.0001) %MON dynstat_wvel_min             =  -2.0377133179924E-04
(PID.TID 0000.0001) %MON dynstat_wvel_mean            =   6.1457429221136E-23
(PID.TID 0000.0001) %MON dynstat_wvel_sd              =   3.8933150185313E-06
(PID.TID 0000.0001) %MON dynstat_wvel_del2            =   8.8092703101286E-07
(PID.TID 0000.0001) %MON dynstat_theta_max            =   3.0032954242183E+01
(PID.TID 0000.0001) %MON dynstat_theta_min            =  -2.3053265651731E+00
(PID.TID 0000.0001) %MON dynstat_theta_mean           =   3.9273031900460E+00
(PID.TID 0000.0001) %MON dynstat_theta_sd             =   4.5655942422610E+00
(PID.TID 0000.0001) %MON dynstat_theta_del2           =   8.5781583020453E-02
(PID.TID 0000.0001) %MON dynstat_salt_max             =   4.1461218746961E+01
(PID.TID 0000.0001) %MON dynstat_salt_min             =   1.8405735776591E+01
(PID.TID 0000.0001) %MON dynstat_salt_mean            =   3.4775673945445E+01
(PID.TID 0000.0001) %MON dynstat_salt_sd              =   5.3321455582186E-01
(PID.TID 0000.0001) %MON dynstat_salt_del2            =   1.8773087659255E-02
(PID.TID 0000.0001) %MON advcfl_uvel_max              =   8.0091814730540E-02
(PID.TID 0000.0001) %MON advcfl_vvel_max              =   7.5975839131805E-02
(PID.TID 0000.0001) %MON advcfl_wvel_max              =   6.6437143650772E-02
(PID.TID 0000.0001) %MON advcfl_W_hf_max              =   1.1391716254510E-01
(PID.TID 0000.0001) %MON pe_b_mean                    =   4.6939974111763E-04
(PID.TID 0000.0001) %MON ke_max                       =   3.8856835893393E-02
(PID.TID 0000.0001) %MON ke_mean                      =   1.4212593362939E-04
(PID.TID 0000.0001) %MON ke_vol                       =   1.3398024453628E+18
(PID.TID 0000.0001) %MON vort_r_min                   =  -1.2618141397456E-06
(PID.TID 0000.0001) %MON vort_r_max                   =   1.2516941582154E-06
(PID.TID 0000.0001) %MON vort_a_mean                  =  -2.0491686604482E-05
(PID.TID 0000.0001) %MON vort_a_sd                    =   7.5056306471431E-05
(PID.TID 0000.0001) %MON vort_p_mean                  =  -2.4712552439025E-05
(PID.TID 0000.0001) %MON vort_p_sd                    =   1.2774952751919E-04
(PID.TID 0000.0001) %MON surfExpan_theta_mean         =  -2.1381630769840E-08
(PID.TID 0000.0001) %MON surfExpan_salt_mean          =   5.2993434253944E-10
(PID.TID 0000.0001) // =======================================================
(PID.TID 0000.0001) // End MONITOR dynamic field statistics
(PID.TID 0000.0001) // =======================================================
(PID.TID 0000.0001) // =======================================================
(PID.TID 0000.0001) // Begin MONITOR Therm.SeaIce statistics
(PID.TID 0000.0001) // =======================================================
(PID.TID 0000.0001) %MON thSI_time_sec                =   6.2220960000000E+09
(PID.TID 0000.0001) %MON thSI_Ice_Area_G              =   1.0079777365934E+13
(PID.TID 0000.0001) %MON thSI_Ice_Area_S              =   2.0508785731589E+10
(PID.TID 0000.0001) %MON thSI_Ice_Area_N              =   1.0059268580202E+13
(PID.TID 0000.0001) %MON thSI_IceH_ave_G              =   9.5801869630097E-01
(PID.TID 0000.0001) %MON thSI_IceH_ave_S              =   1.4086512812665E-01
(PID.TID 0000.0001) %MON thSI_IceH_ave_N              =   9.5968470484879E-01
(PID.TID 0000.0001) %MON thSI_IceH_max_S              =   1.4086512812665E-01
(PID.TID 0000.0001) %MON thSI_IceH_max_N              =   1.6567772625045E+00
(PID.TID 0000.0001) %MON thSI_SnwH_ave_G              =   2.2111440988923E-02
(PID.TID 0000.0001) %MON thSI_SnwH_ave_S              =   5.7626643324539E-02
(PID.TID 0000.0001) %MON thSI_SnwH_ave_N              =   2.2039032774637E-02
(PID.TID 0000.0001) %MON thSI_SnwH_max_S              =   5.7626643324539E-02
(PID.TID 0000.0001) %MON thSI_SnwH_max_N              =   1.3782210659543E-01
(PID.TID 0000.0001) %MON thSI_TotEnerg_G              =  -3.1498809076866E+21
(PID.TID 0000.0001) %MON thSI_Tsrf_ave_G              =  -2.7002934765359E+01
(PID.TID 0000.0001) %MON thSI_Tsrf_ave_S              =  -3.9565841454720E+00
(PID.TID 0000.0001) %MON thSI_Tsrf_ave_N              =  -2.7049921548045E+01
(PID.TID 0000.0001) %MON thSI_Tsrf_min_S              =  -3.9565841454720E+00
(PID.TID 0000.0001) %MON thSI_Tsrf_min_N              =  -3.5365538479332E+01
(PID.TID 0000.0001) %MON thSI_Tsrf_max_S              =  -3.9565841454720E+00
(PID.TID 0000.0001) %MON thSI_Tsrf_max_N              =  -1.4760742701555E+00
(PID.TID 0000.0001) %MON thSI_Tic1_ave_G              =  -1.8603935118660E+01
(PID.TID 0000.0001) %MON thSI_Tic1_ave_S              =  -2.2463002722087E+00
(PID.TID 0000.0001) %MON thSI_Tic1_ave_N              =  -1.8608830302138E+01
(PID.TID 0000.0001) %MON thSI_Tic1_min_S              =  -2.2463002722087E+00
(PID.TID 0000.0001) %MON thSI_Tic1_min_N              =  -2.5441577227657E+01
(PID.TID 0000.0001) %MON thSI_Tic1_max_S              =  -2.2463002722087E+00
(PID.TID 0000.0001) %MON thSI_Tic1_max_N              =  -1.4760742701555E+00
(PID.TID 0000.0001) %MON thSI_Tic2_ave_G              =  -6.9573701529729E+00
(PID.TID 0000.0001) %MON thSI_Tic2_ave_S              =  -1.9583408177941E+00
(PID.TID 0000.0001) %MON thSI_Tic2_ave_N              =  -6.9588661617812E+00
(PID.TID 0000.0001) %MON thSI_Tic2_min_S              =  -1.9583408177941E+00
(PID.TID 0000.0001) %MON thSI_Tic2_min_N              =  -9.5129578892842E+00
(PID.TID 0000.0001) %MON thSI_Tic2_max_S              =  -1.9583408177941E+00
(PID.TID 0000.0001) %MON thSI_Tic2_max_N              =  -1.4760742701555E+00
(PID.TID 0000.0001) // =======================================================
(PID.TID 0000.0001) // End MONITOR Therm.SeaIce statistics
(PID.TID 0000.0001) // =======================================================
 S/R BULKF_FIELDS_LOAD
(PID.TID 0000.0001)  MDSREADFIELD: opening global file: ncep_tair_cs.bin
(PID.TID 0000.0001)  MDSREADFIELD: opening global file: ncep_tair_cs.bin
(PID.TID 0000.0001)  MDSREADFIELD: opening global file: ncep_qair_cs.bin
(PID.TID 0000.0001)  MDSREADFIELD: opening global file: ncep_qair_cs.bin
(PID.TID 0000.0001)  MDSREADFIELD: opening global file: ncep_precip_cs.bin
(PID.TID 0000.0001)  MDSREADFIELD: opening global file: ncep_precip_cs.bin
(PID.TID 0000.0001)  MDSREADFIELD: opening global file: ncep_downsolar_cs.bin
(PID.TID 0000.0001)  MDSREADFIELD: opening global file: ncep_downsolar_cs.bin
(PID.TID 0000.0001)  MDSREADFIELD: opening global file: ncep_downlw_cs.bin
(PID.TID 0000.0001)  MDSREADFIELD: opening global file: ncep_downlw_cs.bin
(PID.TID 0000.0001)  MDSREADFIELD: opening global file: ncep_windspeed_cs.bin
(PID.TID 0000.0001)  MDSREADFIELD: opening global file: ncep_windspeed_cs.bin
(PID.TID 0000.0001)  MDSREADFIELD: opening global file: trenberth_taux.bin
(PID.TID 0000.0001)  MDSREADFIELD: opening global file: trenberth_taux.bin
(PID.TID 0000.0001)  MDSREADFIELD: opening global file: trenberth_tauy.bin
(PID.TID 0000.0001)  MDSREADFIELD: opening global file: trenberth_tauy.bin
(PID.TID 0000.0001)  MDSREADFIELD: opening global file: lev_surfT_cs_12m.bin
(PID.TID 0000.0001)  MDSREADFIELD: opening global file: lev_surfT_cs_12m.bin
(PID.TID 0000.0001)  MDSREADFIELD: opening global file: lev_surfS_cs_12m.bin
(PID.TID 0000.0001)  MDSREADFIELD: opening global file: lev_surfS_cs_12m.bin
 cg2d: Sum(rhs),rhsMax =  -3.45923623079614E-10  4.22317273852977E+00
(PID.TID 0000.0001)                    cg2d_init_res =    1.89429636813092E-01
(PID.TID 0000.0001)                       cg2d_iters =    63
(PID.TID 0000.0001)                         cg2d_res =    5.17939867050032E-07
(PID.TID 0000.0001) // =======================================================
(PID.TID 0000.0001) // Begin MONITOR dynamic field statistics
(PID.TID 0000.0001) // =======================================================
(PID.TID 0000.0001) %MON time_tsnumber                =                 72016
(PID.TID 0000.0001) %MON time_secondsf                =   6.2221824000000E+09
(PID.TID 0000.0001) %MON dynstat_eta_max              =   8.9696560365136E-01
(PID.TID 0000.0001) %MON dynstat_eta_min              =  -1.6041332607753E+00
(PID.TID 0000.0001) %MON dynstat_eta_mean             =   5.1411187898015E-13
(PID.TID 0000.0001) %MON dynstat_eta_sd               =   5.9349379115658E-01
(PID.TID 0000.0001) %MON dynstat_eta_del2             =   1.0996981192243E-02
(PID.TID 0000.0001) %MON dynstat_uvel_max             =   1.8514199717281E-01
(PID.TID 0000.0001) %MON dynstat_uvel_min             =  -2.8185128003485E-01
(PID.TID 0000.0001) %MON dynstat_uvel_mean            =  -4.8841377713337E-04
(PID.TID 0000.0001) %MON dynstat_uvel_sd              =   1.2076530418755E-02
(PID.TID 0000.0001) %MON dynstat_uvel_del2            =   1.5693342413923E-03
(PID.TID 0000.0001) %MON dynstat_vvel_max             =   1.7414080123252E-01
(PID.TID 0000.0001) %MON dynstat_vvel_min             =  -2.2373740232138E-01
(PID.TID 0000.0001) %MON dynstat_vvel_mean            =  -4.1413000280626E-04
(PID.TID 0000.0001) %MON dynstat_vvel_sd              =   1.2716507120773E-02
(PID.TID 0000.0001) %MON dynstat_vvel_del2            =   1.5919893824299E-03
(PID.TID 0000.0001) %MON dynstat_wvel_max             =   1.0983666489139E-04
(PID.TID 0000.0001) %MON dynstat_wvel_min             =  -2.0335375809683E-04
(PID.TID 0000.0001) %MON dynstat_wvel_mean            =   8.2270910533501E-23
(PID.TID 0000.0001) %MON dynstat_wvel_sd              =   3.8902493466246E-06
(PID.TID 0000.0001) %MON dynstat_wvel_del2            =   8.8090868186308E-07
(PID.TID 0000.0001) %MON dynstat_theta_max            =   3.0011444626203E+01
(PID.TID 0000.0001) %MON dynstat_theta_min            =  -2.3336127842665E+00
(PID.TID 0000.0001) %MON dynstat_theta_mean           =   3.9273518039512E+00
(PID.TID 0000.0001) %MON dynstat_theta_sd             =   4.5654050280409E+00
(PID.TID 0000.0001) %MON dynstat_theta_del2           =   8.5802723839208E-02
(PID.TID 0000.0001) %MON dynstat_salt_max             =   4.1459759090169E+01
(PID.TID 0000.0001) %MON dynstat_salt_min             =   1.8407503373173E+01
(PID.TID 0000.0001) %MON dynstat_salt_mean            =   3.4775696588330E+01
(PID.TID 0000.0001) %MON dynstat_salt_sd              =   5.3313867683680E-01
(PID.TID 0000.0001) %MON dynstat_salt_del2            =   1.8760387059360E-02
(PID.TID 0000.0001) %MON advcfl_uvel_max              =   7.9938369366457E-02
(PID.TID 0000.0001) %MON advcfl_vvel_max              =   7.5905521924346E-02
(PID.TID 0000.0001) %MON advcfl_wvel_max              =   6.6300998866287E-02
(PID.TID 0000.0001) %MON advcfl_W_hf_max              =   1.1365209922662E-01
(PID.TID 0000.0001) %MON pe_b_mean                    =   4.6924195197725E-04
(PID.TID 0000.0001) %MON ke_max                       =   3.8706509767137E-02
(PID.TID 0000.0001) %MON ke_mean                      =   1.4221167560474E-04
(PID.TID 0000.0001) %MON ke_vol                       =   1.3398024453628E+18
(PID.TID 0000.0001) %MON vort_r_min                   =  -1.2673782188029E-06
(PID.TID 0000.0001) %MON vort_r_max                   =   1.2547368931565E-06
(PID.TID 0000.0001) %MON vort_a_mean                  =  -2.0491686614457E-05
(PID.TID 0000.0001) %MON vort_a_sd                    =   7.5056306464676E-05
(PID.TID 0000.0001) %MON vort_p_mean                  =  -2.4712552451056E-05
(PID.TID 0000.0001) %MON vort_p_sd                    =   1.2774953198499E-04
(PID.TID 0000.0001) %MON surfExpan_theta_mean         =  -1.8022701815806E-08
(PID.TID 0000.0001) %MON surfExpan_salt_mean          =   8.7232855515826E-10
(PID.TID 0000.0001) // =======================================================
(PID.TID 0000.0001) // End MONITOR dynamic field statistics
(PID.TID 0000.0001) // =======================================================
(PID.TID 0000.0001) // =======================================================
(PID.TID 0000.0001) // Begin MONITOR Therm.SeaIce statistics
(PID.TID 0000.0001) // =======================================================
(PID.TID 0000.0001) %MON thSI_time_sec                =   6.2221824000000E+09
(PID.TID 0000.0001) %MON thSI_Ice_Area_G              =   1.0204279544921E+13
(PID.TID 0000.0001) %MON thSI_Ice_Area_S              =   1.9419171106206E+10
(PID.TID 0000.0001) %MON thSI_Ice_Area_N              =   1.0184860373815E+13
(PID.TID 0000.0001) %MON thSI_IceH_ave_G              =   9.8655976768342E-01
(PID.TID 0000.0001) %MON thSI_IceH_ave_S              =   1.3220936129412E-01
(PID.TID 0000.0001) %MON thSI_IceH_ave_N              =   9.8818873225607E-01
(PID.TID 0000.0001) %MON thSI_IceH_max_S              =   1.3220936129412E-01
(PID.TID 0000.0001) %MON thSI_IceH_max_N              =   1.7171525311938E+00
(PID.TID 0000.0001) %MON thSI_SnwH_ave_G              =   2.3989784780904E-02
(PID.TID 0000.0001) %MON thSI_SnwH_ave_S              =   5.4085647802141E-02
(PID.TID 0000.0001) %MON thSI_SnwH_ave_N              =   2.3932401891778E-02
(PID.TID 0000.0001) %MON thSI_SnwH_max_S              =   5.4085647802141E-02
(PID.TID 0000.0001) %MON thSI_SnwH_max_N              =   1.5087007192324E-01
(PID.TID 0000.0001) %MON thSI_TotEnerg_G              =  -3.2856351745382E+21
(PID.TID 0000.0001) %MON thSI_Tsrf_ave_G              =  -2.7216520748016E+01
(PID.TID 0000.0001) %MON thSI_Tsrf_ave_S              =  -3.9450326278404E+00
(PID.TID 0000.0001) %MON thSI_Tsrf_ave_N              =  -2.7260891803987E+01
(PID.TID 0000.0001) %MON thSI_Tsrf_min_S              =  -3.9450326278404E+00
(PID.TID 0000.0001) %MON thSI_Tsrf_min_N              =  -3.5536528406293E+01
(PID.TID 0000.0001) %MON thSI_Tsrf_max_S              =  -3.9450326278404E+00
(PID.TID 0000.0001) %MON thSI_Tsrf_max_N              =  -1.5791327713037E+00
(PID.TID 0000.0001) %MON thSI_Tic1_ave_G              =  -1.8610738159263E+01
(PID.TID 0000.0001) %MON thSI_Tic1_ave_S              =  -2.2426771031549E+00
(PID.TID 0000.0001) %MON thSI_Tic1_ave_N              =  -1.8614913531073E+01
(PID.TID 0000.0001) %MON thSI_Tic1_min_S              =  -2.2426771031549E+00
(PID.TID 0000.0001) %MON thSI_Tic1_min_N              =  -2.5514305064075E+01
(PID.TID 0000.0001) %MON thSI_Tic1_max_S              =  -2.2426771031549E+00
(PID.TID 0000.0001) %MON thSI_Tic1_max_N              =  -1.5791327713037E+00
(PID.TID 0000.0001) %MON thSI_Tic2_ave_G              =  -6.9585420399722E+00
(PID.TID 0000.0001) %MON thSI_Tic2_ave_S              =  -1.9567788579422E+00
(PID.TID 0000.0001) %MON thSI_Tic2_ave_N              =  -6.9598179529176E+00
(PID.TID 0000.0001) %MON thSI_Tic2_min_S              =  -1.9567788579422E+00
(PID.TID 0000.0001) %MON thSI_Tic2_min_N              =  -9.5045430664683E+00
(PID.TID 0000.0001) %MON thSI_Tic2_max_S              =  -1.9567788579422E+00
(PID.TID 0000.0001) %MON thSI_Tic2_max_N              =  -1.5791327713037E+00
(PID.TID 0000.0001) // =======================================================
(PID.TID 0000.0001) // End MONITOR Therm.SeaIce statistics
(PID.TID 0000.0001) // =======================================================
 cg2d: Sum(rhs),rhsMax =  -3.46616735313887E-10  4.22178161632037E+00
(PID.TID 0000.0001)                    cg2d_init_res =    1.87687425218072E-01
(PID.TID 0000.0001)                       cg2d_iters =    63
(PID.TID 0000.0001)                         cg2d_res =    5.24586201508401E-07
(PID.TID 0000.0001) // =======================================================
(PID.TID 0000.0001) // Begin MONITOR dynamic field statistics
(PID.TID 0000.0001) // =======================================================
(PID.TID 0000.0001) %MON time_tsnumber                =                 72017
(PID.TID 0000.0001) %MON time_secondsf                =   6.2222688000000E+09
(PID.TID 0000.0001) %MON dynstat_eta_max              =   8.9604578893948E-01
(PID.TID 0000.0001) %MON dynstat_eta_min              =  -1.6036376123015E+00
(PID.TID 0000.0001) %MON dynstat_eta_mean             =   5.1404877071537E-13
(PID.TID 0000.0001) %MON dynstat_eta_sd               =   5.9340230155790E-01
(PID.TID 0000.0001) %MON dynstat_eta_del2             =   1.0989964516447E-02
(PID.TID 0000.0001) %MON dynstat_uvel_max             =   1.8531377681424E-01
(PID.TID 0000.0001) %MON dynstat_uvel_min             =  -2.8129795186957E-01
(PID.TID 0000.0001) %MON dynstat_uvel_mean            =  -4.8763067705105E-04
(PID.TID 0000.0001) %MON dynstat_uvel_sd              =   1.2080895700130E-02
(PID.TID 0000.0001) %MON dynstat_uvel_del2            =   1.5693456735408E-03
(PID.TID 0000.0001) %MON dynstat_vvel_max             =   1.7395291420343E-01
(PID.TID 0000.0001) %MON dynstat_vvel_min             =  -2.2360662990545E-01
(PID.TID 0000.0001) %MON dynstat_vvel_mean            =  -4.1400140459383E-04
(PID.TID 0000.0001) %MON dynstat_vvel_sd              =   1.2718587286975E-02
(PID.TID 0000.0001) %MON dynstat_vvel_del2            =   1.5919220645775E-03
(PID.TID 0000.0001) %MON dynstat_wvel_max             =   1.1023693804241E-04
(PID.TID 0000.0001) %MON dynstat_wvel_min             =  -2.0291833767155E-04
(PID.TID 0000.0001) %MON dynstat_wvel_mean            =  -5.9403667651388E-22
(PID.TID 0000.0001) %MON dynstat_wvel_sd              =   3.8872317237499E-06
(PID.TID 0000.0001) %MON dynstat_wvel_del2            =   8.8084924356697E-07
(PID.TID 0000.0001) %MON dynstat_theta_max            =   2.9990267594989E+01
(PID.TID 0000.0001) %MON dynstat_theta_min            =  -2.3618664679136E+00
(PID.TID 0000.0001) %MON dynstat_theta_mean           =   3.9274054196058E+00
(PID.TID 0000.0001) %MON dynstat_theta_sd             =   4.5652510758313E+00
(PID.TID 0000.0001) %MON dynstat_theta_del2           =   8.5826674640034E-02
(PID.TID 0000.0001) %MON dynstat_salt_max             =   4.1458111486452E+01
(PID.TID 0000.0001) %MON dynstat_salt_min             =   1.8415377692142E+01
(PID.TID 0000.0001) %MON dynstat_salt_mean            =   3.4775718983861E+01
(PID.TID 0000.0001) %MON dynstat_salt_sd              =   5.3306539496181E-01
(PID.TID 0000.0001) %MON dynstat_salt_del2            =   1.8759511092953E-02
(PID.TID 0000.0001) %MON advcfl_uvel_max              =   7.9781435002875E-02
(PID.TID 0000.0001) %MON advcfl_vvel_max              =   7.5823624615361E-02
(PID.TID 0000.0001) %MON advcfl_wvel_max              =   6.6159035376688E-02
(PID.TID 0000.0001) %MON advcfl_W_hf_max              =   1.1332039475366E-01
(PID.TID 0000.0001) %MON pe_b_mean                    =   4.6909729183243E-04
(PID.TID 0000.0001) %MON ke_max                       =   3.8555712723968E-02
(PID.TID 0000.0001) %MON ke_mean                      =   1.4228427741968E-04
(PID.TID 0000.0001) %MON ke_vol                       =   1.3398024453628E+18
(PID.TID 0000.0001) %MON vort_r_min                   =  -1.2726717653885E-06
(PID.TID 0000.0001) %MON vort_r_max                   =   1.2574850727402E-06
(PID.TID 0000.0001) %MON vort_a_mean                  =  -2.0491686624234E-05
(PID.TID 0000.0001) %MON vort_a_sd                    =   7.5056306454993E-05
(PID.TID 0000.0001) %MON vort_p_mean                  =  -2.4712552462847E-05
(PID.TID 0000.0001) %MON vort_p_sd                    =   1.2774953606156E-04
(PID.TID 0000.0001) %MON surfExpan_theta_mean         =  -1.4209605753988E-08
(PID.TID 0000.0001) %MON surfExpan_salt_mean          =   1.2900135127293E-09
(PID.TID 0000.0001) // =======================================================
(PID.TID 0000.0001) // End MONITOR dynamic field statistics
(PID.TID 0000.0001) // =======================================================
(PID.TID 0000.0001) // =======================================================
(PID.TID 0000.0001) // Begin MONITOR Therm.SeaIce statistics
(PID.TID 0000.0001) // =======================================================
(PID.TID 0000.0001) %MON thSI_time_sec                =   6.2222688000000E+09
(PID.TID 0000.0001) %MON thSI_Ice_Area_G              =   1.0327658446599E+13
(PID.TID 0000.0001) %MON thSI_Ice_Area_S              =   1.8226075435018E+10
(PID.TID 0000.0001) %MON thSI_Ice_Area_N              =   1.0309432371164E+13
(PID.TID 0000.0001) %MON thSI_IceH_ave_G              =   1.0142837538314E+00
(PID.TID 0000.0001) %MON thSI_IceH_ave_S              =   1.2278181970166E-01
(PID.TID 0000.0001) %MON thSI_IceH_ave_N              =   1.0158598426903E+00
(PID.TID 0000.0001) %MON thSI_IceH_max_S              =   1.2278181970166E-01
(PID.TID 0000.0001) %MON thSI_IceH_max_N              =   1.7757819364184E+00
(PID.TID 0000.0001) %MON thSI_SnwH_ave_G              =   2.5867423096396E-02
(PID.TID 0000.0001) %MON thSI_SnwH_ave_S              =   5.0228926241588E-02
(PID.TID 0000.0001) %MON thSI_SnwH_ave_N              =   2.5824354324222E-02
(PID.TID 0000.0001) %MON thSI_SnwH_max_S              =   5.0228926241588E-02
(PID.TID 0000.0001) %MON thSI_SnwH_max_N              =   1.6394535434626E-01
(PID.TID 0000.0001) %MON thSI_TotEnerg_G              =  -3.4203904201882E+21
(PID.TID 0000.0001) %MON thSI_Tsrf_ave_G              =  -2.7366498405004E+01
(PID.TID 0000.0001) %MON thSI_Tsrf_ave_S              =  -4.0455788259034E+00
(PID.TID 0000.0001) %MON thSI_Tsrf_ave_N              =  -2.7407727526468E+01
(PID.TID 0000.0001) %MON thSI_Tsrf_min_S              =  -4.0455788259034E+00
(PID.TID 0000.0001) %MON thSI_Tsrf_min_N              =  -3.5679998986573E+01
(PID.TID 0000.0001) %MON thSI_Tsrf_max_S              =  -4.0455788259034E+00
(PID.TID 0000.0001) %MON thSI_Tsrf_max_N              =  -1.7525383065960E+00
(PID.TID 0000.0001) %MON thSI_Tic1_ave_G              =  -1.8597551668099E+01
(PID.TID 0000.0001) %MON thSI_Tic1_ave_S              =  -2.2590899320467E+00
(PID.TID 0000.0001) %MON thSI_Tic1_ave_N              =  -1.8601042828859E+01
(PID.TID 0000.0001) %MON thSI_Tic1_min_S              =  -2.2590899320467E+00
(PID.TID 0000.0001) %MON thSI_Tic1_min_N              =  -2.5576785594148E+01
(PID.TID 0000.0001) %MON thSI_Tic1_max_S              =  -2.2590899320467E+00
(PID.TID 0000.0001) %MON thSI_Tic1_max_N              =  -1.7525383065960E+00
(PID.TID 0000.0001) %MON thSI_Tic2_ave_G              =  -6.9542288579447E+00
(PID.TID 0000.0001) %MON thSI_Tic2_ave_S              =  -1.9619764632809E+00
(PID.TID 0000.0001) %MON thSI_Tic2_ave_N              =  -6.9552955896813E+00
(PID.TID 0000.0001) %MON thSI_Tic2_min_S              =  -1.9619764632809E+00
(PID.TID 0000.0001) %MON thSI_Tic2_min_N              =  -9.4878051017830E+00
(PID.TID 0000.0001) %MON thSI_Tic2_max_S              =  -1.9619764632809E+00
(PID.TID 0000.0001) %MON thSI_Tic2_max_N              =  -1.7525383065960E+00
(PID.TID 0000.0001) // =======================================================
(PID.TID 0000.0001) // End MONITOR Therm.SeaIce statistics
(PID.TID 0000.0001) // =======================================================
 cg2d: Sum(rhs),rhsMax =  -3.46182082999746E-10  4.22072247097349E+00
(PID.TID 0000.0001)                    cg2d_init_res =    1.79369985576989E-01
(PID.TID 0000.0001)                       cg2d_iters =    63
(PID.TID 0000.0001)                         cg2d_res =    5.24161512193340E-07
(PID.TID 0000.0001) // =======================================================
(PID.TID 0000.0001) // Begin MONITOR dynamic field statistics
(PID.TID 0000.0001) // =======================================================
(PID.TID 0000.0001) %MON time_tsnumber                =                 72018
(PID.TID 0000.0001) %MON time_secondsf                =   6.2223552000000E+09
(PID.TID 0000.0001) %MON dynstat_eta_max              =   8.9518748738903E-01
(PID.TID 0000.0001) %MON dynstat_eta_min              =  -1.6030839436250E+00
(PID.TID 0000.0001) %MON dynstat_eta_mean             =   5.1475343082903E-13
(PID.TID 0000.0001) %MON dynstat_eta_sd               =   5.9332128349698E-01
(PID.TID 0000.0001) %MON dynstat_eta_del2             =   1.0984363802372E-02
(PID.TID 0000.0001) %MON dynstat_uvel_max             =   1.8540802257409E-01
(PID.TID 0000.0001) %MON dynstat_uvel_min             =  -2.8073129534227E-01
(PID.TID 0000.0001) %MON dynstat_uvel_mean            =  -4.8687880373132E-04
(PID.TID 0000.0001) %MON dynstat_uvel_sd              =   1.2084954333354E-02
(PID.TID 0000.0001) %MON dynstat_uvel_del2            =   1.5693683976939E-03
(PID.TID 0000.0001) %MON dynstat_vvel_max             =   1.7374057895655E-01
(PID.TID 0000.0001) %MON dynstat_vvel_min             =  -2.2347034532063E-01
(PID.TID 0000.0001) %MON dynstat_vvel_mean            =  -4.1375190488195E-04
(PID.TID 0000.0001) %MON dynstat_vvel_sd              =   1.2719864306156E-02
(PID.TID 0000.0001) %MON dynstat_vvel_del2            =   1.5918463307286E-03
(PID.TID 0000.0001) %MON dynstat_wvel_max             =   1.1058966578083E-04
(PID.TID 0000.0001) %MON dynstat_wvel_min             =  -2.0246696940594E-04
(PID.TID 0000.0001) %MON dynstat_wvel_mean            =   4.0190747227056E-23
(PID.TID 0000.0001) %MON dynstat_wvel_sd              =   3.8842356464093E-06
(PID.TID 0000.0001) %MON dynstat_wvel_del2            =   8.8077258412117E-07
(PID.TID 0000.0001) %MON dynstat_theta_max            =   2.9969466008716E+01
(PID.TID 0000.0001) %MON dynstat_theta_min            =  -2.3901510759561E+00
(PID.TID 0000.0001) %MON dynstat_theta_mean           =   3.9274627319125E+00
(PID.TID 0000.0001) %MON dynstat_theta_sd             =   4.5651299752890E+00
(PID.TID 0000.0001) %MON dynstat_theta_del2           =   8.5797281384383E-02
(PID.TID 0000.0001) %MON dynstat_salt_max             =   4.1456287245714E+01
(PID.TID 0000.0001) %MON dynstat_salt_min             =   1.8438811864511E+01
(PID.TID 0000.0001) %MON dynstat_salt_mean            =   3.4775740923486E+01
(PID.TID 0000.0001) %MON dynstat_salt_sd              =   5.3299513459672E-01
(PID.TID 0000.0001) %MON dynstat_salt_del2            =   1.8744640573650E-02
(PID.TID 0000.0001) %MON advcfl_uvel_max              =   7.9620720463004E-02
(PID.TID 0000.0001) %MON advcfl_vvel_max              =   7.5731070672670E-02
(PID.TID 0000.0001) %MON advcfl_wvel_max              =   6.6011872289332E-02
(PID.TID 0000.0001) %MON advcfl_W_hf_max              =   1.1292288026830E-01
(PID.TID 0000.0001) %MON pe_b_mean                    =   4.6896920753478E-04
(PID.TID 0000.0001) %MON ke_max                       =   3.8403595400910E-02
(PID.TID 0000.0001) %MON ke_mean                      =   1.4234398498808E-04
(PID.TID 0000.0001) %MON ke_vol                       =   1.3398024453628E+18
(PID.TID 0000.0001) %MON vort_r_min                   =  -1.2777447795860E-06
(PID.TID 0000.0001) %MON vort_r_max                   =   1.2600141144024E-06
(PID.TID 0000.0001) %MON vort_a_mean                  =  -2.0491686633665E-05
(PID.TID 0000.0001) %MON vort_a_sd                    =   7.5056306446491E-05
(PID.TID 0000.0001) %MON vort_p_mean                  =  -2.4712552474219E-05
(PID.TID 0000.0001) %MON vort_p_sd                    =   1.2774953968222E-04
(PID.TID 0000.0001) %MON surfExpan_theta_mean         =  -1.0525698085278E-08
(PID.TID 0000.0001) %MON surfExpan_salt_mean          =   1.5815058218296E-09
(PID.TID 0000.0001) // =======================================================
(PID.TID 0000.0001) // End MONITOR dynamic field statistics
(PID.TID 0000.0001) // =======================================================
(PID.TID 0000.0001) // =======================================================
(PID.TID 0000.0001) // Begin MONITOR Therm.SeaIce statistics
(PID.TID 0000.0001) // =======================================================
(PID.TID 0000.0001) %MON thSI_time_sec                =   6.2223552000000E+09
(PID.TID 0000.0001) %MON thSI_Ice_Area_G              =   1.0443100892499E+13
(PID.TID 0000.0001) %MON thSI_Ice_Area_S              =   1.6930087951559E+10
(PID.TID 0000.0001) %MON thSI_Ice_Area_N              =   1.0426170804548E+13
(PID.TID 0000.0001) %MON thSI_IceH_ave_G              =   1.0408521901867E+00
(PID.TID 0000.0001) %MON thSI_IceH_ave_S              =   1.1267357876562E-01
(PID.TID 0000.0001) %MON thSI_IceH_ave_N              =   1.0423593730077E+00
(PID.TID 0000.0001) %MON thSI_IceH_max_S              =   1.1267357876562E-01
(PID.TID 0000.0001) %MON thSI_IceH_max_N              =   1.8325367119806E+00
(PID.TID 0000.0001) %MON thSI_SnwH_ave_G              =   2.7762280912968E-02
(PID.TID 0000.0001) %MON thSI_SnwH_ave_S              =   4.6093736767754E-02
(PID.TID 0000.0001) %MON thSI_SnwH_ave_N              =   2.7732514168713E-02
(PID.TID 0000.0001) %MON thSI_SnwH_max_S              =   4.6093736767754E-02
(PID.TID 0000.0001) %MON thSI_SnwH_max_N              =   1.7697949881209E-01
(PID.TID 0000.0001) %MON thSI_TotEnerg_G              =  -3.5506293537194E+21
(PID.TID 0000.0001) %MON thSI_Tsrf_ave_G              =  -2.7394920647079E+01
(PID.TID 0000.0001) %MON thSI_Tsrf_ave_S              =  -4.1423013808136E+00
(PID.TID 0000.0001) %MON thSI_Tsrf_ave_N              =  -2.7432678410371E+01
(PID.TID 0000.0001) %MON thSI_Tsrf_min_S              =  -4.1423013808136E+00
(PID.TID 0000.0001) %MON thSI_Tsrf_min_N              =  -3.5818466942888E+01
(PID.TID 0000.0001) %MON thSI_Tsrf_max_S              =  -4.1423013808136E+00
(PID.TID 0000.0001) %MON thSI_Tsrf_max_N              =  -1.7738816942728E+00
(PID.TID 0000.0001) %MON thSI_Tic1_ave_G              =  -1.8566196925120E+01
(PID.TID 0000.0001) %MON thSI_Tic1_ave_S              =  -2.2781045163591E+00
(PID.TID 0000.0001) %MON thSI_Tic1_ave_N              =  -1.8569055892606E+01
(PID.TID 0000.0001) %MON thSI_Tic1_min_S              =  -2.2781045163591E+00
(PID.TID 0000.0001) %MON thSI_Tic1_min_N              =  -2.5632383522114E+01
(PID.TID 0000.0001) %MON thSI_Tic1_max_S              =  -2.2781045163591E+00
(PID.TID 0000.0001) %MON thSI_Tic1_max_N              =  -1.7738816942728E+00
(PID.TID 0000.0001) %MON thSI_Tic2_ave_G              =  -6.9436953447774E+00
(PID.TID 0000.0001) %MON thSI_Tic2_ave_S              =  -1.9683596868401E+00
(PID.TID 0000.0001) %MON thSI_Tic2_ave_N              =  -6.9445686405887E+00
(PID.TID 0000.0001) %MON thSI_Tic2_min_S              =  -1.9683596868401E+00
(PID.TID 0000.0001) %MON thSI_Tic2_min_N              =  -9.4667976108578E+00
(PID.TID 0000.0001) %MON thSI_Tic2_max_S              =  -1.9683596868401E+00
(PID.TID 0000.0001) %MON thSI_Tic2_max_N              =  -1.7738816942728E+00
(PID.TID 0000.0001) // =======================================================
(PID.TID 0000.0001) // End MONITOR Therm.SeaIce statistics
(PID.TID 0000.0001) // =======================================================
 cg2d: Sum(rhs),rhsMax =  -3.46064288336834E-10  4.21989373917192E+00
(PID.TID 0000.0001)                    cg2d_init_res =    1.75105394069847E-01
(PID.TID 0000.0001)                       cg2d_iters =    63
(PID.TID 0000.0001)                         cg2d_res =    5.19065856278640E-07
(PID.TID 0000.0001) // =======================================================
(PID.TID 0000.0001) // Begin MONITOR dynamic field statistics
(PID.TID 0000.0001) // =======================================================
(PID.TID 0000.0001) %MON time_tsnumber                =                 72019
(PID.TID 0000.0001) %MON time_secondsf                =   6.2224416000000E+09
(PID.TID 0000.0001) %MON dynstat_eta_max              =   8.9438682093391E-01
(PID.TID 0000.0001) %MON dynstat_eta_min              =  -1.6024938430867E+00
(PID.TID 0000.0001) %MON dynstat_eta_mean             =   5.1479706859496E-13
(PID.TID 0000.0001) %MON dynstat_eta_sd               =   5.9325236485948E-01
(PID.TID 0000.0001) %MON dynstat_eta_del2             =   1.0980265590823E-02
(PID.TID 0000.0001) %MON dynstat_uvel_max             =   1.8542447582626E-01
(PID.TID 0000.0001) %MON dynstat_uvel_min             =  -2.8015181728109E-01
(PID.TID 0000.0001) %MON dynstat_uvel_mean            =  -4.8612750869782E-04
(PID.TID 0000.0001) %MON dynstat_uvel_sd              =   1.2088611740524E-02
(PID.TID 0000.0001) %MON dynstat_uvel_del2            =   1.5694802627947E-03
(PID.TID 0000.0001) %MON dynstat_vvel_max             =   1.7350584734280E-01
(PID.TID 0000.0001) %MON dynstat_vvel_min             =  -2.2332890718336E-01
(PID.TID 0000.0001) %MON dynstat_vvel_mean            =  -4.1338577256403E-04
(PID.TID 0000.0001) %MON dynstat_vvel_sd              =   1.2720374131492E-02
(PID.TID 0000.0001) %MON dynstat_vvel_del2            =   1.5917940769678E-03
(PID.TID 0000.0001) %MON dynstat_wvel_max             =   1.1089790101844E-04
(PID.TID 0000.0001) %MON dynstat_wvel_min             =  -2.0201034275872E-04
(PID.TID 0000.0001) %MON dynstat_wvel_mean            =   8.8476000030936E-24
(PID.TID 0000.0001) %MON dynstat_wvel_sd              =   3.8812813416048E-06
(PID.TID 0000.0001) %MON dynstat_wvel_del2            =   8.8093405716973E-07
(PID.TID 0000.0001) %MON dynstat_theta_max            =   2.9949066615410E+01
(PID.TID 0000.0001) %MON dynstat_theta_min            =  -2.4184895186085E+00
(PID.TID 0000.0001) %MON dynstat_theta_mean           =   3.9275234334084E+00
(PID.TID 0000.0001) %MON dynstat_theta_sd             =   4.5650375193115E+00
(PID.TID 0000.0001) %MON dynstat_theta_del2           =   8.5759991679289E-02
(PID.TID 0000.0001) %MON dynstat_salt_max             =   4.1454304507400E+01
(PID.TID 0000.0001) %MON dynstat_salt_min             =   1.8437635639499E+01
(PID.TID 0000.0001) %MON dynstat_salt_mean            =   3.4775762535325E+01
(PID.TID 0000.0001) %MON dynstat_salt_sd              =   5.3292777012391E-01
(PID.TID 0000.0001) %MON dynstat_salt_del2            =   1.8731626574142E-02
(PID.TID 0000.0001) %MON advcfl_uvel_max              =   7.9456369492915E-02
(PID.TID 0000.0001) %MON advcfl_vvel_max              =   7.5628754469187E-02
(PID.TID 0000.0001) %MON advcfl_wvel_max              =   6.5862994771143E-02
(PID.TID 0000.0001) %MON advcfl_W_hf_max              =   1.1246177220922E-01
(PID.TID 0000.0001) %MON pe_b_mean                    =   4.6886026540658E-04
(PID.TID 0000.0001) %MON ke_max                       =   3.8250249391493E-02
(PID.TID 0000.0001) %MON ke_mean                      =   1.4239015376874E-04
(PID.TID 0000.0001) %MON ke_vol                       =   1.3398024453628E+18
(PID.TID 0000.0001) %MON vort_r_min                   =  -1.2825813140536E-06
(PID.TID 0000.0001) %MON vort_r_max                   =   1.2623046181332E-06
(PID.TID 0000.0001) %MON vort_a_mean                  =  -2.0491686642653E-05
(PID.TID 0000.0001) %MON vort_a_sd                    =   7.5056306439798E-05
(PID.TID 0000.0001) %MON vort_p_mean                  =  -2.4712552485059E-05
(PID.TID 0000.0001) %MON vort_p_sd                    =   1.2774954275740E-04
(PID.TID 0000.0001) %MON surfExpan_theta_mean         =  -6.9099939672741E-09
(PID.TID 0000.0001) %MON surfExpan_salt_mean          =   1.8307272325234E-09
(PID.TID 0000.0001) // =======================================================
(PID.TID 0000.0001) // End MONITOR dynamic field statistics
(PID.TID 0000.0001) // =======================================================
(PID.TID 0000.0001) // =======================================================
(PID.TID 0000.0001) // Begin MONITOR Therm.SeaIce statistics
(PID.TID 0000.0001) // =======================================================
(PID.TID 0000.0001) %MON thSI_time_sec                =   6.2224416000000E+09
(PID.TID 0000.0001) %MON thSI_Ice_Area_G              =   1.0521850251716E+13
(PID.TID 0000.0001) %MON thSI_Ice_Area_S              =   1.5530162239332E+10
(PID.TID 0000.0001) %MON thSI_Ice_Area_N              =   1.0506320089477E+13
(PID.TID 0000.0001) %MON thSI_IceH_ave_G              =   1.0697632360292E+00
(PID.TID 0000.0001) %MON thSI_IceH_ave_S              =   1.0195723982278E-01
(PID.TID 0000.0001) %MON thSI_IceH_ave_N              =   1.0711938210494E+00
(PID.TID 0000.0001) %MON thSI_IceH_max_S              =   1.0195723982278E-01
(PID.TID 0000.0001) %MON thSI_IceH_max_N              =   1.8875807836337E+00
(PID.TID 0000.0001) %MON thSI_SnwH_ave_G              =   2.9783929439224E-02
(PID.TID 0000.0001) %MON thSI_SnwH_ave_S              =   4.1709779927503E-02
(PID.TID 0000.0001) %MON thSI_SnwH_ave_N              =   2.9766300964996E-02
(PID.TID 0000.0001) %MON thSI_SnwH_max_S              =   4.1709779927503E-02
(PID.TID 0000.0001) %MON thSI_SnwH_max_N              =   1.8995682440282E-01
(PID.TID 0000.0001) %MON thSI_TotEnerg_G              =  -3.6780820073853E+21
(PID.TID 0000.0001) %MON thSI_Tsrf_ave_G              =  -2.7511887918195E+01
(PID.TID 0000.0001) %MON thSI_Tsrf_ave_S              =  -4.2308819511527E+00
(PID.TID 0000.0001) %MON thSI_Tsrf_ave_N              =  -2.7546301280503E+01
(PID.TID 0000.0001) %MON thSI_Tsrf_min_S              =  -4.2308819511527E+00
(PID.TID 0000.0001) %MON thSI_Tsrf_min_N              =  -3.5950574364274E+01
(PID.TID 0000.0001) %MON thSI_Tsrf_max_S              =  -4.2308819511527E+00
(PID.TID 0000.0001) %MON thSI_Tsrf_max_N              =  -1.7225741153363E+00
(PID.TID 0000.0001) %MON thSI_Tic1_ave_G              =  -1.8533368457832E+01
(PID.TID 0000.0001) %MON thSI_Tic1_ave_S              =  -2.2961347170444E+00
(PID.TID 0000.0001) %MON thSI_Tic1_ave_N              =  -1.8535652938136E+01
(PID.TID 0000.0001) %MON thSI_Tic1_min_S              =  -2.2961347170444E+00
(PID.TID 0000.0001) %MON thSI_Tic1_min_N              =  -2.5682051169306E+01
(PID.TID 0000.0001) %MON thSI_Tic1_max_S              =  -2.2961347170444E+00
(PID.TID 0000.0001) %MON thSI_Tic1_max_N              =  -1.7225741153363E+00
(PID.TID 0000.0001) %MON thSI_Tic2_ave_G              =  -6.9317215212347E+00
(PID.TID 0000.0001) %MON thSI_Tic2_ave_S              =  -1.9745662453172E+00
(PID.TID 0000.0001) %MON thSI_Tic2_ave_N              =  -6.9324189629155E+00
(PID.TID 0000.0001) %MON thSI_Tic2_min_S              =  -1.9745662453172E+00
(PID.TID 0000.0001) %MON thSI_Tic2_min_N              =  -9.4443194553403E+00
(PID.TID 0000.0001) %MON thSI_Tic2_max_S              =  -1.9745662453172E+00
(PID.TID 0000.0001) %MON thSI_Tic2_max_N              =  -1.7225741153363E+00
(PID.TID 0000.0001) // =======================================================
(PID.TID 0000.0001) // End MONITOR Therm.SeaIce statistics
(PID.TID 0000.0001) // =======================================================
 cg2d: Sum(rhs),rhsMax =  -3.45957706926470E-10  4.21926836760089E+00
(PID.TID 0000.0001)                    cg2d_init_res =    1.73221773891336E-01
(PID.TID 0000.0001)                       cg2d_iters =    63
(PID.TID 0000.0001)                         cg2d_res =    5.13883066097836E-07
(PID.TID 0000.0001) // =======================================================
(PID.TID 0000.0001) // Begin MONITOR dynamic field statistics
(PID.TID 0000.0001) // =======================================================
(PID.TID 0000.0001) %MON time_tsnumber                =                 72020
(PID.TID 0000.0001) %MON time_secondsf                =   6.2225280000000E+09
(PID.TID 0000.0001) %MON dynstat_eta_max              =   8.9364900362720E-01
(PID.TID 0000.0001) %MON dynstat_eta_min              =  -1.6018750854736E+00
(PID.TID 0000.0001) %MON dynstat_eta_mean             =   5.1504812875622E-13
(PID.TID 0000.0001) %MON dynstat_eta_sd               =   5.9319586890871E-01
(PID.TID 0000.0001) %MON dynstat_eta_del2             =   1.0977141264945E-02
(PID.TID 0000.0001) %MON dynstat_uvel_max             =   1.8536239979083E-01
(PID.TID 0000.0001) %MON dynstat_uvel_min             =  -2.7956002496133E-01
(PID.TID 0000.0001) %MON dynstat_uvel_mean            =  -4.8536303064195E-04
(PID.TID 0000.0001) %MON dynstat_uvel_sd              =   1.2091789393157E-02
(PID.TID 0000.0001) %MON dynstat_uvel_del2            =   1.5696569547534E-03
(PID.TID 0000.0001) %MON dynstat_vvel_max             =   1.7325115445163E-01
(PID.TID 0000.0001) %MON dynstat_vvel_min             =  -2.2318259874678E-01
(PID.TID 0000.0001) %MON dynstat_vvel_mean            =  -4.1292047964268E-04
(PID.TID 0000.0001) %MON dynstat_vvel_sd              =   1.2720154670880E-02
(PID.TID 0000.0001) %MON dynstat_vvel_del2            =   1.5918612384179E-03
(PID.TID 0000.0001) %MON dynstat_wvel_max             =   1.1114918615948E-04
(PID.TID 0000.0001) %MON dynstat_wvel_min             =  -2.0155362675014E-04
(PID.TID 0000.0001) %MON dynstat_wvel_mean            =   6.5302006049956E-23
(PID.TID 0000.0001) %MON dynstat_wvel_sd              =   3.8783569150500E-06
(PID.TID 0000.0001) %MON dynstat_wvel_del2            =   8.8122355768700E-07
(PID.TID 0000.0001) %MON dynstat_theta_max            =   2.9929091212573E+01
(PID.TID 0000.0001) %MON dynstat_theta_min            =  -2.4469045211409E+00
(PID.TID 0000.0001) %MON dynstat_theta_mean           =   3.9275862476912E+00
(PID.TID 0000.0001) %MON dynstat_theta_sd             =   4.5649765374573E+00
(PID.TID 0000.0001) %MON dynstat_theta_del2           =   8.5759570753774E-02
(PID.TID 0000.0001) %MON dynstat_salt_max             =   4.1452173066765E+01
(PID.TID 0000.0001) %MON dynstat_salt_min             =   1.8436552551157E+01
(PID.TID 0000.0001) %MON dynstat_salt_mean            =   3.4775783614691E+01
(PID.TID 0000.0001) %MON dynstat_salt_sd              =   5.3286249412498E-01
(PID.TID 0000.0001) %MON dynstat_salt_del2            =   1.8727903275922E-02
(PID.TID 0000.0001) %MON advcfl_uvel_max              =   7.9288525965508E-02
(PID.TID 0000.0001) %MON advcfl_vvel_max              =   7.5517737426093E-02
(PID.TID 0000.0001) %MON advcfl_wvel_max              =   6.5714088117781E-02
(PID.TID 0000.0001) %MON advcfl_W_hf_max              =   1.1193975216776E-01
(PID.TID 0000.0001) %MON pe_b_mean                    =   4.6877096969781E-04
(PID.TID 0000.0001) %MON ke_max                       =   3.8095760978061E-02
(PID.TID 0000.0001) %MON ke_mean                      =   1.4242235421549E-04
(PID.TID 0000.0001) %MON ke_vol                       =   1.3398024453628E+18
(PID.TID 0000.0001) %MON vort_r_min                   =  -1.2871687275707E-06
(PID.TID 0000.0001) %MON vort_r_max                   =   1.2643446056190E-06
(PID.TID 0000.0001) %MON vort_a_mean                  =  -2.0491686651136E-05
(PID.TID 0000.0001) %MON vort_a_sd                    =   7.5056306436435E-05
(PID.TID 0000.0001) %MON vort_p_mean                  =  -2.4712552495290E-05
(PID.TID 0000.0001) %MON vort_p_sd                    =   1.2774954527786E-04
(PID.TID 0000.0001) %MON surfExpan_theta_mean         =  -3.3256283398192E-09
(PID.TID 0000.0001) %MON surfExpan_salt_mean          =   2.1018358631125E-09
(PID.TID 0000.0001) // =======================================================
(PID.TID 0000.0001) // End MONITOR dynamic field statistics
(PID.TID 0000.0001) // =======================================================
(PID.TID 0000.0001) // =======================================================
(PID.TID 0000.0001) // Begin MONITOR Therm.SeaIce statistics
(PID.TID 0000.0001) // =======================================================
(PID.TID 0000.0001) %MON thSI_time_sec                =   6.2225280000000E+09
(PID.TID 0000.0001) %MON thSI_Ice_Area_G              =   1.0575038988642E+13
(PID.TID 0000.0001) %MON thSI_Ice_Area_S              =   1.4024534710326E+10
(PID.TID 0000.0001) %MON thSI_Ice_Area_N              =   1.0561014453931E+13
(PID.TID 0000.0001) %MON thSI_IceH_ave_G              =   1.0990654628873E+00
(PID.TID 0000.0001) %MON thSI_IceH_ave_S              =   9.0713466001921E-02
(PID.TID 0000.0001) %MON thSI_IceH_ave_N              =   1.1004045073174E+00
(PID.TID 0000.0001) %MON thSI_IceH_max_S              =   9.0713466001921E-02
(PID.TID 0000.0001) %MON thSI_IceH_max_N              =   1.9410555784450E+00
(PID.TID 0000.0001) %MON thSI_SnwH_ave_G              =   3.1897698966415E-02
(PID.TID 0000.0001) %MON thSI_SnwH_ave_S              =   3.7110054273513E-02
(PID.TID 0000.0001) %MON thSI_SnwH_ave_N              =   3.1890777201631E-02
(PID.TID 0000.0001) %MON thSI_SnwH_max_S              =   3.7110054273513E-02
(PID.TID 0000.0001) %MON thSI_SnwH_max_N              =   2.0288927738745E-01
(PID.TID 0000.0001) %MON thSI_TotEnerg_G              =  -3.7993118279146E+21
(PID.TID 0000.0001) %MON thSI_Tsrf_ave_G              =  -2.7613867980977E+01
(PID.TID 0000.0001) %MON thSI_Tsrf_ave_S              =  -4.3087239897579E+00
(PID.TID 0000.0001) %MON thSI_Tsrf_ave_N              =  -2.7644816125425E+01
(PID.TID 0000.0001) %MON thSI_Tsrf_min_S              =  -4.3087239897579E+00
(PID.TID 0000.0001) %MON thSI_Tsrf_min_N              =  -3.6077367179792E+01
(PID.TID 0000.0001) %MON thSI_Tsrf_max_S              =  -4.3087239897579E+00
(PID.TID 0000.0001) %MON thSI_Tsrf_max_N              =  -9.4347249598032E+00
(PID.TID 0000.0001) %MON thSI_Tic1_ave_G              =  -1.8500401687884E+01
(PID.TID 0000.0001) %MON thSI_Tic1_ave_S              =  -2.3121666390705E+00
(PID.TID 0000.0001) %MON thSI_Tic1_ave_N              =  -1.8502173842975E+01
(PID.TID 0000.0001) %MON thSI_Tic1_min_S              =  -2.3121666390705E+00
(PID.TID 0000.0001) %MON thSI_Tic1_min_N              =  -2.5727149781830E+01
(PID.TID 0000.0001) %MON thSI_Tic1_max_S              =  -2.3121666390705E+00
(PID.TID 0000.0001) %MON thSI_Tic1_max_N              =  -6.1042591197128E+00
(PID.TID 0000.0001) %MON thSI_Tic2_ave_G              =  -6.9183467729664E+00
(PID.TID 0000.0001) %MON thSI_Tic2_ave_S              =  -1.9802201041162E+00
(PID.TID 0000.0001) %MON thSI_Tic2_ave_N              =  -6.9188873585389E+00
(PID.TID 0000.0001) %MON thSI_Tic2_min_S              =  -1.9802201041162E+00
(PID.TID 0000.0001) %MON thSI_Tic2_min_N              =  -9.4218953931093E+00
(PID.TID 0000.0001) %MON thSI_Tic2_max_S              =  -1.9802201041162E+00
(PID.TID 0000.0001) %MON thSI_Tic2_max_N              =  -3.2027038145013E+00
(PID.TID 0000.0001) // =======================================================
(PID.TID 0000.0001) // End MONITOR Therm.SeaIce statistics
(PID.TID 0000.0001) // =======================================================
(PID.TID 0000.0001) %CHECKPOINT     72020 ckptA
(PID.TID 0000.0001)   Seconds in section "ALL                    [THE_MODEL_MAIN]":
(PID.TID 0000.0001)           User time:  38.2200012
(PID.TID 0000.0001)         System time:  0.389999986
(PID.TID 0000.0001)     Wall clock time:  39.184251
(PID.TID 0000.0001)          No. starts: 1
(PID.TID 0000.0001)           No. stops: 1
(PID.TID 0000.0001)   Seconds in section "INITIALISE_FIXED       [THE_MODEL_MAIN]":
(PID.TID 0000.0001)           User time:  0.360000014
(PID.TID 0000.0001)         System time:  0.0299999993
(PID.TID 0000.0001)     Wall clock time:  0.382947922
(PID.TID 0000.0001)          No. starts: 1
(PID.TID 0000.0001)           No. stops: 1
(PID.TID 0000.0001)   Seconds in section "THE_MAIN_LOOP          [THE_MODEL_MAIN]":
(PID.TID 0000.0001)           User time:  37.5599982
(PID.TID 0000.0001)         System time:  0.259999992
(PID.TID 0000.0001)     Wall clock time:  38.4049821
(PID.TID 0000.0001)          No. starts: 1
(PID.TID 0000.0001)           No. stops: 1
(PID.TID 0000.0001)   Seconds in section "INITIALISE_VARIA    [THE_MAIN_LOOP]":
(PID.TID 0000.0001)           User time:  0.430000007
(PID.TID 0000.0001)         System time:  0.0999999959
(PID.TID 0000.0001)     Wall clock time:  0.630639076
(PID.TID 0000.0001)          No. starts: 1
(PID.TID 0000.0001)           No. stops: 1
(PID.TID 0000.0001)   Seconds in section "MONITOR             [THE_MAIN_LOOP]":
(PID.TID 0000.0001)           User time:  0.189999998
(PID.TID 0000.0001)         System time:  0.
(PID.TID 0000.0001)     Wall clock time:  0.232735991
(PID.TID 0000.0001)          No. starts: 1
(PID.TID 0000.0001)           No. stops: 1
(PID.TID 0000.0001)   Seconds in section "DO_THE_MODEL_IO     [THE_MAIN_LOOP]":
(PID.TID 0000.0001)           User time:  0.0699999332
(PID.TID 0000.0001)         System time:  0.0700000077
(PID.TID 0000.0001)     Wall clock time:  0.563308001
(PID.TID 0000.0001)          No. starts: 1
(PID.TID 0000.0001)           No. stops: 1
(PID.TID 0000.0001)   Seconds in section "MAIN LOOP           [THE_MAIN_LOOP]":
(PID.TID 0000.0001)           User time:  36.8699982
(PID.TID 0000.0001)         System time:  0.0899999887
(PID.TID 0000.0001)     Wall clock time:  36.9781859
(PID.TID 0000.0001)          No. starts: 1
(PID.TID 0000.0001)           No. stops: 1
(PID.TID 0000.0001)   Seconds in section "FORWARD_STEP        [THE_MAIN_LOOP]":
(PID.TID 0000.0001)           User time:  36.8699982
(PID.TID 0000.0001)         System time:  0.0899999887
(PID.TID 0000.0001)     Wall clock time:  36.9777484
(PID.TID 0000.0001)          No. starts: 20
(PID.TID 0000.0001)           No. stops: 20
(PID.TID 0000.0001)   Seconds in section "UPDATE_ETAH        [FORWARD_STEP]":
(PID.TID 0000.0001)           User time:  0.
(PID.TID 0000.0001)         System time:  0.
(PID.TID 0000.0001)     Wall clock time:  0.00425612926
(PID.TID 0000.0001)          No. starts: 20
(PID.TID 0000.0001)           No. stops: 20
(PID.TID 0000.0001)   Seconds in section "BULKF_FORCING      [FORWARD_STEP]":
(PID.TID 0000.0001)           User time:  0.990006566
(PID.TID 0000.0001)         System time:  0.00999999046
(PID.TID 0000.0001)     Wall clock time:  0.987748146
(PID.TID 0000.0001)          No. starts: 20
(PID.TID 0000.0001)           No. stops: 20
(PID.TID 0000.0001)   Seconds in section "THSICE_MAIN        [FORWARD_STEP]":
(PID.TID 0000.0001)           User time:  0.160000563
(PID.TID 0000.0001)         System time:  0.
(PID.TID 0000.0001)     Wall clock time:  0.164142013
(PID.TID 0000.0001)          No. starts: 20
(PID.TID 0000.0001)           No. stops: 20
(PID.TID 0000.0001)   Seconds in section "THERMODYNAMICS      [FORWARD_STEP]":
(PID.TID 0000.0001)           User time:  14.0799963
(PID.TID 0000.0001)         System time:  0.0100000054
(PID.TID 0000.0001)     Wall clock time:  14.0934018
(PID.TID 0000.0001)          No. starts: 20
(PID.TID 0000.0001)           No. stops: 20
(PID.TID 0000.0001)   Seconds in section "BLOCKING_EXCHANGES  [FORWARD_STEP]":
(PID.TID 0000.0001)           User time:  0.119991064
(PID.TID 0000.0001)         System time:  0.
(PID.TID 0000.0001)     Wall clock time:  0.14475584
(PID.TID 0000.0001)          No. starts: 40
(PID.TID 0000.0001)           No. stops: 40
(PID.TID 0000.0001)   Seconds in section "DYNAMICS            [FORWARD_STEP]":
(PID.TID 0000.0001)           User time:  10.5500034
(PID.TID 0000.0001)         System time:  0.
(PID.TID 0000.0001)     Wall clock time:  10.569209
(PID.TID 0000.0001)          No. starts: 20
(PID.TID 0000.0001)           No. stops: 20
(PID.TID 0000.0001)   Seconds in section "SOLVE_FOR_PRESSURE  [FORWARD_STEP]":
(PID.TID 0000.0001)           User time:  4.70999694
(PID.TID 0000.0001)         System time:  0.
(PID.TID 0000.0001)     Wall clock time:  4.6973002
(PID.TID 0000.0001)          No. starts: 20
(PID.TID 0000.0001)           No. stops: 20
(PID.TID 0000.0001)   Seconds in section "THE_CORRECTION_STEP [FORWARD_STEP]":
(PID.TID 0000.0001)           User time:  2.38000369
(PID.TID 0000.0001)         System time:  0.
(PID.TID 0000.0001)     Wall clock time:  2.37846494
(PID.TID 0000.0001)          No. starts: 20
(PID.TID 0000.0001)           No. stops: 20
(PID.TID 0000.0001)   Seconds in section "MONITOR             [FORWARD_STEP]":
(PID.TID 0000.0001)           User time:  3.7299993
(PID.TID 0000.0001)         System time:  0.
(PID.TID 0000.0001)     Wall clock time:  3.6968801
(PID.TID 0000.0001)          No. starts: 20
(PID.TID 0000.0001)           No. stops: 20
(PID.TID 0000.0001)   Seconds in section "DO_THE_MODEL_IO     [FORWARD_STEP]":
(PID.TID 0000.0001)           User time:  0.139998198
(PID.TID 0000.0001)         System time:  0.0699999928
(PID.TID 0000.0001)     Wall clock time:  0.235499144
(PID.TID 0000.0001)          No. starts: 20
(PID.TID 0000.0001)           No. stops: 20
(PID.TID 0000.0001)   Seconds in section "WRITE_CHECKPOINT    [FORWARD_STEP]":
(PID.TID 0000.0001)           User time:  0.
(PID.TID 0000.0001)         System time:  0.
(PID.TID 0000.0001)     Wall clock time:  0.000438690186
(PID.TID 0000.0001)          No. starts: 20
(PID.TID 0000.0001)           No. stops: 20
(PID.TID 0000.0001)   Seconds in section "WRITE_CHECKPOINT       [THE_MODEL_MAIN]":
(PID.TID 0000.0001)           User time:  0.300003052
(PID.TID 0000.0001)         System time:  0.099999994
(PID.TID 0000.0001)     Wall clock time:  0.396218061
(PID.TID 0000.0001)          No. starts: 1
(PID.TID 0000.0001)           No. stops: 1
(PID.TID 0000.0001) // ======================================================
(PID.TID 0000.0001) // Tile <-> Tile communication statistics
(PID.TID 0000.0001) // ======================================================
(PID.TID 0000.0001) // o Tile number: 000001
(PID.TID 0000.0001) //         No. X exchanges =              0
(PID.TID 0000.0001) //            Max. X spins =              0
(PID.TID 0000.0001) //            Min. X spins =     1000000000
(PID.TID 0000.0001) //          Total. X spins =              0
(PID.TID 0000.0001) //            Avg. X spins =       0.00E+00
(PID.TID 0000.0001) //         No. Y exchanges =              0
(PID.TID 0000.0001) //            Max. Y spins =              0
(PID.TID 0000.0001) //            Min. Y spins =     1000000000
(PID.TID 0000.0001) //          Total. Y spins =              0
(PID.TID 0000.0001) //            Avg. Y spins =       0.00E+00
(PID.TID 0000.0001) // o Tile number: 000002
(PID.TID 0000.0001) //         No. X exchanges =              0
(PID.TID 0000.0001) //            Max. X spins =              0
(PID.TID 0000.0001) //            Min. X spins =     1000000000
(PID.TID 0000.0001) //          Total. X spins =              0
(PID.TID 0000.0001) //            Avg. X spins =       0.00E+00
(PID.TID 0000.0001) //         No. Y exchanges =              0
(PID.TID 0000.0001) //            Max. Y spins =              0
(PID.TID 0000.0001) //            Min. Y spins =     1000000000
(PID.TID 0000.0001) //          Total. Y spins =              0
(PID.TID 0000.0001) //            Avg. Y spins =       0.00E+00
(PID.TID 0000.0001) // o Tile number: 000003
(PID.TID 0000.0001) //         No. X exchanges =              0
(PID.TID 0000.0001) //            Max. X spins =              0
(PID.TID 0000.0001) //            Min. X spins =     1000000000
(PID.TID 0000.0001) //          Total. X spins =              0
(PID.TID 0000.0001) //            Avg. X spins =       0.00E+00
(PID.TID 0000.0001) //         No. Y exchanges =              0
(PID.TID 0000.0001) //            Max. Y spins =              0
(PID.TID 0000.0001) //            Min. Y spins =     1000000000
(PID.TID 0000.0001) //          Total. Y spins =              0
(PID.TID 0000.0001) //            Avg. Y spins =       0.00E+00
(PID.TID 0000.0001) // o Tile number: 000004
(PID.TID 0000.0001) //         No. X exchanges =              0
(PID.TID 0000.0001) //            Max. X spins =              0
(PID.TID 0000.0001) //            Min. X spins =     1000000000
(PID.TID 0000.0001) //          Total. X spins =              0
(PID.TID 0000.0001) //            Avg. X spins =       0.00E+00
(PID.TID 0000.0001) //         No. Y exchanges =              0
(PID.TID 0000.0001) //            Max. Y spins =              0
(PID.TID 0000.0001) //            Min. Y spins =     1000000000
(PID.TID 0000.0001) //          Total. Y spins =              0
(PID.TID 0000.0001) //            Avg. Y spins =       0.00E+00
(PID.TID 0000.0001) // o Tile number: 000005
(PID.TID 0000.0001) //         No. X exchanges =              0
(PID.TID 0000.0001) //            Max. X spins =              0
(PID.TID 0000.0001) //            Min. X spins =     1000000000
(PID.TID 0000.0001) //          Total. X spins =              0
(PID.TID 0000.0001) //            Avg. X spins =       0.00E+00
(PID.TID 0000.0001) //         No. Y exchanges =              0
(PID.TID 0000.0001) //            Max. Y spins =              0
(PID.TID 0000.0001) //            Min. Y spins =     1000000000
(PID.TID 0000.0001) //          Total. Y spins =              0
(PID.TID 0000.0001) //            Avg. Y spins =       0.00E+00
(PID.TID 0000.0001) // o Tile number: 000006
(PID.TID 0000.0001) //         No. X exchanges =              0
(PID.TID 0000.0001) //            Max. X spins =              0
(PID.TID 0000.0001) //            Min. X spins =     1000000000
(PID.TID 0000.0001) //          Total. X spins =              0
(PID.TID 0000.0001) //            Avg. X spins =       0.00E+00
(PID.TID 0000.0001) //         No. Y exchanges =              0
(PID.TID 0000.0001) //            Max. Y spins =              0
(PID.TID 0000.0001) //            Min. Y spins =     1000000000
(PID.TID 0000.0001) //          Total. Y spins =              0
(PID.TID 0000.0001) //            Avg. Y spins =       0.00E+00
(PID.TID 0000.0001) // o Thread number: 000001
(PID.TID 0000.0001) //            No. barriers =          33382
(PID.TID 0000.0001) //      Max. barrier spins =              1
(PID.TID 0000.0001) //      Min. barrier spins =              1
(PID.TID 0000.0001) //     Total barrier spins =          33382
(PID.TID 0000.0001) //      Avg. barrier spins =       1.00E+00
