(PID.TID 0000.0001) 
(PID.TID 0000.0001) // ======================================================
(PID.TID 0000.0001) //                      MITgcm UV
(PID.TID 0000.0001) //                      =========
(PID.TID 0000.0001) // ======================================================
(PID.TID 0000.0001) // execution environment starting up...
(PID.TID 0000.0001) 
(PID.TID 0000.0001) // MITgcmUV version:  checkpoint61d
(PID.TID 0000.0001) // Build user:        heimbach
(PID.TID 0000.0001) // Build host:        faulks
(PID.TID 0000.0001) // Build date:        Thu Sep 25 17:51:59 EDT 2008
(PID.TID 0000.0001) 
(PID.TID 0000.0001) // =======================================================
(PID.TID 0000.0001) // Execution Environment parameter file "eedata"
(PID.TID 0000.0001) // =======================================================
(PID.TID 0000.0001) ># Example "eedata" file
(PID.TID 0000.0001) ># Lines beginning "#" are comments
(PID.TID 0000.0001) ># nTx - No. threads per process in X
(PID.TID 0000.0001) ># nTy - No. threads per process in Y
(PID.TID 0000.0001) > &EEPARMS
(PID.TID 0000.0001) > useCubedSphereExchange=.TRUE.,
(PID.TID 0000.0001) > nTx=1,
(PID.TID 0000.0001) > nTy=1,
(PID.TID 0000.0001) > &
(PID.TID 0000.0001) ># Note: Some systems use & as the
(PID.TID 0000.0001) ># namelist terminator. Other systems
(PID.TID 0000.0001) ># use a / character (as shown here).
(PID.TID 0000.0001) 
(PID.TID 0000.0001) // =======================================================
(PID.TID 0000.0001) // Computational Grid Specification ( see files "SIZE.h" )
(PID.TID 0000.0001) //                                  ( and "eedata"       )
(PID.TID 0000.0001) // =======================================================
(PID.TID 0000.0001)      nPx =    1 ; /* No. processes in X */
(PID.TID 0000.0001)      nPy =    1 ; /* No. processes in Y */
(PID.TID 0000.0001)      nSx =    6 ; /* No. tiles in X per process */
(PID.TID 0000.0001)      nSy =    1 ; /* No. tiles in Y per process */
(PID.TID 0000.0001)      sNx =   32 ; /* Tile size in X */
(PID.TID 0000.0001)      sNy =   32 ; /* Tile size in Y */
(PID.TID 0000.0001)      OLx =    4 ; /* Tile overlap distance in X */
(PID.TID 0000.0001)      OLy =    4 ; /* Tile overlap distance in Y */
(PID.TID 0000.0001)      nTx =    1 ; /* No. threads in X per process */
(PID.TID 0000.0001)      nTy =    1 ; /* No. threads in Y per process */
(PID.TID 0000.0001)       Nr =   15 ; /* No. levels in the vertical   */
(PID.TID 0000.0001)       nX =  192 ; /* Total domain size in X ( = nPx*nSx*sNx ) */
(PID.TID 0000.0001)       nY =   32 ; /* Total domain size in Y ( = nPy*nSy*sNy ) */
(PID.TID 0000.0001)   nTiles =    6 ; /* Total no. tiles per process ( = nSx*nSy ) */
(PID.TID 0000.0001)   nProcs =    1 ; /* Total no. processes ( = nPx*nPy ) */
(PID.TID 0000.0001) nThreads =    1 ; /* Total no. threads per process ( = nTx*nTy ) */
(PID.TID 0000.0001) usingMPI =    F ; /* Flag used to control whether MPI is in use */
(PID.TID 0000.0001)                   /*  note: To execute a program with MPI calls */
(PID.TID 0000.0001)                   /*  it must be launched appropriately e.g     */
(PID.TID 0000.0001)                   /*  "mpirun -np 64 ......"                    */
(PID.TID 0000.0001) useCoupler=   F ; /* Flag used to control communications with */
(PID.TID 0000.0001)                   /*  other model components, through a coupler */
(PID.TID 0000.0001) 
(PID.TID 0000.0001) // ======================================================
(PID.TID 0000.0001) // Mapping of tiles to threads
(PID.TID 0000.0001) // ======================================================
(PID.TID 0000.0001) // -o- Thread   1, tiles (   1:   6,   1:   1)
(PID.TID 0000.0001) 
(PID.TID 0000.0001) // ======================================================
(PID.TID 0000.0001) // Tile <-> Tile connectvity table
(PID.TID 0000.0001) // ======================================================
(PID.TID 0000.0001) // Tile number: 000001 (process no. = 000001)
(PID.TID 0000.0001) //        WEST: Tile = 000006, Process = 000001, Comm = put
(PID.TID 0000.0001) //                bi = 000006, bj = 000001
(PID.TID 0000.0001) //        EAST: Tile = 000002, Process = 000001, Comm = put
(PID.TID 0000.0001) //                bi = 000002, bj = 000001
(PID.TID 0000.0001) //       SOUTH: Tile = 000001, Process = 000001, Comm = put
(PID.TID 0000.0001) //                bi = 000001, bj = 000001
(PID.TID 0000.0001) //       NORTH: Tile = 000001, Process = 000001, Comm = put
(PID.TID 0000.0001) //                bi = 000001, bj = 000001
(PID.TID 0000.0001) // Tile number: 000002 (process no. = 000001)
(PID.TID 0000.0001) //        WEST: Tile = 000001, Process = 000001, Comm = put
(PID.TID 0000.0001) //                bi = 000001, bj = 000001
(PID.TID 0000.0001) //        EAST: Tile = 000003, Process = 000001, Comm = put
(PID.TID 0000.0001) //                bi = 000003, bj = 000001
(PID.TID 0000.0001) //       SOUTH: Tile = 000002, Process = 000001, Comm = put
(PID.TID 0000.0001) //                bi = 000002, bj = 000001
(PID.TID 0000.0001) //       NORTH: Tile = 000002, Process = 000001, Comm = put
(PID.TID 0000.0001) //                bi = 000002, bj = 000001
(PID.TID 0000.0001) // Tile number: 000003 (process no. = 000001)
(PID.TID 0000.0001) //        WEST: Tile = 000002, Process = 000001, Comm = put
(PID.TID 0000.0001) //                bi = 000002, bj = 000001
(PID.TID 0000.0001) //        EAST: Tile = 000004, Process = 000001, Comm = put
(PID.TID 0000.0001) //                bi = 000004, bj = 000001
(PID.TID 0000.0001) //       SOUTH: Tile = 000003, Process = 000001, Comm = put
(PID.TID 0000.0001) //                bi = 000003, bj = 000001
(PID.TID 0000.0001) //       NORTH: Tile = 000003, Process = 000001, Comm = put
(PID.TID 0000.0001) //                bi = 000003, bj = 000001
(PID.TID 0000.0001) // Tile number: 000004 (process no. = 000001)
(PID.TID 0000.0001) //        WEST: Tile = 000003, Process = 000001, Comm = put
(PID.TID 0000.0001) //                bi = 000003, bj = 000001
(PID.TID 0000.0001) //        EAST: Tile = 000005, Process = 000001, Comm = put
(PID.TID 0000.0001) //                bi = 000005, bj = 000001
(PID.TID 0000.0001) //       SOUTH: Tile = 000004, Process = 000001, Comm = put
(PID.TID 0000.0001) //                bi = 000004, bj = 000001
(PID.TID 0000.0001) //       NORTH: Tile = 000004, Process = 000001, Comm = put
(PID.TID 0000.0001) //                bi = 000004, bj = 000001
(PID.TID 0000.0001) // Tile number: 000005 (process no. = 000001)
(PID.TID 0000.0001) //        WEST: Tile = 000004, Process = 000001, Comm = put
(PID.TID 0000.0001) //                bi = 000004, bj = 000001
(PID.TID 0000.0001) //        EAST: Tile = 000006, Process = 000001, Comm = put
(PID.TID 0000.0001) //                bi = 000006, bj = 000001
(PID.TID 0000.0001) //       SOUTH: Tile = 000005, Process = 000001, Comm = put
(PID.TID 0000.0001) //                bi = 000005, bj = 000001
(PID.TID 0000.0001) //       NORTH: Tile = 000005, Process = 000001, Comm = put
(PID.TID 0000.0001) //                bi = 000005, bj = 000001
(PID.TID 0000.0001) // Tile number: 000006 (process no. = 000001)
(PID.TID 0000.0001) //        WEST: Tile = 000005, Process = 000001, Comm = put
(PID.TID 0000.0001) //                bi = 000005, bj = 000001
(PID.TID 0000.0001) //        EAST: Tile = 000001, Process = 000001, Comm = put
(PID.TID 0000.0001) //                bi = 000001, bj = 000001
(PID.TID 0000.0001) //       SOUTH: Tile = 000006, Process = 000001, Comm = put
(PID.TID 0000.0001) //                bi = 000006, bj = 000001
(PID.TID 0000.0001) //       NORTH: Tile = 000006, Process = 000001, Comm = put
(PID.TID 0000.0001) //                bi = 000006, bj = 000001
(PID.TID 0000.0001) 
(PID.TID 0000.0001) ===== W2 TILE TOPLOGY =====
(PID.TID 0000.0001)  TILE:    1
(PID.TID 0000.0001)       NEIGHBOUR    1 = TILE    3 Comm = PUT ( PROC =    1)
(PID.TID 0000.0001)       NEIGHBOUR    2 = TILE    6 Comm = PUT ( PROC =    1)
(PID.TID 0000.0001)       NEIGHBOUR    3 = TILE    2 Comm = PUT ( PROC =    1)
(PID.TID 0000.0001)       NEIGHBOUR    4 = TILE    5 Comm = PUT ( PROC =    1)
(PID.TID 0000.0001)  TILE:    2
(PID.TID 0000.0001)       NEIGHBOUR    1 = TILE    3 Comm = PUT ( PROC =    1)
(PID.TID 0000.0001)       NEIGHBOUR    2 = TILE    6 Comm = PUT ( PROC =    1)
(PID.TID 0000.0001)       NEIGHBOUR    3 = TILE    4 Comm = PUT ( PROC =    1)
(PID.TID 0000.0001)       NEIGHBOUR    4 = TILE    1 Comm = PUT ( PROC =    1)
(PID.TID 0000.0001)  TILE:    3
(PID.TID 0000.0001)       NEIGHBOUR    1 = TILE    5 Comm = PUT ( PROC =    1)
(PID.TID 0000.0001)       NEIGHBOUR    2 = TILE    2 Comm = PUT ( PROC =    1)
(PID.TID 0000.0001)       NEIGHBOUR    3 = TILE    4 Comm = PUT ( PROC =    1)
(PID.TID 0000.0001)       NEIGHBOUR    4 = TILE    1 Comm = PUT ( PROC =    1)
(PID.TID 0000.0001)  TILE:    4
(PID.TID 0000.0001)       NEIGHBOUR    1 = TILE    5 Comm = PUT ( PROC =    1)
(PID.TID 0000.0001)       NEIGHBOUR    2 = TILE    2 Comm = PUT ( PROC =    1)
(PID.TID 0000.0001)       NEIGHBOUR    3 = TILE    6 Comm = PUT ( PROC =    1)
(PID.TID 0000.0001)       NEIGHBOUR    4 = TILE    3 Comm = PUT ( PROC =    1)
(PID.TID 0000.0001)  TILE:    5
(PID.TID 0000.0001)       NEIGHBOUR    1 = TILE    1 Comm = PUT ( PROC =    1)
(PID.TID 0000.0001)       NEIGHBOUR    2 = TILE    4 Comm = PUT ( PROC =    1)
(PID.TID 0000.0001)       NEIGHBOUR    3 = TILE    6 Comm = PUT ( PROC =    1)
(PID.TID 0000.0001)       NEIGHBOUR    4 = TILE    3 Comm = PUT ( PROC =    1)
(PID.TID 0000.0001)  TILE:    6
(PID.TID 0000.0001)       NEIGHBOUR    1 = TILE    1 Comm = PUT ( PROC =    1)
(PID.TID 0000.0001)       NEIGHBOUR    2 = TILE    4 Comm = PUT ( PROC =    1)
(PID.TID 0000.0001)       NEIGHBOUR    3 = TILE    2 Comm = PUT ( PROC =    1)
(PID.TID 0000.0001)       NEIGHBOUR    4 = TILE    5 Comm = PUT ( PROC =    1)
(PID.TID 0000.0001) Tile     1 (pr=   1) sends pts i=  36:  -3, j=  29:  32
(PID.TID 0000.0001)                         to pts i=  -3:   0, j=  -3:  36 in tile      3 (pr=   1)
(PID.TID 0000.0001) Tile     1 (pr=   1) sends pts i=  -3:  36, j=   1:   4
(PID.TID 0000.0001)                         to pts i=  -3:  36, j=  33:  36 in tile      6 (pr=   1)
(PID.TID 0000.0001) Tile     1 (pr=   1) sends pts i=  29:  32, j=  -3:  36
(PID.TID 0000.0001)                         to pts i=  -3:   0, j=  -3:  36 in tile      2 (pr=   1)
(PID.TID 0000.0001) Tile     1 (pr=   1) sends pts i=   1:   4, j=  36:  -3
(PID.TID 0000.0001)                         to pts i=  -3:  36, j=  33:  36 in tile      5 (pr=   1)
(PID.TID 0000.0001) Tile     2 (pr=   1) sends pts i=  -3:  36, j=  29:  32
(PID.TID 0000.0001)                         to pts i=  -3:  36, j=  -3:   0 in tile      3 (pr=   1)
(PID.TID 0000.0001) Tile     2 (pr=   1) sends pts i=  36:  -3, j=   1:   4
(PID.TID 0000.0001)                         to pts i=  33:  36, j=  -3:  36 in tile      6 (pr=   1)
(PID.TID 0000.0001) Tile     2 (pr=   1) sends pts i=  29:  32, j=  36:  -3
(PID.TID 0000.0001)                         to pts i=  -3:  36, j=  -3:   0 in tile      4 (pr=   1)
(PID.TID 0000.0001) Tile     2 (pr=   1) sends pts i=   1:   4, j=  -3:  36
(PID.TID 0000.0001)                         to pts i=  33:  36, j=  -3:  36 in tile      1 (pr=   1)
(PID.TID 0000.0001) Tile     3 (pr=   1) sends pts i=  36:  -3, j=  29:  32
(PID.TID 0000.0001)                         to pts i=  -3:   0, j=  -3:  36 in tile      5 (pr=   1)
(PID.TID 0000.0001) Tile     3 (pr=   1) sends pts i=  -3:  36, j=   1:   4
(PID.TID 0000.0001)                         to pts i=  -3:  36, j=  33:  36 in tile      2 (pr=   1)
(PID.TID 0000.0001) Tile     3 (pr=   1) sends pts i=  29:  32, j=  -3:  36
(PID.TID 0000.0001)                         to pts i=  -3:   0, j=  -3:  36 in tile      4 (pr=   1)
(PID.TID 0000.0001) Tile     3 (pr=   1) sends pts i=   1:   4, j=  36:  -3
(PID.TID 0000.0001)                         to pts i=  -3:  36, j=  33:  36 in tile      1 (pr=   1)
(PID.TID 0000.0001) Tile     4 (pr=   1) sends pts i=  -3:  36, j=  29:  32
(PID.TID 0000.0001)                         to pts i=  -3:  36, j=  -3:   0 in tile      5 (pr=   1)
(PID.TID 0000.0001) Tile     4 (pr=   1) sends pts i=  36:  -3, j=   1:   4
(PID.TID 0000.0001)                         to pts i=  33:  36, j=  -3:  36 in tile      2 (pr=   1)
(PID.TID 0000.0001) Tile     4 (pr=   1) sends pts i=  29:  32, j=  36:  -3
(PID.TID 0000.0001)                         to pts i=  -3:  36, j=  -3:   0 in tile      6 (pr=   1)
(PID.TID 0000.0001) Tile     4 (pr=   1) sends pts i=   1:   4, j=  -3:  36
(PID.TID 0000.0001)                         to pts i=  33:  36, j=  -3:  36 in tile      3 (pr=   1)
(PID.TID 0000.0001) Tile     5 (pr=   1) sends pts i=  36:  -3, j=  29:  32
(PID.TID 0000.0001)                         to pts i=  -3:   0, j=  -3:  36 in tile      1 (pr=   1)
(PID.TID 0000.0001) Tile     5 (pr=   1) sends pts i=  -3:  36, j=   1:   4
(PID.TID 0000.0001)                         to pts i=  -3:  36, j=  33:  36 in tile      4 (pr=   1)
(PID.TID 0000.0001) Tile     5 (pr=   1) sends pts i=  29:  32, j=  -3:  36
(PID.TID 0000.0001)                         to pts i=  -3:   0, j=  -3:  36 in tile      6 (pr=   1)
(PID.TID 0000.0001) Tile     5 (pr=   1) sends pts i=   1:   4, j=  36:  -3
(PID.TID 0000.0001)                         to pts i=  -3:  36, j=  33:  36 in tile      3 (pr=   1)
(PID.TID 0000.0001) Tile     6 (pr=   1) sends pts i=  -3:  36, j=  29:  32
(PID.TID 0000.0001)                         to pts i=  -3:  36, j=  -3:   0 in tile      1 (pr=   1)
(PID.TID 0000.0001) Tile     6 (pr=   1) sends pts i=  36:  -3, j=   1:   4
(PID.TID 0000.0001)                         to pts i=  33:  36, j=  -3:  36 in tile      4 (pr=   1)
(PID.TID 0000.0001) Tile     6 (pr=   1) sends pts i=  29:  32, j=  36:  -3
(PID.TID 0000.0001)                         to pts i=  -3:  36, j=  -3:   0 in tile      2 (pr=   1)
(PID.TID 0000.0001) Tile     6 (pr=   1) sends pts i=   1:   4, j=  -3:  36
(PID.TID 0000.0001)                         to pts i=  33:  36, j=  -3:  36 in tile      5 (pr=   1)
(PID.TID 0000.0001) Tile     1 (pr=   1) recv pts i=  -3:  36, j=  33:  36 from tile     3 (pr=   1)
(PID.TID 0000.0001) Tile     1 (pr=   1) recv pts i=  -3:  36, j=  -3:   0 from tile     6 (pr=   1)
(PID.TID 0000.0001) Tile     1 (pr=   1) recv pts i=  33:  36, j=  -3:  36 from tile     2 (pr=   1)
(PID.TID 0000.0001) Tile     1 (pr=   1) recv pts i=  -3:   0, j=  -3:  36 from tile     5 (pr=   1)
(PID.TID 0000.0001) Tile     2 (pr=   1) recv pts i=  -3:  36, j=  33:  36 from tile     3 (pr=   1)
(PID.TID 0000.0001) Tile     2 (pr=   1) recv pts i=  -3:  36, j=  -3:   0 from tile     6 (pr=   1)
(PID.TID 0000.0001) Tile     2 (pr=   1) recv pts i=  33:  36, j=  -3:  36 from tile     4 (pr=   1)
(PID.TID 0000.0001) Tile     2 (pr=   1) recv pts i=  -3:   0, j=  -3:  36 from tile     1 (pr=   1)
(PID.TID 0000.0001) Tile     3 (pr=   1) recv pts i=  -3:  36, j=  33:  36 from tile     5 (pr=   1)
(PID.TID 0000.0001) Tile     3 (pr=   1) recv pts i=  -3:  36, j=  -3:   0 from tile     2 (pr=   1)
(PID.TID 0000.0001) Tile     3 (pr=   1) recv pts i=  33:  36, j=  -3:  36 from tile     4 (pr=   1)
(PID.TID 0000.0001) Tile     3 (pr=   1) recv pts i=  -3:   0, j=  -3:  36 from tile     1 (pr=   1)
(PID.TID 0000.0001) Tile     4 (pr=   1) recv pts i=  -3:  36, j=  33:  36 from tile     5 (pr=   1)
(PID.TID 0000.0001) Tile     4 (pr=   1) recv pts i=  -3:  36, j=  -3:   0 from tile     2 (pr=   1)
(PID.TID 0000.0001) Tile     4 (pr=   1) recv pts i=  33:  36, j=  -3:  36 from tile     6 (pr=   1)
(PID.TID 0000.0001) Tile     4 (pr=   1) recv pts i=  -3:   0, j=  -3:  36 from tile     3 (pr=   1)
(PID.TID 0000.0001) Tile     5 (pr=   1) recv pts i=  -3:  36, j=  33:  36 from tile     1 (pr=   1)
(PID.TID 0000.0001) Tile     5 (pr=   1) recv pts i=  -3:  36, j=  -3:   0 from tile     4 (pr=   1)
(PID.TID 0000.0001) Tile     5 (pr=   1) recv pts i=  33:  36, j=  -3:  36 from tile     6 (pr=   1)
(PID.TID 0000.0001) Tile     5 (pr=   1) recv pts i=  -3:   0, j=  -3:  36 from tile     3 (pr=   1)
(PID.TID 0000.0001) Tile     6 (pr=   1) recv pts i=  -3:  36, j=  33:  36 from tile     1 (pr=   1)
(PID.TID 0000.0001) Tile     6 (pr=   1) recv pts i=  -3:  36, j=  -3:   0 from tile     4 (pr=   1)
(PID.TID 0000.0001) Tile     6 (pr=   1) recv pts i=  33:  36, j=  -3:  36 from tile     2 (pr=   1)
(PID.TID 0000.0001) Tile     6 (pr=   1) recv pts i=  -3:   0, j=  -3:  36 from tile     5 (pr=   1)
(PID.TID 0000.0001) // =======================================================
(PID.TID 0000.0001) // Model parameter file "data"
(PID.TID 0000.0001) // =======================================================
(PID.TID 0000.0001) ># ====================
(PID.TID 0000.0001) ># | Model parameters |
(PID.TID 0000.0001) ># ====================
(PID.TID 0000.0001) >#
(PID.TID 0000.0001) ># Continuous equation parameters
(PID.TID 0000.0001) > &PARM01
(PID.TID 0000.0001) > tRef=15*20.,
(PID.TID 0000.0001) > sRef=15*35.,
(PID.TID 0000.0001) > viscAh =3.E5,
(PID.TID 0000.0001) >#- biharmonic Viscosity: 3.e15 is close to the stability limit with deltaTmom=20mn
(PID.TID 0000.0001) >#viscA4 =3.E15,
(PID.TID 0000.0001) > viscAr =1.E-3,
(PID.TID 0000.0001) > diffKhT=0.,
(PID.TID 0000.0001) > diffK4T=0.,
(PID.TID 0000.0001) > diffKrT=3.E-5,
(PID.TID 0000.0001) > diffKhS=0.,
(PID.TID 0000.0001) > diffK4S=0.,
(PID.TID 0000.0001) > diffKrS=3.E-5,
(PID.TID 0000.0001) > ivdc_kappa=10.,
(PID.TID 0000.0001) > implicitDiffusion=.TRUE.,
(PID.TID 0000.0001) > rotationPeriod=86400.,
(PID.TID 0000.0001) > gravity=9.81,
(PID.TID 0000.0001) > rhonil=1035.,
(PID.TID 0000.0001) > rhoConstFresh=1000.,
(PID.TID 0000.0001) > eosType='JMD95Z',
(PID.TID 0000.0001) > staggerTimeStep=.TRUE.,
(PID.TID 0000.0001) > vectorInvariantMomentum=.TRUE.,
(PID.TID 0000.0001) > implicitFreeSurface=.TRUE.,
(PID.TID 0000.0001) > tempAdvScheme=30,
(PID.TID 0000.0001) > saltAdvScheme=30,
(PID.TID 0000.0001) ># exactConserv=.TRUE.,
(PID.TID 0000.0001) ># select_rStar=2,
(PID.TID 0000.0001) ># nonlinFreeSurf=4,
(PID.TID 0000.0001) > hFacInf=0.2,
(PID.TID 0000.0001) > hFacSup=2.0,
(PID.TID 0000.0001) ># useRealFreshWaterFlux=.TRUE.,
(PID.TID 0000.0001) > allowFreezing=.TRUE.,
(PID.TID 0000.0001) > hFacMin=.1,
(PID.TID 0000.0001) > hFacMinDr=20.,
(PID.TID 0000.0001) > readBinaryPrec=64,
(PID.TID 0000.0001) > &
(PID.TID 0000.0001) >
(PID.TID 0000.0001) ># Elliptic solver parameters
(PID.TID 0000.0001) > &PARM02
(PID.TID 0000.0001) > cg2dMaxIters=200,
(PID.TID 0000.0001) >#cg2dTargetResidual=1.E-9,
(PID.TID 0000.0001) > cg2dTargetResWunit=1.E-14,
(PID.TID 0000.0001) > &
(PID.TID 0000.0001) >
(PID.TID 0000.0001) ># Time stepping parameters
(PID.TID 0000.0001) > &PARM03
(PID.TID 0000.0001) > nIter0=72000,
(PID.TID 0000.0001) ># nIter0=0,
(PID.TID 0000.0001) ># nTimeSteps=365,
(PID.TID 0000.0001) > nTimeSteps=20,
(PID.TID 0000.0001) > deltaTmom   =1200.,
(PID.TID 0000.0001) > deltaTtracer=86400.,
(PID.TID 0000.0001) > deltaTfreesurf=86400.,
(PID.TID 0000.0001) > deltaTClock =86400.,
(PID.TID 0000.0001) > abEps = 0.1,
(PID.TID 0000.0001) >#forcing_In_AB=.FALSE.,
(PID.TID 0000.0001) > tracForcingOutAB=1,
(PID.TID 0000.0001) > pChkptFreq  =1728000.,
(PID.TID 0000.0001) ># chkptFreq   =864000.,
(PID.TID 0000.0001) ># taveFreq    =1244160000.,
(PID.TID 0000.0001) ># dumpFreq    =6307200.,
(PID.TID 0000.0001) ># adjDumpFreq  =6307200.,
(PID.TID 0000.0001) > dumpFreq    =86400.,
(PID.TID 0000.0001) ># adjDumpFreq  =86400.,
(PID.TID 0000.0001) ># monitorFreq =31104000.,
(PID.TID 0000.0001) > periodicExternalForcing=.TRUE.,
(PID.TID 0000.0001) > externForcingPeriod=2592000.,
(PID.TID 0000.0001) > externForcingCycle=31104000.,
(PID.TID 0000.0001) ># 2 months restoring timescale for temperature
(PID.TID 0000.0001) > tauThetaClimRelax = 5184000.,
(PID.TID 0000.0001) ># 2yrs restoring timescale for salinity
(PID.TID 0000.0001) > tauSaltClimRelax = 62208000.,
(PID.TID 0000.0001) > monitorFreq =1.,
(PID.TID 0000.0001) > adjMonitorFreq =1.,
(PID.TID 0000.0001) > pickupStrictlyMatch=.FALSE.,
(PID.TID 0000.0001) > &
(PID.TID 0000.0001) >
(PID.TID 0000.0001) ># Gridding parameters
(PID.TID 0000.0001) > &PARM04
(PID.TID 0000.0001) > usingCurvilinearGrid=.TRUE.,
(PID.TID 0000.0001) > horizGridFile='grid_cs32',
(PID.TID 0000.0001) > delR= 50., 70., 100., 140., 190.,
(PID.TID 0000.0001) >       240., 290., 340., 390., 440.,
(PID.TID 0000.0001) >       490., 540., 590., 640., 690.,
(PID.TID 0000.0001) > &
(PID.TID 0000.0001) >
(PID.TID 0000.0001) ># Input datasets
(PID.TID 0000.0001) > &PARM05
(PID.TID 0000.0001) > bathyFile      ='bathy_Hmin50.bin',
(PID.TID 0000.0001) > hydrogThetaFile='lev_T_cs_15k.bin',
(PID.TID 0000.0001) > hydrogSaltFile ='lev_S_cs_15k.bin',
(PID.TID 0000.0001) > zonalWindFile  ='trenberth_taux.bin',
(PID.TID 0000.0001) > meridWindFile  ='trenberth_tauy.bin',
(PID.TID 0000.0001) > thetaClimFile  ='lev_surfT_cs_12m.bin',
(PID.TID 0000.0001) > saltClimFile   ='lev_surfS_cs_12m.bin',
(PID.TID 0000.0001) > surfQFile      ='shiQnet_cs32.bin',
(PID.TID 0000.0001) > EmPmRFile      ='shiEmPR_cs32.bin',
(PID.TID 0000.0001) > &
(PID.TID 0000.0001) 
(PID.TID 0000.0001) S/R INI_PARMS ; starts to read PARM01
(PID.TID 0000.0001) S/R INI_PARMS ; read PARM01 : OK
(PID.TID 0000.0001) S/R INI_PARMS ; starts to read PARM02
(PID.TID 0000.0001) S/R INI_PARMS ; read PARM02 : OK
(PID.TID 0000.0001) S/R INI_PARMS ; starts to read PARM03
(PID.TID 0000.0001) S/R INI_PARMS ; read PARM03 : OK
(PID.TID 0000.0001) S/R INI_PARMS ; starts to read PARM04
(PID.TID 0000.0001) S/R INI_PARMS ; read PARM04 : OK
(PID.TID 0000.0001) S/R INI_PARMS ; starts to read PARM05
(PID.TID 0000.0001) S/R INI_PARMS ; read PARM05 : OK
(PID.TID 0000.0001)  PACKAGES_BOOT: opening data.pkg
(PID.TID 0000.0001)  OPEN_COPY_DATA_FILE: opening file data.pkg
(PID.TID 0000.0001) // =======================================================
(PID.TID 0000.0001) // Parameter file "data.pkg"
(PID.TID 0000.0001) // =======================================================
(PID.TID 0000.0001) ># Packages
(PID.TID 0000.0001) > &PACKAGES
(PID.TID 0000.0001) > useGMRedi=.TRUE.,
(PID.TID 0000.0001) >#useDiagnostics=.TRUE.,
(PID.TID 0000.0001) >#useMNC=.TRUE.,
(PID.TID 0000.0001) > useGrdchk=.TRUE.,
(PID.TID 0000.0001) > &
(PID.TID 0000.0001) 
(PID.TID 0000.0001)  PACKAGES_BOOT: finished reading data.pkg
(PID.TID 0000.0001)  GM_READPARMS: opening data.gmredi
(PID.TID 0000.0001)  OPEN_COPY_DATA_FILE: opening file data.gmredi
(PID.TID 0000.0001) // =======================================================
(PID.TID 0000.0001) // Parameter file "data.gmredi"
(PID.TID 0000.0001) // =======================================================
(PID.TID 0000.0001) ># GM+Redi package parameters:
(PID.TID 0000.0001) >#     GM_Small_Number  :: epsilon used in computing the slope
(PID.TID 0000.0001) >#     GM_slopeSqCutoff :: slope^2 cut-off value
(PID.TID 0000.0001) >
(PID.TID 0000.0001) >#-from MOM :
(PID.TID 0000.0001) ># GM_background_K: 	G & Mc.W  diffusion coefficient
(PID.TID 0000.0001) ># GM_maxSlope    :	max slope of isopycnals
(PID.TID 0000.0001) ># GM_Scrit       :	transition for scaling diffusion coefficient
(PID.TID 0000.0001) ># GM_Sd          :	half width scaling for diffusion coefficient
(PID.TID 0000.0001) ># GM_taper_scheme:	slope clipping or one of the tapering schemes
(PID.TID 0000.0001) ># GM_Kmin_horiz  :	horizontal diffusion minimum value
(PID.TID 0000.0001) >
(PID.TID 0000.0001) >#-Option parameters (needs to "define" options in GMREDI_OPTIONS.h")
(PID.TID 0000.0001) ># GM_isopycK     :	isopycnal diffusion coefficient (default=GM_background_K)
(PID.TID 0000.0001) ># GM_AdvForm     :	turn on GM Advective form       (default=Skew flux form)
(PID.TID 0000.0001) >
(PID.TID 0000.0001) > &GM_PARM01
(PID.TID 0000.0001) >  GM_Small_Number  = 1.D-20,
(PID.TID 0000.0001) >  GM_slopeSqCutoff = 1.D+08,
(PID.TID 0000.0001) >  GM_AdvForm         = .FALSE.,
(PID.TID 0000.0001) >  GM_background_K    = 1.D+3,
(PID.TID 0000.0001) >  GM_taper_scheme    = 'dm95',
(PID.TID 0000.0001) >  GM_maxSlope        = 1.D-2,
(PID.TID 0000.0001) >  GM_Kmin_horiz      = 50.,
(PID.TID 0000.0001) >  GM_Scrit           = 4.D-3,
(PID.TID 0000.0001) >  GM_Sd              = 1.D-3,
(PID.TID 0000.0001) >#  GM_Visbeck_alpha   = 1.5D-2,
(PID.TID 0000.0001) >  GM_Visbeck_alpha   = 0.,
(PID.TID 0000.0001) >  GM_Visbeck_length  = 2.D+5,
(PID.TID 0000.0001) >  GM_Visbeck_depth   = 1.D+3,
(PID.TID 0000.0001) >  GM_Visbeck_maxval_K= 2.5D+3,
(PID.TID 0000.0001) > &
(PID.TID 0000.0001) >
(PID.TID 0000.0001) >
(PID.TID 0000.0001) 
(PID.TID 0000.0001)  GM_READPARMS: finished reading data.gmredi
(PID.TID 0000.0001) OPTIM_READPARMS: opening data.optim
(PID.TID 0000.0001)  OPEN_COPY_DATA_FILE: opening file data.optim
(PID.TID 0000.0001) // =======================================================
(PID.TID 0000.0001) // Parameter file "data.optim"
(PID.TID 0000.0001) // =======================================================
(PID.TID 0000.0001) > &OPTIM
(PID.TID 0000.0001) > optimcycle=0,
(PID.TID 0000.0001) > /
(PID.TID 0000.0001) 
(PID.TID 0000.0001) OPTIM_READPARMS: finished reading data.optim
(PID.TID 0000.0001) CTRL_READPARMS: opening data.ctrl
(PID.TID 0000.0001)  OPEN_COPY_DATA_FILE: opening file data.ctrl
(PID.TID 0000.0001) // =======================================================
(PID.TID 0000.0001) // Parameter file "data.ctrl"
(PID.TID 0000.0001) // =======================================================
(PID.TID 0000.0001) >#
(PID.TID 0000.0001) >#
(PID.TID 0000.0001) ># *********************
(PID.TID 0000.0001) ># ECCO controlvariables
(PID.TID 0000.0001) ># *********************
(PID.TID 0000.0001) > &CTRL_NML
(PID.TID 0000.0001) > xx_theta_file      ='xx_theta',
(PID.TID 0000.0001) > xx_salt_file       ='xx_salt',
(PID.TID 0000.0001) >#
(PID.TID 0000.0001) > xx_hfluxstartdate1 = 19790101,
(PID.TID 0000.0001) > xx_hfluxstartdate2 = 000000,
(PID.TID 0000.0001) > xx_hfluxperiod     = 864000.0,
(PID.TID 0000.0001) > xx_hflux_file      = 'xx_hfl',
(PID.TID 0000.0001) >#
(PID.TID 0000.0001) > xx_sfluxstartdate1 = 19790101,
(PID.TID 0000.0001) > xx_sfluxstartdate2 = 000000,
(PID.TID 0000.0001) > xx_sfluxperiod     = 864000.0,
(PID.TID 0000.0001) > xx_sflux_file      = 'xx_sfl',
(PID.TID 0000.0001) >#
(PID.TID 0000.0001) > xx_tauustartdate1 = 19790101,
(PID.TID 0000.0001) > xx_tauustartdate2 = 000000,
(PID.TID 0000.0001) > xx_tauuperiod     = 864000.0,
(PID.TID 0000.0001) > xx_tauu_file      = 'xx_tauu',
(PID.TID 0000.0001) >#
(PID.TID 0000.0001) > xx_tauvstartdate1 = 19790101,
(PID.TID 0000.0001) > xx_tauvstartdate2 = 000000,
(PID.TID 0000.0001) > xx_tauvperiod     = 864000.0,
(PID.TID 0000.0001) > xx_tauv_file      = 'xx_tauv',
(PID.TID 0000.0001) >#
(PID.TID 0000.0001) > xx_atempstartdate1 = 19790101,
(PID.TID 0000.0001) > xx_atempstartdate2 = 000000,
(PID.TID 0000.0001) > xx_atempperiod     = 864000.0,
(PID.TID 0000.0001) > xx_atemp_file      = 'xx_atemp',
(PID.TID 0000.0001) >#
(PID.TID 0000.0001) > xx_aqhstartdate1 = 19790101,
(PID.TID 0000.0001) > xx_aqhstartdate2 = 000000,
(PID.TID 0000.0001) > xx_aqhperiod     = 864000.0,
(PID.TID 0000.0001) > xx_aqh_file      = 'xx_aqh',
(PID.TID 0000.0001) >#
(PID.TID 0000.0001) > xx_precipstartdate1 = 19790101,
(PID.TID 0000.0001) > xx_precipstartdate2 = 000000,
(PID.TID 0000.0001) > xx_precipperiod     = 864000.0,
(PID.TID 0000.0001) > xx_precip_file      = 'xx_precip',
(PID.TID 0000.0001) >#
(PID.TID 0000.0001) > xx_swdownstartdate1 = 19790101,
(PID.TID 0000.0001) > xx_swdownstartdate2 = 000000,
(PID.TID 0000.0001) > xx_swdownperiod     = 864000.0,
(PID.TID 0000.0001) > xx_swdown_file      = 'xx_swdown',
(PID.TID 0000.0001) >#
(PID.TID 0000.0001) > xx_uwindstartdate1 = 19790101,
(PID.TID 0000.0001) > xx_uwindstartdate2 = 000000,
(PID.TID 0000.0001) > xx_uwindperiod     = 864000.0,
(PID.TID 0000.0001) > xx_uwind_file      = 'xx_uwind',
(PID.TID 0000.0001) >#
(PID.TID 0000.0001) > xx_vwindstartdate1 = 19790101,
(PID.TID 0000.0001) > xx_vwindstartdate2 = 000000,
(PID.TID 0000.0001) > xx_vwindperiod     = 864000.0,
(PID.TID 0000.0001) > xx_vwind_file      = 'xx_vwind',
(PID.TID 0000.0001) >#
(PID.TID 0000.0001) > xx_sststartdate1 = 19790101,
(PID.TID 0000.0001) > xx_sststartdate2 = 000000,
(PID.TID 0000.0001) > xx_sstperiod     = 864000.0,
(PID.TID 0000.0001) > xx_sst_file      = 'xx_sst',
(PID.TID 0000.0001) >#
(PID.TID 0000.0001) > xx_sssstartdate1 = 19790101,
(PID.TID 0000.0001) > xx_sssstartdate2 = 000000,
(PID.TID 0000.0001) > xx_sssperiod     = 864000.0,
(PID.TID 0000.0001) > xx_sss_file      = 'xx_sss',
(PID.TID 0000.0001) > &
(PID.TID 0000.0001) >#
(PID.TID 0000.0001) ># *********************
(PID.TID 0000.0001) ># names for ctrl_pack/unpack
(PID.TID 0000.0001) ># *********************
(PID.TID 0000.0001) > &CTRL_PACKNAMES
(PID.TID 0000.0001) > &
(PID.TID 0000.0001) 
(PID.TID 0000.0001) CTRL_READPARMS: finished reading data.ctrl
(PID.TID 0000.0001) COST_READPARMS: opening data.cost
(PID.TID 0000.0001)  OPEN_COPY_DATA_FILE: opening file data.cost
(PID.TID 0000.0001) // =======================================================
(PID.TID 0000.0001) // Parameter file "data.cost"
(PID.TID 0000.0001) // =======================================================
(PID.TID 0000.0001) >#
(PID.TID 0000.0001) >#
(PID.TID 0000.0001) ># ******************
(PID.TID 0000.0001) ># cost function
(PID.TID 0000.0001) ># ******************
(PID.TID 0000.0001) > &COST_NML
(PID.TID 0000.0001) >#revert to default 1 month
(PID.TID 0000.0001) ># lastinterval=7776000.,
(PID.TID 0000.0001) > mult_test=1.,
(PID.TID 0000.0001) > &
(PID.TID 0000.0001) 
(PID.TID 0000.0001) COST_READPARMS: finished reading data.cost
(PID.TID 0000.0001) GRDCHK_READPARMS: opening data.grdchk
(PID.TID 0000.0001)  OPEN_COPY_DATA_FILE: opening file data.grdchk
(PID.TID 0000.0001) // =======================================================
(PID.TID 0000.0001) // Parameter file "data.grdchk"
(PID.TID 0000.0001) // =======================================================
(PID.TID 0000.0001) ># *******************
(PID.TID 0000.0001) ># ECCO gradient check
(PID.TID 0000.0001) ># *******************
(PID.TID 0000.0001) > &GRDCHK_NML
(PID.TID 0000.0001) > grdchk_eps       = 1.d-2,
(PID.TID 0000.0001) >#  iglopos         = 6,
(PID.TID 0000.0001) >#  jglopos         = 17,
(PID.TID 0000.0001) >#  kglopos         = 1,
(PID.TID 0000.0001) > nbeg             = 1,
(PID.TID 0000.0001) > nstep            = 1,
(PID.TID 0000.0001) > nend             = 4,
(PID.TID 0000.0001) > grdchkvarindex   = 1,
(PID.TID 0000.0001) > &
(PID.TID 0000.0001) 
(PID.TID 0000.0001) GRDCHK_READPARMS: finished reading data.grdchk
(PID.TID 0000.0001) 
(PID.TID 0000.0001) // =======================================================
(PID.TID 0000.0001) // Gradient check configuration  >>> START <<<
(PID.TID 0000.0001) // =======================================================
(PID.TID 0000.0001) 
(PID.TID 0000.0001)   eps:                              0.100E-01
(PID.TID 0000.0001)   First location:                           1
(PID.TID 0000.0001)   Last location:                            4
(PID.TID 0000.0001)   Increment:                                1
(PID.TID 0000.0001) 
(PID.TID 0000.0001) // =======================================================
(PID.TID 0000.0001) // Gradient check configuration  >>> END <<<
(PID.TID 0000.0001) // =======================================================
(PID.TID 0000.0001) 
(PID.TID 0000.0001) SET_PARMS: done
(PID.TID 0000.0001) Enter INI_VERTICAL_GRID: setInterFDr=    T ; setCenterDr=    F
(PID.TID 0000.0001) tile:   1 ; Read from file grid_cs32.face001.bin
(PID.TID 0000.0001)   => xC yC dxF dyF rA xG yG dxV dyU rAz dxC dyC rAw rAs dxG dyG AngleCS AngleSN
(PID.TID 0000.0001) tile:   2 ; Read from file grid_cs32.face002.bin
(PID.TID 0000.0001)   => xC yC dxF dyF rA xG yG dxV dyU rAz dxC dyC rAw rAs dxG dyG AngleCS AngleSN
(PID.TID 0000.0001) tile:   3 ; Read from file grid_cs32.face003.bin
(PID.TID 0000.0001)   => xC yC dxF dyF rA xG yG dxV dyU rAz dxC dyC rAw rAs dxG dyG AngleCS AngleSN
(PID.TID 0000.0001) tile:   4 ; Read from file grid_cs32.face004.bin
(PID.TID 0000.0001)   => xC yC dxF dyF rA xG yG dxV dyU rAz dxC dyC rAw rAs dxG dyG AngleCS AngleSN
(PID.TID 0000.0001) tile:   5 ; Read from file grid_cs32.face005.bin
(PID.TID 0000.0001)   => xC yC dxF dyF rA xG yG dxV dyU rAz dxC dyC rAw rAs dxG dyG AngleCS AngleSN
(PID.TID 0000.0001) tile:   6 ; Read from file grid_cs32.face006.bin
(PID.TID 0000.0001)   => xC yC dxF dyF rA xG yG dxV dyU rAz dxC dyC rAw rAs dxG dyG AngleCS AngleSN
(PID.TID 0000.0001) %MON XC_max                       =   1.7854351589505E+02
(PID.TID 0000.0001) %MON XC_min                       =  -1.7854351589505E+02
(PID.TID 0000.0001) %MON XC_mean                      =  -4.6999441375798E-15
(PID.TID 0000.0001) %MON XC_sd                        =   1.0355545336287E+02
(PID.TID 0000.0001) %MON XG_max                       =   1.8000000000000E+02
(PID.TID 0000.0001) %MON XG_min                       =  -1.7708797161002E+02
(PID.TID 0000.0001) %MON XG_mean                      =   1.8603515625000E+00
(PID.TID 0000.0001) %MON XG_sd                        =   1.0357130300504E+02
(PID.TID 0000.0001) %MON DXC_max                      =   3.2375185836900E+05
(PID.TID 0000.0001) %MON DXC_min                      =   1.1142031410131E+05
(PID.TID 0000.0001) %MON DXC_mean                     =   2.8605689051214E+05
(PID.TID 0000.0001) %MON DXC_sd                       =   3.4042087138252E+04
(PID.TID 0000.0001) %MON DXF_max                      =   3.2369947500827E+05
(PID.TID 0000.0001) %MON DXF_min                      =   1.2020820513318E+05
(PID.TID 0000.0001) %MON DXF_mean                     =   2.8605437324820E+05
(PID.TID 0000.0001) %MON DXF_sd                       =   3.4050524252539E+04
(PID.TID 0000.0001) %MON DXG_max                      =   3.2375195872773E+05
(PID.TID 0000.0001) %MON DXG_min                      =   1.0098378008791E+05
(PID.TID 0000.0001) %MON DXG_mean                     =   2.8603818508931E+05
(PID.TID 0000.0001) %MON DXG_sd                       =   3.4140406908005E+04
(PID.TID 0000.0001) %MON DXV_max                      =   3.2380418162750E+05
(PID.TID 0000.0001) %MON DXV_min                      =   8.0152299824136E+04
(PID.TID 0000.0001) %MON DXV_mean                     =   2.8603970633619E+05
(PID.TID 0000.0001) %MON DXV_sd                       =   3.4145142117723E+04
(PID.TID 0000.0001) %MON YC_max                       =   8.7940663871962E+01
(PID.TID 0000.0001) %MON YC_min                       =  -8.7940663871962E+01
(PID.TID 0000.0001) %MON YC_mean                      =   0.0000000000000E+00
(PID.TID 0000.0001) %MON YC_sd                        =   3.8676242969072E+01
(PID.TID 0000.0001) %MON YG_max                       =   9.0000000000000E+01
(PID.TID 0000.0001) %MON YG_min                       =  -9.0000000000000E+01
(PID.TID 0000.0001) %MON YG_mean                      =  -1.1842378929335E-15
(PID.TID 0000.0001) %MON YG_sd                        =   3.8676895860710E+01
(PID.TID 0000.0001) %MON DYC_max                      =   3.2375185836900E+05
(PID.TID 0000.0001) %MON DYC_min                      =   1.1142031410131E+05
(PID.TID 0000.0001) %MON DYC_mean                     =   2.8605689051214E+05
(PID.TID 0000.0001) %MON DYC_sd                       =   3.4042087138252E+04
(PID.TID 0000.0001) %MON DYF_max                      =   3.2369947500827E+05
(PID.TID 0000.0001) %MON DYF_min                      =   1.2020820513318E+05
(PID.TID 0000.0001) %MON DYF_mean                     =   2.8605437324820E+05
(PID.TID 0000.0001) %MON DYF_sd                       =   3.4050524252539E+04
(PID.TID 0000.0001) %MON DYG_max                      =   3.2375195872773E+05
(PID.TID 0000.0001) %MON DYG_min                      =   1.0098378008791E+05
(PID.TID 0000.0001) %MON DYG_mean                     =   2.8603818508931E+05
(PID.TID 0000.0001) %MON DYG_sd                       =   3.4140406908005E+04
(PID.TID 0000.0001) %MON DYU_max                      =   3.2380418162750E+05
(PID.TID 0000.0001) %MON DYU_min                      =   8.0152299824136E+04
(PID.TID 0000.0001) %MON DYU_mean                     =   2.8603970633619E+05
(PID.TID 0000.0001) %MON DYU_sd                       =   3.4145142117723E+04
(PID.TID 0000.0001) %MON RA_max                       =   1.0479260248419E+11
(PID.TID 0000.0001) %MON RA_min                       =   1.4019007022556E+10
(PID.TID 0000.0001) %MON RA_mean                      =   8.2992246709265E+10
(PID.TID 0000.0001) %MON RA_sd                        =   1.7509089299457E+10
(PID.TID 0000.0001) %MON RAW_max                      =   1.0480965274559E+11
(PID.TID 0000.0001) %MON RAW_min                      =   1.2166903467143E+10
(PID.TID 0000.0001) %MON RAW_mean                     =   8.2992246709235E+10
(PID.TID 0000.0001) %MON RAW_sd                       =   1.7481917919656E+10
(PID.TID 0000.0001) %MON RAS_max                      =   1.0480965274559E+11
(PID.TID 0000.0001) %MON RAS_min                      =   1.2166903467143E+10
(PID.TID 0000.0001) %MON RAS_mean                     =   8.2992246709235E+10
(PID.TID 0000.0001) %MON RAS_sd                       =   1.7481917919656E+10
(PID.TID 0000.0001) %MON RAZ_max                      =   1.0484349334619E+11
(PID.TID 0000.0001) %MON RAZ_min                      =   8.8317900612505E+09
(PID.TID 0000.0001) %MON RAZ_mean                     =   8.2992246709235E+10
(PID.TID 0000.0001) %MON RAZ_sd                       =   1.7482297311044E+10
(PID.TID 0000.0001) %MON AngleCS_max                  =   9.9999994756719E-01
(PID.TID 0000.0001) %MON AngleCS_min                  =  -9.9968286884824E-01
(PID.TID 0000.0001) %MON AngleCS_mean                 =   3.3078850405987E-01
(PID.TID 0000.0001) %MON AngleCS_sd                   =   6.2496317138039E-01
(PID.TID 0000.0001) %MON AngleSN_max                  =   9.9968286884824E-01
(PID.TID 0000.0001) %MON AngleSN_min                  =  -9.9999994756719E-01
(PID.TID 0000.0001) %MON AngleSN_mean                 =  -3.3078850405987E-01
(PID.TID 0000.0001) %MON AngleSN_sd                   =   6.2496317138039E-01
(PID.TID 0000.0001)  MDS_READ_FIELD: opening global file: bathy_Hmin50.bin
(PID.TID 0000.0001) // =======================================================
(PID.TID 0000.0001) // Field Model R_low (ini_masks_etc) at iteration          1
(PID.TID 0000.0001) // CMIN =         -5.200000000000000E+03
(PID.TID 0000.0001) // CMAX =         -5.000000000000000E+01
(PID.TID 0000.0001) // CINT =          1.907407407407407E+02
(PID.TID 0000.0001) // SYMBOLS (CMIN->CMAX): -abcdefghijklmnopqrstuvwxyz+
(PID.TID 0000.0001) //                  0.0: .
(PID.TID 0000.0001) // RANGE I (Lo:Hi:Step):(  -3: 196:   1)
(PID.TID 0000.0001) // RANGE J (Lo:Hi:Step):(  36:  -3:  -1)
(PID.TID 0000.0001) // RANGE K (Lo:Hi:Step):(   1:   1:   1)
(PID.TID 0000.0001) // =======================================================
(PID.TID 0000.0001) K =   1
(PID.TID 0000.0001) //                I=6       I=16      I=26      I=36      I=38      I=48      I=58      I=68      I=70      I=80      I=90      I=100     I=102     I=112     I=122     I=132     I=134     I=144     I=154     I=164     I=166     I=176     I=186     I=196
(PID.TID 0000.0001) // |--J--|321012345|789012345|789012345|789012345|901234567|901234567|901234567|901234567|123456789|123456789|123456789|123456789|345678901|345678901|345678901|345678901|567890123|567890123|567890123|567890123|789012345|789012345|789012345|789012345|
(PID.TID 0000.0001) //     36 cbbc-ddcbcdehkhhmn..++..................................................okn.skko--a-fc----bba-cp.............tfeecccbbdeecccbbdeddedcdcccdddcddffggghiggfffdeeffijlihjlica---a--cgffel.+edfgeedflcbahgfllcbahgfllfhdffhkfffca-aady...llnabdoa--a
(PID.TID 0000.0001) //     35 dcac--cbbeefjkfefw+..........zpu........................................kqnzrqqk--b-da----bbbbfu..............fdddccaadcddccaadcdddcbbbbcdddcccdffffghgffffddefflligfiljfba---aafddehy...pwvlhfffcbagfccfcbagfcceeffffjlkjgaa---bfvheeln-aesaaab
(PID.TID 0000.0001) //     34 d--ba-abcehjnldcclz+........spps.......................................vkqn+xnnncabbcbba--aabfu+..............hcbaaaaaccbaaaaaccdccbaaabbddddccdffffghfeeeeedeffjiffefilhfcaaaacgceei.......zomggfcaecbbgfcaecbbccddefilihecbaacbaajfega-aesfeed
(PID.TID 0000.0001) //     33 --abbbccceiomkfdbbc+.......+s..........................................xsrxzz+z.fdcddb-----adu+...............hcbaa--accbaa--accddba--bbbddddccdfffhhgfeeddcceddhfeddfgikhfffdfgccffw........zohhgebbaaahgebbaaaaaccdfhlhfefdcccaabjefbaaafoosso
(PID.TID 0000.0001) //     32 --bddefhhkqqlgfaakqz..v.+..+.........................................++..u+....zigfdba----adu+................kdcaaa-acccaaa-accdcb---bbbcdddddefffggfeeedcccccbccbbdcdfgghhiihcbeiw.........+ynjgebaaaajgebaaaa-aacccfikkhecccbbbaaabaadfklnqpp
(PID.TID 0000.0001) //     31 abbcffijnpnqneaaat..umrr+s.z.........................................+++++.ztsvdlifeb--dfdfu+................+lkdca--abcdca--abcccb---bbbbddddeffflhfeeeecbbbbaaba-abbacbcdceffbbfw+..........++ujfbaaa-ujfbaaa----aacffiljgfffcca--adfikkiihhhf
(PID.TID 0000.0001) //     30 --adgillkkkifcadcx.ymmqzqikvnnps.....................................+++++wmegt-jlifcacdlqx+++...............mligea---abgea---abbbb---abaaddddeedkmeddefdbbbaaaabc---b--aaaaabaabm..............+viba---+viba-------acdefinmlgiieb-chnnnmlmlgffc
(PID.TID 0000.0001) //     29 --cfiljigfjd--efdozy...+ximpnnuz......................................+++yqddhp-iljhcbbchz+......++.........+mmhffc----affc----aaba------acdddcbcineddgdbaaa----cdd--a------aa-bfz...............+qe---a.+qe---aa---aedeegknmlgiigcdfhpokkimlfdb
(PID.TID 0000.0001) //     28 -abgkhfcccea-bdei........t............................................++zwgfcfk-gknhccbbhwwy.....+++........+njfeed-----eed-----aa-------abddcabcnfddegcaaa-----hlf------------dk+................+ja---..+ja------bffdddehfd--bedaacfhpnligiihd
(PID.TID 0000.0001) //     27 -acghfbaaaa-achmy......................+.......+++....................++vnbbbclefkpkeeecflmqxy....++........+lhfeecc----eecc------------aaadcbabcfhddccba-------zqd-----------irw.................++e---..++e-----mhmijddda--------ahhfiokhedegg
(PID.TID 0000.0001) //     26 -adhfca-----bfiv.......................+.......++sy...................+tq-fdbblcjknqiheddefhiksz++++........zkhfdccb----dccb------------aabdcaaaacfddbca-------a+xfa-abb-----vvv...................+wa--...+wa---mlmkijhc----------cjjffiheb-aad
(PID.TID 0000.0001) //     25 -achfa------ch+..................w.......w.......njo+................+x-----bcgidiqqojfefiiiijmy.++.........zkhfdbaa----dbaa-------daa---acccaaaacccca--------ac.+udaabbb----tei...................++qde...++qdeqnghiljcaaaaidaa----beedeeca--bb
(PID.TID 0000.0001) //     24 aaeifa--acbcei...................w.......w.......likn+.....++.....++znpa----bbdi-fnlmnjhinlksssw............qhfeca------ca--------addc--aeffaaaaaaccb-a----a--bd.++udbbaba---ven....................++xy....++xywnfgllcbbabegkecba----ddddcaacdc
(PID.TID 0000.0001) //     23 abfida-aabchjk...................zz......zz.....nhhijz....tqq.....+ujgzgd---abci-cegklkkknols..xuu..........zgfdba------ba--------bcd---affaaadffabbb-----aa-bcc.+.+ufb-----l.gx...........s.........++z.....++zzkfilfccccoz..ulkcd---bccnfddddd
(PID.TID 0000.0001) //     22 -afhfaa---bfgi....................zz..rn..zz..rnjffggm...nlmn+....+sffzya--aabcieaaffdfhimrmp...yuu.++.......zudba------ba--------adc---dda-adffe-aa--------aaac....+ufc-baaqvhh..........dcfeeh......++......++zggqvifefhz......zobbaccfwuffeee
(PID.TID 0000.0001) //     21 babcgca----abe.....................ysstl...ysstlgeeeeoz..ijklt+....lfjzzf---adfcfdaadcehllotq....yy+++zzs.....+zcba-----cba-------cdd--aaa----df------------aaac.....+upjdcy.vohq.......+idcdfeeefwz....efwz....+hhn.vklox.........gdccfjwrigffh
(PID.TID 0000.0001) //     20 fbbbcgfcaa-aae+.......................lc......lcgfdddhq.+hiilnz++.+oquxyz--adgkfdcaabcfmtooyxz......+yuiiy....++gb------gb--------ddcca-a-----acbaa------bbaaaab........ywxy.lulo.lv...kcdgddffefffilyx+fffilyx+fffk.+xyyy.........mgeimvskjklll
(PID.TID 0000.0001) //     19 zmfeccdghfeegcbt......................aa......aafifccgnrzgghjry.+++sr+lq.--edfkkoxtkblwnnsp.vv......skhggt...+++t-------t---------bdaf---------edd-------adlaaaa+..........vnhzy.tllqiedccdhggfggffiiggfgffiiggfcbdgy..yz..........xigqophijkkii
(PID.TID 0000.0001) //     18 ..wifedfkhfegbbcivlqfoz..............jaa.....jaacfihggokeeffgt..++++..hhlfdeddkez..qcz+.zwxtsttz..ysrkhot++++++zig------ig--------b--f---------egqqqaa----frb---+........+kkrhw.vqmlnieddcdehgggffgigedbffgigedbaaceiy.............zilrddefikkhh
(PID.TID 0000.0001) //     17 ..+wfeefikhgcbbccaaacgn.............icaa....icaaccfihfoedddeedy..++...nnqwgfeekeyy.z++..+zsjjllllljllpjos+++.+zhhi-----ehi-----e-----ea--------foqqoqqo--hlwgea-.........+nk+..xiioonhfefddegihhghigfdbaghigfdbaaabdgx..............nheddefiklhg
(PID.TID 0000.0001) //     16 ....wiheddeccdfhfbabdfl............jdbad...jdbaddddgifkccccdccd+.++..++ynvz.tkkq.mu....++zyslllllkhggkmpy++...ihhi-----ehi-----ea---feb-----a-acnoohfghknvmwnuca..........qhu..hhhkojgffgeefghihhiieedbahiieedbaaabcdy..............ygddeghiljgf
(PID.TID 0000.0001) //     15 ......ylea--acfihebcbbes..........sfcbbn..sfcbbngfffigcaaabdbcac+.+++++zgmpx...y.mm....++..zslwz.yhhhhnz+++...rhgc----abgc----ab----ige----acaaalllkddfiy..yswxb..........thk.xgghiligfghfefhhhhiiheedcdiiheedcdbbabdmz.............zfdeghikkifd
(PID.TID 0000.0001) //     14 ........c---acgkhdcc--di..........ofddch..ofddchohffikaaaaabaaa-aw+.+ysnggox++...qrv..........yzzzzrjil+++....qhgd-----agd-----a-----i---cccdeabkklldinqssy..xxv...........+y.uhghikihgfghefgihhhgeeeeedhgeeeeeddbaadhw.............nedeghjjhfed
(PID.TID 0000.0001) //     13 .......+b----cfkhec---afz.........nhfdff..nhfdffholghkaaaaaba-a---flkkuswyy++++y+zr...........zzzzz++ry++......yd-------d--------------aeecdeidfkkqnqlmqquukqqmf..............iihiijjhfefgefhjihiffgggffiffgggffecaabelx...........zjecehijhfecc
(PID.TID 0000.0001) //     12 .......ec----chjhec---ag..........skiqdd..skiqddeiiiifaaabae--a---dd--iu+++.+++sxq++..........+z+++++.+++....++.s-------s------------a-ceccdejhlllkqlkklssiccdee.............wjkkkjjjigeefffgjiiighiiihhighiiihhhdaabdffghtxx......mfccehjiffdb-
(PID.TID 0000.0001) //     11 ......pdca--achlheba--ai..........nkn.fd..nkn.fdemijidaaaabi-------a--q+....++.ziis...........+++++..........+yyza----b-za----b-----a--ccccddkhieekkossssfbbbbcd............njjijhhihijhgggggjjjjijkkkkjjijkkkkjjhcaacddeegpy.....xfdccdhjgfdda-
(PID.TID 0000.0001) //     10 ......wfdb--achlhea---an.........uos..dc.uos..dcemikkfdcaabi-------equ+.........mk...........................zyvuq----ccuq----cc----a---dcfhkopqjeissrnpfbbcccde..........zslihhigghgijjihhhhkllkkkkkkjkkkkkkkjkkkedccdeeeeipz..zwhccbcdhgfddcam
(PID.TID 0000.0001) //      9 ......vgec---bfikca--cjl+.......+nnv.+cc+nnv.+ccffhkkiddaadha-----as++..........pvz++........................zxuuk------uk------a---a----djmqrrnlllsoiddcccccdjf.........+zjijhfgfggffhjkkkiillljihhghgijihhghgihighdeeffgghimnnjgecbbcdgfeccbas
(PID.TID 0000.0001) //      8 .....zleca---afjfca--hdfz.......vkky.jcevkky.jceddefijffdddhb--a-afv............nn..ss.........................+yku-----yku--------------ejnpqqnninnritqdccchkmf+.......wihgghgeffffeefhijkjkljiigeeffefigeeffefffhjhhikkklljklmhffeeeggfdcbaay.
(PID.TID 0000.0001) //      7 ...+zohec--abcfkhecbchbdx.......qiht.faaqiht.faaaabdgijgfededcdcb-f+............nn...pz.........................+zu-----+zu--------------edefqgqddsz+......+yuddmm+....tiggfggfeeeefeeefiiiijkiihhedddddhheddddddddjjllliijhfkmmkkjjhijgdcba--q.
(PID.TID 0000.0001) //      6 ..+yomfddcaabefkifdchaadt......uqdeisc--qdeisc----dfefgifffkklldc--v............up...pp.........................v.x-----v.x---------a----fbbpqgzenx+........zdbcmllkhhfffffffgfeeeeeeeefhhhhijihhffddcbbhffddcbbbbdhhiihedddb-cfhhhjjjieca----+.
(PID.TID 0000.0001) //      5 ..+nhgffkghccfhkhffgdaackz....uoibcimlaaibcimlaaacfbddfjjhijeehf-a-c............zs...su.........................qk.yi---qk.yi-------gha-fjddqs+xkrz.........q-bchikdccdeeeeeeedddedddddgghhhhjhhgffcbbaagffcbbaaaaddfegecca----dfeefhfgdb-----+.
(PID.TID 0000.0001) //      4 .+ujhgfllfhdffhkfffca-aady...llnabdopfcbabdopfcbdgdbcdehlihgfddc--ms............................................okn.zd--okn.zd---eciiiicfkeeqy.ysz..........n-aafgdcbbdeddedcdcccdddcddffggghiggfffdbaa-fffdbaa---acdcccba--abvfedeffdcca----b+.
(PID.TID 0000.0001) //      3 +vjggfcceeffffjlkjgaa---bfvheeln-aesphfd-aesphfdhgabddeflihhgfecbaaayq+++++.....................................kqnz.vtpkqnz.vtpkllgdccfkkkkk..++..........+g---fecaaadcdddcbbbbcdddcccdffffghgffffdcaa-fffdcaa----abcaaaa-acxxmecdjmdbba----r+.
(PID.TID 0000.0001) //      2 qifeecbbccddefilihecbaacbaajfega-aesqhff-aesqhffiea-cdeflkkljifeddcba---bry+...................................vkqn+.sghkqn+.sghfcbcbbbdgfdek.++++.........+l---caaaaaccdccbaaabbddddccdffffghfeeeeecba-eeeecba------baaaa-euwxqdbcdkud-----sy+.
(PID.TID 0000.0001) //      1 ebbbbaaaaaccdfhlhfefdcccaabjefbaaafonhglaafonhglid--adfgkkkklkhffddca-----s++++................................xsrxz.tedsrxz.tedcbbbbaaadddet.++++.........+l------a-accddba--bbbddddccdfffhhgfeeddccba-eddccba-------aaaabgns.qcbcchyzqngll++..
(PID.TID 0000.0001) //      0 -aaaaaaa-aacccfikkhecccbbbaaabaadfkllilmdfkllilmgebaadfijjiiikjhffdcba-----lllgn.............................++..u+..zmd.u+..zmdfbd---a-aeef.xx+..........+++s-------accdcb---bbbcdddddefffggfeeedcccbbaedcccbba----aa--alrwwy.kcbccc+...++++...
(PID.TID 0000.0001) //     -1 --aaaaa----aacffiljgfffcca--adfikkiikimikkiikimiiheccfurkiffhijjigfecb-----l----.............................+++++.z+.wq++.z+.wqgbf-------dgzpoy+........+ys+yrb--aa-abcccb---bbbbddddeffflhfeeeecbbcbbaecbbcbbaa----a--bdflm.yuibbcc.......+...
(PID.TID 0000.0001) //     -2 --aaa-------acdefinmlgiieb-chnnnmlmlfklkmlmlfklklkhednwwsheeghhijjgfdca----g---a.............................+++++wmu++y++wmu++ywn--------fwvmgy+........+r-.+++-abc--abbbb---abaaddddeedkmeddefdbbbdcbadbbbdcbaa-------ba-hv.susfbcc.......+...
(PID.TID 0000.0001) //     -3 a--a---aa---aedeegknmlgiigcdfhpokkimdkmkkkimdkmknoiedcfjvpddegghhhhgfdcbaa-n---a..............................+++yqd.++++yqd.+++zvq--dafz.lqnggw+........+b-....abcc---aaba------acdddcbcineddgdbaaaeedbbaaaeedbaa----------nysqssfcd...........
(PID.TID 0000.0001) // =======================================================
(PID.TID 0000.0001) // END OF FIELD                                          =
(PID.TID 0000.0001) // =======================================================
(PID.TID 0000.0001) 
(PID.TID 0000.0001) // =======================================================
(PID.TID 0000.0001) // Field Model Ro_surf (ini_masks_etc) at iteration          1
(PID.TID 0000.0001) // CMIN =         -7.105427357601002E-15
(PID.TID 0000.0001) // CMAX =         -7.105427357601002E-15
(PID.TID 0000.0001) // CINT =          0.000000000000000E+00
(PID.TID 0000.0001) // SYMBOLS (CMIN->CMAX): -abcdefghijklmnopqrstuvwxyz+
(PID.TID 0000.0001) //                  0.0: .
(PID.TID 0000.0001) // RANGE I (Lo:Hi:Step):(  -3: 196:   1)
(PID.TID 0000.0001) // RANGE J (Lo:Hi:Step):(  36:  -3:  -1)
(PID.TID 0000.0001) // RANGE K (Lo:Hi:Step):(   1:   1:   1)
(PID.TID 0000.0001) // =======================================================
(PID.TID 0000.0001) // =======================================================
(PID.TID 0000.0001) // END OF FIELD                                          =
(PID.TID 0000.0001) // =======================================================
(PID.TID 0000.0001) 
(PID.TID 0000.0001) // =======================================================
(PID.TID 0000.0001) // Field hFacC at iteration          1
(PID.TID 0000.0001) // CMIN =          1.000000000000000E+00
(PID.TID 0000.0001) // CMAX =          1.000000000000000E+00
(PID.TID 0000.0001) // CINT =          0.000000000000000E+00
(PID.TID 0000.0001) // SYMBOLS (CMIN->CMAX): -abcdefghijklmnopqrstuvwxyz+
(PID.TID 0000.0001) //                  0.0: .
(PID.TID 0000.0001) // RANGE I (Lo:Hi:Step):(  -3: 196:   1)
(PID.TID 0000.0001) // RANGE J (Lo:Hi:Step):(  36:  -3:  -1)
(PID.TID 0000.0001) // RANGE K (Lo:Hi:Step):(   1:   1:   1)
(PID.TID 0000.0001) // =======================================================
(PID.TID 0000.0001) // =======================================================
(PID.TID 0000.0001) // END OF FIELD                                          =
(PID.TID 0000.0001) // =======================================================
(PID.TID 0000.0001) 
(PID.TID 0000.0001) // =======================================================
(PID.TID 0000.0001) // Field hFacW at iteration          1
(PID.TID 0000.0001) // CMIN =          1.000000000000000E+00
(PID.TID 0000.0001) // CMAX =          1.000000000000000E+00
(PID.TID 0000.0001) // CINT =          0.000000000000000E+00
(PID.TID 0000.0001) // SYMBOLS (CMIN->CMAX): -abcdefghijklmnopqrstuvwxyz+
(PID.TID 0000.0001) //                  0.0: .
(PID.TID 0000.0001) // RANGE I (Lo:Hi:Step):(  -3: 196:   1)
(PID.TID 0000.0001) // RANGE J (Lo:Hi:Step):(  36:  -3:  -1)
(PID.TID 0000.0001) // RANGE K (Lo:Hi:Step):(   1:   1:   1)
(PID.TID 0000.0001) // =======================================================
(PID.TID 0000.0001) // =======================================================
(PID.TID 0000.0001) // END OF FIELD                                          =
(PID.TID 0000.0001) // =======================================================
(PID.TID 0000.0001) 
(PID.TID 0000.0001) // =======================================================
(PID.TID 0000.0001) // Field hFacS at iteration          1
(PID.TID 0000.0001) // CMIN =          1.000000000000000E+00
(PID.TID 0000.0001) // CMAX =          1.000000000000000E+00
(PID.TID 0000.0001) // CINT =          0.000000000000000E+00
(PID.TID 0000.0001) // SYMBOLS (CMIN->CMAX): -abcdefghijklmnopqrstuvwxyz+
(PID.TID 0000.0001) //                  0.0: .
(PID.TID 0000.0001) // RANGE I (Lo:Hi:Step):(  -3: 196:   1)
(PID.TID 0000.0001) // RANGE J (Lo:Hi:Step):(  36:  -3:  -1)
(PID.TID 0000.0001) // RANGE K (Lo:Hi:Step):(   1:   1:   1)
(PID.TID 0000.0001) // =======================================================
(PID.TID 0000.0001) // =======================================================
(PID.TID 0000.0001) // END OF FIELD                                          =
(PID.TID 0000.0001) // =======================================================
(PID.TID 0000.0001) 
(PID.TID 0000.0001) 
(PID.TID 0000.0001) // ===================================
(PID.TID 0000.0001) // GAD parameters :
(PID.TID 0000.0001) // ===================================
(PID.TID 0000.0001) tempAdvScheme =   /* Temp. Horiz.Advection scheme selector */
(PID.TID 0000.0001)                      30
(PID.TID 0000.0001)     ;
(PID.TID 0000.0001) tempVertAdvScheme =   /* Temp. Vert. Advection scheme selector */
(PID.TID 0000.0001)                      30
(PID.TID 0000.0001)     ;
(PID.TID 0000.0001) tempMultiDimAdvec =   /* use Muti-Dim Advec method for Temp */
(PID.TID 0000.0001)                   T
(PID.TID 0000.0001)     ;
(PID.TID 0000.0001) tempSOM_Advection = /* use 2nd Order Moment Advection for Temp */
(PID.TID 0000.0001)                   F
(PID.TID 0000.0001)     ;
(PID.TID 0000.0001) AdamsBashforthGt = /* apply Adams-Bashforth extrapolation on Gt */
(PID.TID 0000.0001)                   F
(PID.TID 0000.0001)     ;
(PID.TID 0000.0001) AdamsBashforth_T = /* apply Adams-Bashforth extrapolation on Temp */
(PID.TID 0000.0001)                   F
(PID.TID 0000.0001)     ;
(PID.TID 0000.0001) saltAdvScheme =   /* Salt. Horiz.advection scheme selector */
(PID.TID 0000.0001)                      30
(PID.TID 0000.0001)     ;
(PID.TID 0000.0001) saltVertAdvScheme =   /* Salt. Vert. Advection scheme selector */
(PID.TID 0000.0001)                      30
(PID.TID 0000.0001)     ;
(PID.TID 0000.0001) saltMultiDimAdvec =   /* use Muti-Dim Advec method for Salt */
(PID.TID 0000.0001)                   T
(PID.TID 0000.0001)     ;
(PID.TID 0000.0001) saltSOM_Advection = /* use 2nd Order Moment Advection for Salt */
(PID.TID 0000.0001)                   F
(PID.TID 0000.0001)     ;
(PID.TID 0000.0001) AdamsBashforthGs = /* apply Adams-Bashforth extrapolation on Gs */
(PID.TID 0000.0001)                   F
(PID.TID 0000.0001)     ;
(PID.TID 0000.0001) AdamsBashforth_S = /* apply Adams-Bashforth extrapolation on Salt */
(PID.TID 0000.0001)                   F
(PID.TID 0000.0001)     ;
(PID.TID 0000.0001) // ===================================
(PID.TID 0000.0001) ctrl-wet 1:    nvarlength =       239366
(PID.TID 0000.0001) ctrl-wet 2: surface wet C =          639
(PID.TID 0000.0001) ctrl-wet 3: surface wet W =          604
(PID.TID 0000.0001) ctrl-wet 4: surface wet S =          611
(PID.TID 0000.0001) ctrl-wet 4a:surface wet V =            0
(PID.TID 0000.0001) ctrl-wet 5: 3D wet points =         8319
(PID.TID 0000.0001) ctrl-wet 6: no recs for i =     1           1
(PID.TID 0000.0001) ctrl-wet 6: no recs for i =     2           1
(PID.TID 0000.0001) ctrl-wet 6: no recs for i =     3           1
(PID.TID 0000.0001) ctrl-wet 6: no recs for i =     4           1
(PID.TID 0000.0001) ctrl-wet 6: no recs for i =     5           1
(PID.TID 0000.0001) ctrl-wet 6: no recs for i =     6           1
(PID.TID 0000.0001) ctrl-wet 6: no recs for i =     7           0
(PID.TID 0000.0001) ctrl-wet 6: no recs for i =     8           0
(PID.TID 0000.0001) ctrl-wet 6: no recs for i =     9           0
(PID.TID 0000.0001) ctrl-wet 6: no recs for i =    10           0
(PID.TID 0000.0001) ctrl-wet 6: no recs for i =    11           0
(PID.TID 0000.0001) ctrl-wet 6: no recs for i =    12           0
(PID.TID 0000.0001) ctrl-wet 6: no recs for i =    13           0
(PID.TID 0000.0001) ctrl-wet 6: no recs for i =    14           0
(PID.TID 0000.0001) ctrl-wet 6: no recs for i =    15           1
(PID.TID 0000.0001) ctrl-wet 6: no recs for i =    16           0
(PID.TID 0000.0001) ctrl-wet 6: no recs for i =    17           1
(PID.TID 0000.0001) ctrl-wet 6: no recs for i =    18           0
(PID.TID 0000.0001) ctrl-wet 6: no recs for i =    19           0
(PID.TID 0000.0001) ctrl-wet 6: no recs for i =    20           0
(PID.TID 0000.0001) ctrl-wet 6: no recs for i =    21           0
(PID.TID 0000.0001) ctrl-wet 6: no recs for i =    22           0
(PID.TID 0000.0001) ctrl-wet 6: no recs for i =    23           0
(PID.TID 0000.0001) ctrl-wet 6: no recs for i =    24           0
(PID.TID 0000.0001) ctrl-wet 6: no recs for i =    25           0
(PID.TID 0000.0001) ctrl-wet 6: no recs for i =    26           0
(PID.TID 0000.0001) ctrl-wet 6: no recs for i =    27           0
(PID.TID 0000.0001) ctrl-wet 6: no recs for i =    28           0
(PID.TID 0000.0001) ctrl-wet 6: no recs for i =    29           0
(PID.TID 0000.0001) ctrl-wet 6: no recs for i =    30           0
(PID.TID 0000.0001) ctrl-wet 6: no recs for i =    31           0
(PID.TID 0000.0001) ctrl-wet 6: no recs for i =    32           0
(PID.TID 0000.0001) ctrl-wet 6: no recs for i =    33           0
(PID.TID 0000.0001) ctrl-wet 6: no recs for i =    34           0
(PID.TID 0000.0001) ctrl-wet 6: no recs for i =    35           0
(PID.TID 0000.0001) ctrl-wet 6: no recs for i =    36           0
(PID.TID 0000.0001) ctrl-wet 6: no recs for i =    37           0
(PID.TID 0000.0001) ctrl-wet 6: no recs for i =    38           0
(PID.TID 0000.0001) ctrl-wet 6: no recs for i =    39           0
(PID.TID 0000.0001) ctrl-wet 6: no recs for i =    40           0
(PID.TID 0000.0001) ctrl-wet 6: no recs for i =    41           0
(PID.TID 0000.0001) ctrl-wet 6: no recs for i =    42           0
(PID.TID 0000.0001) ctrl-wet 6: no recs for i =    43           0
(PID.TID 0000.0001) ctrl-wet 6: no recs for i =    44           0
(PID.TID 0000.0001) ctrl-wet 6: no recs for i =    45           0
(PID.TID 0000.0001) ctrl-wet 6: no recs for i =    46           0
(PID.TID 0000.0001) ctrl-wet 6: no recs for i =    47           0
(PID.TID 0000.0001) ctrl-wet 6: no recs for i =    48           0
(PID.TID 0000.0001) ctrl-wet 6: no recs for i =    49           0
(PID.TID 0000.0001) ctrl-wet 6: no recs for i =    50           0
(PID.TID 0000.0001) ctrl-wet 6: no recs for i =    51           0
(PID.TID 0000.0001) ctrl-wet 6: no recs for i =    52           0
(PID.TID 0000.0001) ctrl-wet 6: no recs for i =    53           0
(PID.TID 0000.0001) ctrl-wet 6: no recs for i =    54           0
(PID.TID 0000.0001) ctrl-wet 6: no recs for i =    55           0
(PID.TID 0000.0001) ctrl-wet 6: no recs for i =    56           0
(PID.TID 0000.0001) ctrl-wet 6: no recs for i =    57           0
(PID.TID 0000.0001) ctrl-wet 6: no recs for i =    58           0
(PID.TID 0000.0001) ctrl-wet 6: no recs for i =    59           0
(PID.TID 0000.0001) ctrl-wet 6: no recs for i =    60           0
(PID.TID 0000.0001) ctrl-wet 7: flux         19131
(PID.TID 0000.0001) ctrl-wet 8: atmos        16638
(PID.TID 0000.0001) ctrl-wet -------------------------------------------------
(PID.TID 0000.0001) ctrl-wet 13: global nvarlength for Nr =   15      239366
(PID.TID 0000.0001) ctrl-wet -------------------------------------------------
(PID.TID 0000.0001) ctrl-wet 14: global nWet C/S/W/V k=    1        4420        4232        4206           0
(PID.TID 0000.0001) ctrl-wet 14: global nWet C/S/W/V k=    2        4299        4112        4096           0
(PID.TID 0000.0001) ctrl-wet 14: global nWet C/S/W/V k=    3        4222        4038        4023           0
(PID.TID 0000.0001) ctrl-wet 14: global nWet C/S/W/V k=    4        4140        3960        3939           0
(PID.TID 0000.0001) ctrl-wet 14: global nWet C/S/W/V k=    5        4099        3919        3893           0
(PID.TID 0000.0001) ctrl-wet 14: global nWet C/S/W/V k=    6        4038        3856        3839           0
(PID.TID 0000.0001) ctrl-wet 14: global nWet C/S/W/V k=    7        3995        3814        3795           0
(PID.TID 0000.0001) ctrl-wet 14: global nWet C/S/W/V k=    8        3944        3756        3737           0
(PID.TID 0000.0001) ctrl-wet 14: global nWet C/S/W/V k=    9        3887        3699        3673           0
(PID.TID 0000.0001) ctrl-wet 14: global nWet C/S/W/V k=   10        3799        3605        3585           0
(PID.TID 0000.0001) ctrl-wet 14: global nWet C/S/W/V k=   11        3703        3502        3461           0
(PID.TID 0000.0001) ctrl-wet 14: global nWet C/S/W/V k=   12        3554        3338        3303           0
(PID.TID 0000.0001) ctrl-wet 14: global nWet C/S/W/V k=   13        3202        2910        2911           0
(PID.TID 0000.0001) ctrl-wet 14: global nWet C/S/W/V k=   14        2599        2296        2276           0
(PID.TID 0000.0001) ctrl-wet 14: global nWet C/S/W/V k=   15        1621        1368        1334           0
(PID.TID 0000.0001) ctrl-wet -------------------------------------------------
(PID.TID 0000.0001) ctrl-wet -------------------------------------------------
(PID.TID 0000.0001) ctrl-wet -------------------------------------------------
(PID.TID 0000.0001) ctrl_init: no. of control variables:            8
(PID.TID 0000.0001) ctrl_init: control vector length:          239366
(PID.TID 0000.0001) %MON fCori_max                    =   1.4535016908525E-04
(PID.TID 0000.0001) %MON fCori_min                    =  -1.4535016908525E-04
(PID.TID 0000.0001) %MON fCori_mean                   =   0.0000000000000E+00
(PID.TID 0000.0001) %MON fCori_sd                     =   8.3972192788621E-05
(PID.TID 0000.0001) %MON fCoriG_max                   =   1.4544410433286E-04
(PID.TID 0000.0001) %MON fCoriG_min                   =  -1.4544410433286E-04
(PID.TID 0000.0001) %MON fCoriG_mean                  =   0.0000000000000E+00
(PID.TID 0000.0001) %MON fCoriG_sd                    =   8.3972192788621E-05
(PID.TID 0000.0001) %MON fCoriCos_max                 =   1.4540341538469E-04
(PID.TID 0000.0001) %MON fCoriCos_min                 =   5.2264550201501E-06
(PID.TID 0000.0001) %MON fCoriCos_mean                =   1.1482595466044E-04
(PID.TID 0000.0001) %MON fCoriCos_sd                  =   3.0292878037194E-05
(PID.TID 0000.0001) INI_CG2D: CG2D normalisation factor =  1.9156564154949553E-04
(PID.TID 0000.0001) INI_CG2D: cg2dTolerance = 5.809016360175293E-07 (Area=3.6388673751E+14)
(PID.TID 0000.0001) 
(PID.TID 0000.0001) // =======================================================
(PID.TID 0000.0001) // Model configuration
(PID.TID 0000.0001) // =======================================================
(PID.TID 0000.0001) //
(PID.TID 0000.0001) // "Physical" paramters ( PARM01 in namelist )
(PID.TID 0000.0001) //
(PID.TID 0000.0001) buoyancyRelation = /* Type of relation to get Buoyancy */
(PID.TID 0000.0001)               'OCEANIC'
(PID.TID 0000.0001)     ;
(PID.TID 0000.0001) fluidIsAir  =  /* fluid major constituent is Air */
(PID.TID 0000.0001)                   F
(PID.TID 0000.0001)     ;
(PID.TID 0000.0001) fluidIsWater=  /* fluid major constituent is Water */
(PID.TID 0000.0001)                   T
(PID.TID 0000.0001)     ;
(PID.TID 0000.0001) usingPCoords =  /* use p (or p*) vertical coordinate */
(PID.TID 0000.0001)                   F
(PID.TID 0000.0001)     ;
(PID.TID 0000.0001) usingZCoords =  /* use z (or z*) vertical coordinate */
(PID.TID 0000.0001)                   T
(PID.TID 0000.0001)     ;
(PID.TID 0000.0001) tRef =   /* Reference temperature profile ( oC or K ) */
(PID.TID 0000.0001)    15 @  2.000000000000000E+01              /* K =  1: 15 */
(PID.TID 0000.0001)     ;
(PID.TID 0000.0001) sRef =   /* Reference salinity profile ( psu ) */
(PID.TID 0000.0001)    15 @  3.500000000000000E+01              /* K =  1: 15 */
(PID.TID 0000.0001)     ;
(PID.TID 0000.0001) viscAh =   /* Lateral eddy viscosity ( m^2/s ) */
(PID.TID 0000.0001)                 3.000000000000000E+05
(PID.TID 0000.0001)     ;
(PID.TID 0000.0001) viscAhMax =   /* Maximum lateral eddy viscosity ( m^2/s ) */
(PID.TID 0000.0001)                 1.000000000000000E+21
(PID.TID 0000.0001)     ;
(PID.TID 0000.0001) viscAhGrid =   /* Grid dependent lateral eddy viscosity ( non-dim. ) */
(PID.TID 0000.0001)                 0.000000000000000E+00
(PID.TID 0000.0001)     ;
(PID.TID 0000.0001) useFullLeith =   /* Use Full Form of Leith Viscosity on/off flag*/
(PID.TID 0000.0001)                   F
(PID.TID 0000.0001)     ;
(PID.TID 0000.0001) useStrainTensionVisc =   /* Use StrainTension Form of Viscous Operator on/off flag*/
(PID.TID 0000.0001)                   F
(PID.TID 0000.0001)     ;
(PID.TID 0000.0001) useAreaViscLength =   /* Use area for visc length instead of geom. mean*/
(PID.TID 0000.0001)                   F
(PID.TID 0000.0001)     ;
(PID.TID 0000.0001) viscC2leith = /* Leith harmonic visc. factor (on grad(vort),non-dim.) */
(PID.TID 0000.0001)                 0.000000000000000E+00
(PID.TID 0000.0001)     ;
(PID.TID 0000.0001) viscC2leithD = /* Leith harmonic viscosity factor (on grad(div),non-dim.) */
(PID.TID 0000.0001)                 0.000000000000000E+00
(PID.TID 0000.0001)     ;
(PID.TID 0000.0001) viscC2smag =   /* Smagorinsky harmonic viscosity factor (non-dim.) */
(PID.TID 0000.0001)                 0.000000000000000E+00
(PID.TID 0000.0001)     ;
(PID.TID 0000.0001) viscA4 =   /* Lateral biharmonic viscosity ( m^4/s ) */
(PID.TID 0000.0001)                 0.000000000000000E+00
(PID.TID 0000.0001)     ;
(PID.TID 0000.0001) viscA4Max =   /* Maximum biharmonic viscosity ( m^2/s ) */
(PID.TID 0000.0001)                 1.000000000000000E+21
(PID.TID 0000.0001)     ;
(PID.TID 0000.0001) viscA4Grid =   /* Grid dependent biharmonic viscosity ( non-dim. ) */
(PID.TID 0000.0001)                 0.000000000000000E+00
(PID.TID 0000.0001)     ;
(PID.TID 0000.0001) viscC4leith = /* Leith biharm viscosity factor (on grad(vort), non-dim.) */
(PID.TID 0000.0001)                 0.000000000000000E+00
(PID.TID 0000.0001)     ;
(PID.TID 0000.0001) viscC4leithD = /* Leith biharm viscosity factor (on grad(div), non-dim.) */
(PID.TID 0000.0001)                 0.000000000000000E+00
(PID.TID 0000.0001)     ;
(PID.TID 0000.0001) viscC4Smag = /* Smagorinsky biharm viscosity factor (non-dim) */
(PID.TID 0000.0001)                 0.000000000000000E+00
(PID.TID 0000.0001)     ;
(PID.TID 0000.0001) no_slip_sides =  /* Viscous BCs: No-slip sides */
(PID.TID 0000.0001)                   T
(PID.TID 0000.0001)     ;
(PID.TID 0000.0001) sideDragFactor = /* side-drag scaling factor (non-dim) */
(PID.TID 0000.0001)                 2.000000000000000E+00
(PID.TID 0000.0001)     ;
(PID.TID 0000.0001) viscAr =   /* Vertical eddy viscosity ( m^2/s ) */
(PID.TID 0000.0001)                 1.000000000000000E-03
(PID.TID 0000.0001)     ;
(PID.TID 0000.0001) no_slip_bottom =  /* Viscous BCs: No-slip bottom */
(PID.TID 0000.0001)                   T
(PID.TID 0000.0001)     ;
(PID.TID 0000.0001) bottomDragLinear = /* linear bottom-drag coefficient ( m/s ) */
(PID.TID 0000.0001)                 0.000000000000000E+00
(PID.TID 0000.0001)     ;
(PID.TID 0000.0001) bottomDragQuadratic = /* quadratic bottom-drag coeff. ( m/m ) */
(PID.TID 0000.0001)                 0.000000000000000E+00
(PID.TID 0000.0001)     ;
(PID.TID 0000.0001) diffKhT =   /* Laplacian diffusion of heat laterally ( m^2/s ) */
(PID.TID 0000.0001)                 0.000000000000000E+00
(PID.TID 0000.0001)     ;
(PID.TID 0000.0001) diffK4T =   /* Biharmonic diffusion of heat laterally ( m^4/s ) */
(PID.TID 0000.0001)                 0.000000000000000E+00
(PID.TID 0000.0001)     ;
(PID.TID 0000.0001) diffKhS =   /* Laplacian diffusion of salt laterally ( m^2/s ) */
(PID.TID 0000.0001)                 0.000000000000000E+00
(PID.TID 0000.0001)     ;
(PID.TID 0000.0001) diffK4S =   /* Biharmonic diffusion of salt laterally ( m^4/s ) */
(PID.TID 0000.0001)                 0.000000000000000E+00
(PID.TID 0000.0001)     ;
(PID.TID 0000.0001) diffKrNrT = /* vertical profile of vertical diffusion of Temp ( m^2/s )*/
(PID.TID 0000.0001)    15 @  3.000000000000000E-05              /* K =  1: 15 */
(PID.TID 0000.0001)     ;
(PID.TID 0000.0001) diffKrNrS = /* vertical profile of vertical diffusion of Salt ( m^2/s )*/
(PID.TID 0000.0001)    15 @  3.000000000000000E-05              /* K =  1: 15 */
(PID.TID 0000.0001)     ;
(PID.TID 0000.0001) diffKrBL79surf = /* Surface diffusion for Bryan and Lewis 79 ( m^2/s ) */
(PID.TID 0000.0001)                 0.000000000000000E+00
(PID.TID 0000.0001)     ;
(PID.TID 0000.0001) diffKrBL79deep = /* Deep diffusion for Bryan and Lewis 1979 ( m^2/s ) */
(PID.TID 0000.0001)                 0.000000000000000E+00
(PID.TID 0000.0001)     ;
(PID.TID 0000.0001) diffKrBL79scl = /* Depth scale for Bryan and Lewis 1979 ( m ) */
(PID.TID 0000.0001)                 2.000000000000000E+02
(PID.TID 0000.0001)     ;
(PID.TID 0000.0001) diffKrBL79Ho = /* Turning depth for Bryan and Lewis 1979 ( m ) */
(PID.TID 0000.0001)                -2.000000000000000E+03
(PID.TID 0000.0001)     ;
(PID.TID 0000.0001) ivdc_kappa = /* Implicit Vertical Diffusivity for Convection ( m^2/s ) */
(PID.TID 0000.0001)                 1.000000000000000E+01
(PID.TID 0000.0001)     ;
(PID.TID 0000.0001) hMixCriteria=  /* Criteria for mixed-layer diagnostic */
(PID.TID 0000.0001)                -8.000000000000000E-01
(PID.TID 0000.0001)     ;
(PID.TID 0000.0001) eosType =  /* Type of Equation of State */
(PID.TID 0000.0001)               'JMD95Z'
(PID.TID 0000.0001)     ;
(PID.TID 0000.0001) tAlpha =   /* Linear EOS thermal expansion coefficient ( 1/oC ) */
(PID.TID 0000.0001)                 1.234567000000000E+05
(PID.TID 0000.0001)     ;
(PID.TID 0000.0001) sBeta =   /* Linear EOS haline contraction coefficient ( 1/psu ) */
(PID.TID 0000.0001)                 1.234567000000000E+05
(PID.TID 0000.0001)     ;
(PID.TID 0000.0001) rhonil =   /* Reference density ( kg/m^3 ) */
(PID.TID 0000.0001)                 1.035000000000000E+03
(PID.TID 0000.0001)     ;
(PID.TID 0000.0001) rhoConst =   /* Reference density ( kg/m^3 ) */
(PID.TID 0000.0001)                 1.035000000000000E+03
(PID.TID 0000.0001)     ;
(PID.TID 0000.0001) rhoFacC = /* normalized Reference density @ cell-Center (-) */
(PID.TID 0000.0001)    15 @  1.000000000000000E+00              /* K =  1: 15 */
(PID.TID 0000.0001)     ;
(PID.TID 0000.0001) rhoFacF = /* normalized Reference density @ W-Interface (-) */
(PID.TID 0000.0001)    16 @  1.000000000000000E+00              /* K =  1: 16 */
(PID.TID 0000.0001)     ;
(PID.TID 0000.0001) rhoConstFresh =   /* Reference density ( kg/m^3 ) */
(PID.TID 0000.0001)                 1.000000000000000E+03
(PID.TID 0000.0001)     ;
(PID.TID 0000.0001) gravity =   /* Gravitational acceleration ( m/s^2 ) */
(PID.TID 0000.0001)                 9.810000000000000E+00
(PID.TID 0000.0001)     ;
(PID.TID 0000.0001) gBaro =   /* Barotropic gravity ( m/s^2 ) */
(PID.TID 0000.0001)                 9.810000000000000E+00
(PID.TID 0000.0001)     ;
(PID.TID 0000.0001) rotationPeriod =   /* Rotation Period ( s ) */
(PID.TID 0000.0001)                 8.640000000000000E+04
(PID.TID 0000.0001)     ;
(PID.TID 0000.0001) omega =   /* Angular velocity ( rad/s ) */
(PID.TID 0000.0001)                 7.272205216643040E-05
(PID.TID 0000.0001)     ;
(PID.TID 0000.0001) f0 =   /* Reference coriolis parameter ( 1/s ) */
(PID.TID 0000.0001)                 1.000000000000000E-04
(PID.TID 0000.0001)     ;
(PID.TID 0000.0001) beta =   /* Beta ( 1/(m.s) ) */
(PID.TID 0000.0001)                 9.999999999999999E-12
(PID.TID 0000.0001)     ;
(PID.TID 0000.0001) freeSurfFac =   /* Implicit free surface factor */
(PID.TID 0000.0001)                 1.000000000000000E+00
(PID.TID 0000.0001)     ;
(PID.TID 0000.0001) implicitFreeSurface =   /* Implicit free surface on/off flag */
(PID.TID 0000.0001)                   T
(PID.TID 0000.0001)     ;
(PID.TID 0000.0001) rigidLid =   /* Rigid lid on/off flag */
(PID.TID 0000.0001)                   F
(PID.TID 0000.0001)     ;
(PID.TID 0000.0001) implicSurfPress =   /* Surface Pressure implicit factor (0-1)*/
(PID.TID 0000.0001)                 1.000000000000000E+00
(PID.TID 0000.0001)     ;
(PID.TID 0000.0001) implicDiv2Dflow =   /* Barot. Flow Div. implicit factor (0-1)*/
(PID.TID 0000.0001)                 1.000000000000000E+00
(PID.TID 0000.0001)     ;
(PID.TID 0000.0001) exactConserv =   /* Exact Volume Conservation on/off flag*/
(PID.TID 0000.0001)                   F
(PID.TID 0000.0001)     ;
(PID.TID 0000.0001) linFSConserveTr =   /* Tracer correction for Lin Free Surface on/off flag*/
(PID.TID 0000.0001)                   F
(PID.TID 0000.0001)     ;
(PID.TID 0000.0001) uniformLin_PhiSurf =   /* use uniform Bo_surf on/off flag*/
(PID.TID 0000.0001)                   T
(PID.TID 0000.0001)     ;
(PID.TID 0000.0001) nonlinFreeSurf =   /* Non-linear Free Surf. options (-1,0,1,2,3)*/
(PID.TID 0000.0001)                       0
(PID.TID 0000.0001)     ;
(PID.TID 0000.0001)      -1,0= Off ; 1,2,3= On, 2=+rescale gU,gV, 3=+update cg2d solv.
(PID.TID 0000.0001) hFacInf =   /* lower threshold for hFac (nonlinFreeSurf only)*/
(PID.TID 0000.0001)                 2.000000000000000E-01
(PID.TID 0000.0001)     ;
(PID.TID 0000.0001) hFacSup =   /* upper threshold for hFac (nonlinFreeSurf only)*/
(PID.TID 0000.0001)                 2.000000000000000E+00
(PID.TID 0000.0001)     ;
(PID.TID 0000.0001) select_rStar = /* r* Vertical coord. options (=0 r coord.; > 0 uses r*) */
(PID.TID 0000.0001)                       0
(PID.TID 0000.0001)     ;
(PID.TID 0000.0001) selectAddFluid = /* option for mass source/sink of fluid (=0: off) */
(PID.TID 0000.0001)                       0
(PID.TID 0000.0001)     ;
(PID.TID 0000.0001) useRealFreshWaterFlux = /* Real Fresh Water Flux on/off flag*/
(PID.TID 0000.0001)                   F
(PID.TID 0000.0001)     ;
(PID.TID 0000.0001) temp_EvPrRn = /* Temp. of Evap/Prec/R (UNSET=use local T)(oC)*/
(PID.TID 0000.0001)                 1.234567000000000E+05
(PID.TID 0000.0001)     ;
(PID.TID 0000.0001) salt_EvPrRn = /* Salin. of Evap/Prec/R (UNSET=use local S)(ppt)*/
(PID.TID 0000.0001)                 0.000000000000000E+00
(PID.TID 0000.0001)     ;
(PID.TID 0000.0001) convertFW2Salt = /* convert F.W. Flux to Salt Flux (-1=use local S)(ppt)*/
(PID.TID 0000.0001)                 3.500000000000000E+01
(PID.TID 0000.0001)     ;
(PID.TID 0000.0001) use3Dsolver = /* use 3-D pressure solver on/off flag */
(PID.TID 0000.0001)                   F
(PID.TID 0000.0001)     ;
(PID.TID 0000.0001) nonHydrostatic =  /* Non-Hydrostatic on/off flag */
(PID.TID 0000.0001)                   F
(PID.TID 0000.0001)     ;
(PID.TID 0000.0001) nh_Am2 = /* Non-Hydrostatic terms scaling factor */
(PID.TID 0000.0001)                 1.000000000000000E+00
(PID.TID 0000.0001)     ;
(PID.TID 0000.0001) quasiHydrostatic = /* Quasi-Hydrostatic on/off flag */
(PID.TID 0000.0001)                   F
(PID.TID 0000.0001)     ;
(PID.TID 0000.0001) momStepping =  /* Momentum equation on/off flag */
(PID.TID 0000.0001)                   T
(PID.TID 0000.0001)     ;
(PID.TID 0000.0001) vectorInvariantMomentum= /* Vector-Invariant Momentum on/off */
(PID.TID 0000.0001)                   T
(PID.TID 0000.0001)     ;
(PID.TID 0000.0001) momAdvection =  /* Momentum advection on/off flag */
(PID.TID 0000.0001)                   T
(PID.TID 0000.0001)     ;
(PID.TID 0000.0001) momViscosity =  /* Momentum viscosity on/off flag */
(PID.TID 0000.0001)                   T
(PID.TID 0000.0001)     ;
(PID.TID 0000.0001) momImplVertAdv =/* Momentum implicit vert. advection on/off*/
(PID.TID 0000.0001)                   F
(PID.TID 0000.0001)     ;
(PID.TID 0000.0001) implicitViscosity = /* Implicit viscosity on/off flag */
(PID.TID 0000.0001)                   F
(PID.TID 0000.0001)     ;
(PID.TID 0000.0001) metricTerms =  /* metric-Terms on/off flag */
(PID.TID 0000.0001)                   F
(PID.TID 0000.0001)     ;
(PID.TID 0000.0001) useNHMTerms = /* Non-Hydrostatic Metric-Terms on/off */
(PID.TID 0000.0001)                   F
(PID.TID 0000.0001)     ;
(PID.TID 0000.0001) useConstantF =  /* use Constant f0 Coriolis flag */
(PID.TID 0000.0001)                   F
(PID.TID 0000.0001)     ;
(PID.TID 0000.0001) useBetaPlaneF = /* use Beta-Plane Coriolis flag */
(PID.TID 0000.0001)                   F
(PID.TID 0000.0001)     ;
(PID.TID 0000.0001) useSphereF  =   /* use Spherical Coriolis flag */
(PID.TID 0000.0001)                   T
(PID.TID 0000.0001)     ;
(PID.TID 0000.0001) use3dCoriolis = /* 3-D Coriolis on/off flag */
(PID.TID 0000.0001)                   F
(PID.TID 0000.0001)     ;
(PID.TID 0000.0001) useCoriolis =  /* Coriolis on/off flag */
(PID.TID 0000.0001)                   T
(PID.TID 0000.0001)     ;
(PID.TID 0000.0001) useCDscheme =  /* CD scheme on/off flag */
(PID.TID 0000.0001)                   F
(PID.TID 0000.0001)     ;
(PID.TID 0000.0001) useJamartWetPoints= /* Coriolis WetPoints method flag */
(PID.TID 0000.0001)                   F
(PID.TID 0000.0001)     ;
(PID.TID 0000.0001) useJamartMomAdv= /* V.I. Non-linear terms Jamart flag */
(PID.TID 0000.0001)                   F
(PID.TID 0000.0001)     ;
(PID.TID 0000.0001) useAbsVorticity= /* Work with f+zeta in Coriolis */
(PID.TID 0000.0001)                   F
(PID.TID 0000.0001)     ;
(PID.TID 0000.0001) selectVortScheme= /* Scheme selector for Vorticity-Term */
(PID.TID 0000.0001)                       1
(PID.TID 0000.0001)    = 0 : enstrophy (Shallow-Water Eq.) conserving scheme by Sadourny, JAS 75
(PID.TID 0000.0001)    = 1 : same as 0 with modified hFac
(PID.TID 0000.0001)    = 2 : energy conserving scheme (used by Sadourny in JAS 75 paper)
(PID.TID 0000.0001)    = 3 : energy (general) and enstrophy (2D, nonDiv.) conserving scheme
(PID.TID 0000.0001)          from Sadourny (Burridge & Haseler, ECMWF Rep.4, 1977)
(PID.TID 0000.0001)     ;
(PID.TID 0000.0001) upwindVorticity= /* Upwind bias vorticity flag */
(PID.TID 0000.0001)                   F
(PID.TID 0000.0001)     ;
(PID.TID 0000.0001) highOrderVorticity= /* High order interp. of vort. flag */
(PID.TID 0000.0001)                   F
(PID.TID 0000.0001)     ;
(PID.TID 0000.0001) upwindShear= /* Upwind vertical Shear advection flag */
(PID.TID 0000.0001)                   F
(PID.TID 0000.0001)     ;
(PID.TID 0000.0001) selectKEscheme= /* Kinetic Energy scheme selector */
(PID.TID 0000.0001)                       0
(PID.TID 0000.0001)     ;
(PID.TID 0000.0001) momForcing =  /* Momentum forcing on/off flag */
(PID.TID 0000.0001)                   T
(PID.TID 0000.0001)     ;
(PID.TID 0000.0001) momPressureForcing =  /* Momentum pressure term on/off flag */
(PID.TID 0000.0001)                   T
(PID.TID 0000.0001)     ;
(PID.TID 0000.0001) implicitIntGravWave= /* Implicit Internal Gravity Wave flag */
(PID.TID 0000.0001)                   F
(PID.TID 0000.0001)     ;
(PID.TID 0000.0001) staggerTimeStep =   /* Stagger time stepping on/off flag */
(PID.TID 0000.0001)                   T
(PID.TID 0000.0001)     ;
(PID.TID 0000.0001) multiDimAdvection =   /* enable/disable Multi-Dim Advection */
(PID.TID 0000.0001)                   T
(PID.TID 0000.0001)     ;
(PID.TID 0000.0001) useMultiDimAdvec =   /* Multi-Dim Advection is/is-not used */
(PID.TID 0000.0001)                   T
(PID.TID 0000.0001)     ;
(PID.TID 0000.0001) implicitDiffusion =/* Implicit Diffusion on/off flag */
(PID.TID 0000.0001)                   T
(PID.TID 0000.0001)     ;
(PID.TID 0000.0001) tempStepping =  /* Temperature equation on/off flag */
(PID.TID 0000.0001)                   T
(PID.TID 0000.0001)     ;
(PID.TID 0000.0001) tempAdvection=  /* Temperature advection on/off flag */
(PID.TID 0000.0001)                   T
(PID.TID 0000.0001)     ;
(PID.TID 0000.0001) tempImplVertAdv =/* Temp. implicit vert. advection on/off */
(PID.TID 0000.0001)                   F
(PID.TID 0000.0001)     ;
(PID.TID 0000.0001) tempForcing  =  /* Temperature forcing on/off flag */
(PID.TID 0000.0001)                   T
(PID.TID 0000.0001)     ;
(PID.TID 0000.0001) tempIsActiveTr = /* Temp. is a dynamically Active Tracer */
(PID.TID 0000.0001)                   T
(PID.TID 0000.0001)     ;
(PID.TID 0000.0001) saltStepping =  /* Salinity equation on/off flag */
(PID.TID 0000.0001)                   T
(PID.TID 0000.0001)     ;
(PID.TID 0000.0001) saltAdvection=  /* Salinity advection on/off flag */
(PID.TID 0000.0001)                   T
(PID.TID 0000.0001)     ;
(PID.TID 0000.0001) saltImplVertAdv =/* Sali. implicit vert. advection on/off */
(PID.TID 0000.0001)                   F
(PID.TID 0000.0001)     ;
(PID.TID 0000.0001) saltForcing  =  /* Salinity forcing on/off flag */
(PID.TID 0000.0001)                   T
(PID.TID 0000.0001)     ;
(PID.TID 0000.0001) saltIsActiveTr = /* Salt  is a dynamically Active Tracer */
(PID.TID 0000.0001)                   T
(PID.TID 0000.0001)     ;
(PID.TID 0000.0001)  readBinaryPrec = /* Precision used for reading binary files */
(PID.TID 0000.0001)                      64
(PID.TID 0000.0001)     ;
(PID.TID 0000.0001) writeBinaryPrec = /* Precision used for writing binary files */
(PID.TID 0000.0001)                      32
(PID.TID 0000.0001)     ;
(PID.TID 0000.0001)  globalFiles = /* write "global" (=not per tile) files */
(PID.TID 0000.0001)                   F
(PID.TID 0000.0001)     ;
(PID.TID 0000.0001)  useSingleCpuIO = /* only master MPI process does I/O */
(PID.TID 0000.0001)                   F
(PID.TID 0000.0001)     ;
(PID.TID 0000.0001)  debugMode  =  /* Debug Mode on/off flag */
(PID.TID 0000.0001)                   F
(PID.TID 0000.0001)     ;
(PID.TID 0000.0001)    debLevA  =  /* 1rst level of debugging */
(PID.TID 0000.0001)                       1
(PID.TID 0000.0001)     ;
(PID.TID 0000.0001)    debLevB  =  /* 2nd  level of debugging */
(PID.TID 0000.0001)                       2
(PID.TID 0000.0001)     ;
(PID.TID 0000.0001)  debugLevel =  /* select debugging level */
(PID.TID 0000.0001)                       1
(PID.TID 0000.0001)     ;
(PID.TID 0000.0001) //
(PID.TID 0000.0001) // Elliptic solver(s) paramters ( PARM02 in namelist )
(PID.TID 0000.0001) //
(PID.TID 0000.0001) cg2dMaxIters =   /* Upper limit on 2d con. grad iterations  */
(PID.TID 0000.0001)                     200
(PID.TID 0000.0001)     ;
(PID.TID 0000.0001) cg2dChkResFreq =   /* 2d con. grad convergence test frequency */
(PID.TID 0000.0001)                       1
(PID.TID 0000.0001)     ;
(PID.TID 0000.0001) cg2dTargetResidual =   /* 2d con. grad target residual  */
(PID.TID 0000.0001)                 1.000000000000000E-07
(PID.TID 0000.0001)     ;
(PID.TID 0000.0001) cg2dTargetResWunit =   /* CG2d target residual [W units] */
(PID.TID 0000.0001)                 1.000000000000000E-14
(PID.TID 0000.0001)     ;
(PID.TID 0000.0001) cg2dPreCondFreq =   /* Freq. for updating cg2d preconditioner */
(PID.TID 0000.0001)                       1
(PID.TID 0000.0001)     ;
(PID.TID 0000.0001) //
(PID.TID 0000.0001) // Time stepping paramters ( PARM03 in namelist )
(PID.TID 0000.0001) //
(PID.TID 0000.0001) deltaTmom =   /* Momentum equation timestep ( s ) */
(PID.TID 0000.0001)                 1.200000000000000E+03
(PID.TID 0000.0001)     ;
(PID.TID 0000.0001) deltaTfreesurf =   /* FreeSurface equation timestep ( s ) */
(PID.TID 0000.0001)                 8.640000000000000E+04
(PID.TID 0000.0001)     ;
(PID.TID 0000.0001) dTtracerLev =   /* Tracer equation timestep ( s ) */
(PID.TID 0000.0001)    15 @  8.640000000000000E+04              /* K =  1: 15 */
(PID.TID 0000.0001)     ;
(PID.TID 0000.0001) deltaTClock  =   /* Model clock timestep ( s ) */
(PID.TID 0000.0001)                 8.640000000000000E+04
(PID.TID 0000.0001)     ;
(PID.TID 0000.0001) cAdjFreq =   /* Convective adjustment interval ( s ) */
(PID.TID 0000.0001)                 0.000000000000000E+00
(PID.TID 0000.0001)     ;
(PID.TID 0000.0001) momForcingOutAB = /* =1: take Momentum Forcing out of Adams-Bash. stepping */
(PID.TID 0000.0001)                       0
(PID.TID 0000.0001)     ;
(PID.TID 0000.0001) tracForcingOutAB = /* =1: take T,S,pTr Forcing out of Adams-Bash. stepping */
(PID.TID 0000.0001)                       1
(PID.TID 0000.0001)     ;
(PID.TID 0000.0001) momDissip_In_AB = /* put Dissipation Tendency in Adams-Bash. stepping */
(PID.TID 0000.0001)                   T
(PID.TID 0000.0001)     ;
(PID.TID 0000.0001) doAB_onGtGs = /* apply AB on Tendencies (rather than on T,S)*/
(PID.TID 0000.0001)                   T
(PID.TID 0000.0001)     ;
(PID.TID 0000.0001) abEps =   /* Adams-Bashforth-2 stabilizing weight */
(PID.TID 0000.0001)                 1.000000000000000E-01
(PID.TID 0000.0001)     ;
(PID.TID 0000.0001) pickupStrictlyMatch= /* stop if pickup do not strictly match */
(PID.TID 0000.0001)                   F
(PID.TID 0000.0001)     ;
(PID.TID 0000.0001) nIter0 =   /* Run starting timestep number  */
(PID.TID 0000.0001)                   72000
(PID.TID 0000.0001)     ;
(PID.TID 0000.0001) nTimeSteps =   /* Number of timesteps */
(PID.TID 0000.0001)                      20
(PID.TID 0000.0001)     ;
(PID.TID 0000.0001) baseTime =   /* Model base time ( s ). */
(PID.TID 0000.0001)                 0.000000000000000E+00
(PID.TID 0000.0001)     ;
(PID.TID 0000.0001) startTime =   /* Run start time ( s ). */
(PID.TID 0000.0001)                 6.220800000000000E+09
(PID.TID 0000.0001)     ;
(PID.TID 0000.0001) endTime =   /* Integration ending time ( s ). */
(PID.TID 0000.0001)                 6.222528000000000E+09
(PID.TID 0000.0001)     ;
(PID.TID 0000.0001) pChkPtFreq =   /* Permanent restart/checkpoint file interval ( s ). */
(PID.TID 0000.0001)                 1.728000000000000E+06
(PID.TID 0000.0001)     ;
(PID.TID 0000.0001) chkPtFreq =   /* Rolling restart/checkpoint file interval ( s ). */
(PID.TID 0000.0001)                 0.000000000000000E+00
(PID.TID 0000.0001)     ;
(PID.TID 0000.0001) pickup_write_mdsio =   /* Model IO flag. */
(PID.TID 0000.0001)                   T
(PID.TID 0000.0001)     ;
(PID.TID 0000.0001) pickup_read_mdsio =   /* Model IO flag. */
(PID.TID 0000.0001)                   T
(PID.TID 0000.0001)     ;
(PID.TID 0000.0001) pickup_write_immed =   /* Model IO flag. */
(PID.TID 0000.0001)                   F
(PID.TID 0000.0001)     ;
(PID.TID 0000.0001) writePickupAtEnd =   /* Model IO flag. */
(PID.TID 0000.0001)                   T
(PID.TID 0000.0001)     ;
(PID.TID 0000.0001) dumpFreq =   /* Model state write out interval ( s ). */
(PID.TID 0000.0001)                 8.640000000000000E+04
(PID.TID 0000.0001)     ;
(PID.TID 0000.0001) dumpInitAndLast= /* write out Initial & Last iter. model state */
(PID.TID 0000.0001)                   T
(PID.TID 0000.0001)     ;
(PID.TID 0000.0001) snapshot_mdsio =   /* Model IO flag. */
(PID.TID 0000.0001)                   T
(PID.TID 0000.0001)     ;
(PID.TID 0000.0001) monitorFreq =   /* Monitor output interval ( s ). */
(PID.TID 0000.0001)                 1.000000000000000E+00
(PID.TID 0000.0001)     ;
(PID.TID 0000.0001) monitorSelect = /* select group of variables to monitor */
(PID.TID 0000.0001)                       3
(PID.TID 0000.0001)     ;
(PID.TID 0000.0001) monitor_stdio =   /* Model IO flag. */
(PID.TID 0000.0001)                   T
(PID.TID 0000.0001)     ;
(PID.TID 0000.0001) externForcingPeriod =   /* forcing period (s) */
(PID.TID 0000.0001)                 2.592000000000000E+06
(PID.TID 0000.0001)     ;
(PID.TID 0000.0001) externForcingCycle =   /* period of the cyle (s). */
(PID.TID 0000.0001)                 3.110400000000000E+07
(PID.TID 0000.0001)     ;
(PID.TID 0000.0001) tauThetaClimRelax =   /* relaxation time scale (s) */
(PID.TID 0000.0001)                 5.184000000000000E+06
(PID.TID 0000.0001)     ;
(PID.TID 0000.0001) tauSaltClimRelax =   /* relaxation time scale (s) */
(PID.TID 0000.0001)                 6.220800000000000E+07
(PID.TID 0000.0001)     ;
(PID.TID 0000.0001) latBandClimRelax =   /* max. Lat. where relaxation */
(PID.TID 0000.0001)                 1.800000000000000E+02
(PID.TID 0000.0001)     ;
(PID.TID 0000.0001) //
(PID.TID 0000.0001) // Gridding paramters ( PARM04 in namelist )
(PID.TID 0000.0001) //
(PID.TID 0000.0001) usingCartesianGrid = /* Cartesian coordinates flag ( True/False ) */
(PID.TID 0000.0001)                   F
(PID.TID 0000.0001)     ;
(PID.TID 0000.0001) usingCylindricalGrid = /* Cylindrical coordinates flag ( True/False ) */
(PID.TID 0000.0001)                   F
(PID.TID 0000.0001)     ;
(PID.TID 0000.0001) usingSphericalPolarGrid = /* Spherical coordinates flag ( True/False ) */
(PID.TID 0000.0001)                   F
(PID.TID 0000.0001)     ;
(PID.TID 0000.0001) usingCurvilinearGrid = /* Curvilinear coordinates flag ( True/False ) */
(PID.TID 0000.0001)                   T
(PID.TID 0000.0001)     ;
(PID.TID 0000.0001) Ro_SeaLevel = /* r(1) ( units of r ==  m ) */
(PID.TID 0000.0001)                 0.000000000000000E+00
(PID.TID 0000.0001)     ;
(PID.TID 0000.0001) rkSign =   /* index orientation relative to vertical coordinate */
(PID.TID 0000.0001)                -1.000000000000000E+00
(PID.TID 0000.0001)     ;
(PID.TID 0000.0001) gravitySign = /* gravity orientation relative to vertical coordinate */
(PID.TID 0000.0001)                -1.000000000000000E+00
(PID.TID 0000.0001)     ;
(PID.TID 0000.0001) mass2rUnit = /* convert mass per unit area [kg/m2] to r-units [m] */
(PID.TID 0000.0001)                 9.661835748792270E-04
(PID.TID 0000.0001)     ;
(PID.TID 0000.0001) rUnit2mass = /* convert r-units [m] to mass per unit area [kg/m2] */
(PID.TID 0000.0001)                 1.035000000000000E+03
(PID.TID 0000.0001)     ;
(PID.TID 0000.0001) drC =   /* C spacing ( units of r ) */
(PID.TID 0000.0001)                 2.500000000000000E+01,      /* K =  1 */
(PID.TID 0000.0001)                 6.000000000000000E+01,      /* K =  2 */
(PID.TID 0000.0001)                 8.500000000000000E+01,      /* K =  3 */
(PID.TID 0000.0001)                 1.200000000000000E+02,      /* K =  4 */
(PID.TID 0000.0001)                 1.650000000000000E+02,      /* K =  5 */
(PID.TID 0000.0001)                 2.150000000000000E+02,      /* K =  6 */
(PID.TID 0000.0001)                 2.650000000000000E+02,      /* K =  7 */
(PID.TID 0000.0001)                 3.150000000000000E+02,      /* K =  8 */
(PID.TID 0000.0001)                 3.650000000000000E+02,      /* K =  9 */
(PID.TID 0000.0001)                 4.150000000000000E+02,      /* K = 10 */
(PID.TID 0000.0001)                 4.650000000000000E+02,      /* K = 11 */
(PID.TID 0000.0001)                 5.150000000000000E+02,      /* K = 12 */
(PID.TID 0000.0001)                 5.650000000000000E+02,      /* K = 13 */
(PID.TID 0000.0001)                 6.150000000000000E+02,      /* K = 14 */
(PID.TID 0000.0001)                 6.650000000000000E+02       /* K = 15 */
(PID.TID 0000.0001)     ;
(PID.TID 0000.0001) drF =   /* W spacing ( units of r ) */
(PID.TID 0000.0001)                 5.000000000000000E+01,      /* K =  1 */
(PID.TID 0000.0001)                 7.000000000000000E+01,      /* K =  2 */
(PID.TID 0000.0001)                 1.000000000000000E+02,      /* K =  3 */
(PID.TID 0000.0001)                 1.400000000000000E+02,      /* K =  4 */
(PID.TID 0000.0001)                 1.900000000000000E+02,      /* K =  5 */
(PID.TID 0000.0001)                 2.400000000000000E+02,      /* K =  6 */
(PID.TID 0000.0001)                 2.900000000000000E+02,      /* K =  7 */
(PID.TID 0000.0001)                 3.400000000000000E+02,      /* K =  8 */
(PID.TID 0000.0001)                 3.900000000000000E+02,      /* K =  9 */
(PID.TID 0000.0001)                 4.400000000000000E+02,      /* K = 10 */
(PID.TID 0000.0001)                 4.900000000000000E+02,      /* K = 11 */
(PID.TID 0000.0001)                 5.400000000000000E+02,      /* K = 12 */
(PID.TID 0000.0001)                 5.900000000000000E+02,      /* K = 13 */
(PID.TID 0000.0001)                 6.400000000000000E+02,      /* K = 14 */
(PID.TID 0000.0001)                 6.900000000000000E+02       /* K = 15 */
(PID.TID 0000.0001)     ;
(PID.TID 0000.0001) delX =   /* U spacing ( m - cartesian, degrees - spherical ) */
(PID.TID 0000.0001)   192 @  1.234567000000000E+05              /* I =  1:192 */
(PID.TID 0000.0001)     ;
(PID.TID 0000.0001) delY =   /* V spacing ( m - cartesian, degrees - spherical ) */
(PID.TID 0000.0001)    32 @  1.234567000000000E+05              /* J =  1: 32 */
(PID.TID 0000.0001)     ;
(PID.TID 0000.0001) phiMin =    /* South edge (ignored - cartesian, degrees - spherical ) */
(PID.TID 0000.0001)                 0.000000000000000E+00
(PID.TID 0000.0001)     ;
(PID.TID 0000.0001) thetaMin =    /* West edge ( ignored - cartesian, degrees - spherical ) */
(PID.TID 0000.0001)                 0.000000000000000E+00
(PID.TID 0000.0001)     ;
(PID.TID 0000.0001) rSphere =  /* Radius ( ignored - cartesian, m - spherical ) */
(PID.TID 0000.0001)                 6.370000000000000E+06
(PID.TID 0000.0001)     ;
(PID.TID 0000.0001) deepAtmosphere = /* Deep/Shallow Atmosphere flag (True/False) */
(PID.TID 0000.0001)                   F
(PID.TID 0000.0001)     ;
(PID.TID 0000.0001) xcoord =   /* P-point X coord ( m - cartesian, degrees - spherical ) */
(PID.TID 0000.0001)                -4.439521994760536E+01,      /* I =  1 */
(PID.TID 0000.0001)                -4.295641272275883E+01,      /* I =  2 */
(PID.TID 0000.0001)                -4.122055553388957E+01,      /* I =  3 */
(PID.TID 0000.0001)                -3.923446288487304E+01,      /* I =  4 */
(PID.TID 0000.0001)                -3.702585158682200E+01,      /* I =  5 */
(PID.TID 0000.0001)                -3.461179367094151E+01,      /* I =  6 */
(PID.TID 0000.0001)                -3.200434569041793E+01,      /* I =  7 */
(PID.TID 0000.0001)                -2.921355965632675E+01,      /* I =  8 */
(PID.TID 0000.0001)                -2.624932223028290E+01,      /* I =  9 */
(PID.TID 0000.0001)                -2.312261250426344E+01,      /* I = 10 */
(PID.TID 0000.0001)                -1.984640717127058E+01,      /* I = 11 */
(PID.TID 0000.0001)                -1.643630800555134E+01,      /* I = 12 */
(PID.TID 0000.0001)                -1.291089806302069E+01,      /* I = 13 */
(PID.TID 0000.0001)                -9.291807802719402E+00,      /* I = 14 */
(PID.TID 0000.0001)                -5.603475335822332E+00,      /* I = 15 */
(PID.TID 0000.0001)                -1.872608513033445E+00,      /* I = 16 */
(PID.TID 0000.0001)                 1.872608513033445E+00,      /* I = 17 */
(PID.TID 0000.0001)                 5.603475335822332E+00,      /* I = 18 */
(PID.TID 0000.0001)                 9.291807802719402E+00,      /* I = 19 */
(PID.TID 0000.0001)                 1.291089806302069E+01,      /* I = 20 */
(PID.TID 0000.0001)                 1.643630800555134E+01,      /* I = 21 */
(PID.TID 0000.0001)                 1.984640717127058E+01,      /* I = 22 */
(PID.TID 0000.0001)                 2.312261250426344E+01,      /* I = 23 */
(PID.TID 0000.0001)                 2.624932223028290E+01,      /* I = 24 */
(PID.TID 0000.0001)                 2.921355965632675E+01,      /* I = 25 */
(PID.TID 0000.0001)                 3.200434569041793E+01,      /* I = 26 */
(PID.TID 0000.0001)                 3.461179367094151E+01,      /* I = 27 */
(PID.TID 0000.0001)                 3.702585158682200E+01,      /* I = 28 */
(PID.TID 0000.0001)                 3.923446288487304E+01,      /* I = 29 */
(PID.TID 0000.0001)                 4.122055553388957E+01,      /* I = 30 */
(PID.TID 0000.0001)                 4.295641272275883E+01,      /* I = 31 */
(PID.TID 0000.0001)                 4.439521994760536E+01,      /* I = 32 */
(PID.TID 0000.0001)                 4.560478005239464E+01,      /* I = 33 */
(PID.TID 0000.0001)                 4.704358727724117E+01,      /* I = 34 */
(PID.TID 0000.0001)                 4.877944446611043E+01,      /* I = 35 */
(PID.TID 0000.0001)                 5.076553711512697E+01,      /* I = 36 */
(PID.TID 0000.0001)                 5.297414841317801E+01,      /* I = 37 */
(PID.TID 0000.0001)                 5.538820632905850E+01,      /* I = 38 */
(PID.TID 0000.0001)                 5.799565430958209E+01,      /* I = 39 */
(PID.TID 0000.0001)                 6.078644034367325E+01,      /* I = 40 */
(PID.TID 0000.0001)                 6.375067776971711E+01,      /* I = 41 */
(PID.TID 0000.0001)                 6.687738749573657E+01,      /* I = 42 */
(PID.TID 0000.0001)                 7.015359282872943E+01,      /* I = 43 */
(PID.TID 0000.0001)                 7.356369199444866E+01,      /* I = 44 */
(PID.TID 0000.0001)                 7.708910193697932E+01,      /* I = 45 */
(PID.TID 0000.0001)                 8.070819219728060E+01,      /* I = 46 */
(PID.TID 0000.0001)                 8.439652466417766E+01,      /* I = 47 */
(PID.TID 0000.0001)                 8.812739148696656E+01,      /* I = 48 */
(PID.TID 0000.0001)                 9.187260851303344E+01,      /* I = 49 */
(PID.TID 0000.0001)                 9.560347533582234E+01,      /* I = 50 */
(PID.TID 0000.0001)                 9.929180780271940E+01,      /* I = 51 */
(PID.TID 0000.0001)                 1.029108980630207E+02,      /* I = 52 */
(PID.TID 0000.0001)                 1.064363080055513E+02,      /* I = 53 */
(PID.TID 0000.0001)                 1.098464071712706E+02,      /* I = 54 */
(PID.TID 0000.0001)                 1.131226125042634E+02,      /* I = 55 */
(PID.TID 0000.0001)                 1.162493222302829E+02,      /* I = 56 */
(PID.TID 0000.0001)                 1.192135596563268E+02,      /* I = 57 */
(PID.TID 0000.0001)                 1.220043456904179E+02,      /* I = 58 */
(PID.TID 0000.0001)                 1.246117936709415E+02,      /* I = 59 */
(PID.TID 0000.0001)                 1.270258515868220E+02,      /* I = 60 */
(PID.TID 0000.0001)                 1.292344628848730E+02,      /* I = 61 */
(PID.TID 0000.0001)                 1.312205555338896E+02,      /* I = 62 */
(PID.TID 0000.0001)                 1.329564127227588E+02,      /* I = 63 */
(PID.TID 0000.0001)                 1.343952199476053E+02,      /* I = 64 */
(PID.TID 0000.0001)                 4.500000000000000E+01,      /* I = 65 */
(PID.TID 0000.0001)                 4.620805468796297E+01,      /* I = 66 */
(PID.TID 0000.0001)                 4.781369642513039E+01,      /* I = 67 */
(PID.TID 0000.0001)                 4.971767671143929E+01,      /* I = 68 */
(PID.TID 0000.0001)                 5.187738319787235E+01,      /* I = 69 */
(PID.TID 0000.0001)                 5.427004371478710E+01,      /* I = 70 */
(PID.TID 0000.0001)                 5.688128325334060E+01,      /* I = 71 */
(PID.TID 0000.0001)                 5.970018167786760E+01,      /* I = 72 */
(PID.TID 0000.0001)                 6.271654991792347E+01,      /* I = 73 */
(PID.TID 0000.0001)                 6.591914604853015E+01,      /* I = 74 */
(PID.TID 0000.0001)                 6.929439270484148E+01,      /* I = 75 */
(PID.TID 0000.0001)                 7.282545807616151E+01,      /* I = 76 */
(PID.TID 0000.0001)                 7.649168830618933E+01,      /* I = 77 */
(PID.TID 0000.0001)                 8.026842803787176E+01,      /* I = 78 */
(PID.TID 0000.0001)                 8.412726743124185E+01,      /* I = 79 */
(PID.TID 0000.0001)                 8.803672008547504E+01,      /* I = 80 */
(PID.TID 0000.0001)                 9.196327991452496E+01,      /* I = 81 */
(PID.TID 0000.0001)                 9.587273256875815E+01,      /* I = 82 */
(PID.TID 0000.0001)                 9.973157196212824E+01,      /* I = 83 */
(PID.TID 0000.0001)                 1.035083116938107E+02,      /* I = 84 */
(PID.TID 0000.0001)                 1.071745419238385E+02,      /* I = 85 */
(PID.TID 0000.0001)                 1.107056072951585E+02,      /* I = 86 */
(PID.TID 0000.0001)                 1.140808539514698E+02,      /* I = 87 */
(PID.TID 0000.0001)                 1.172834500820765E+02,      /* I = 88 */
(PID.TID 0000.0001)                 1.202998183221324E+02,      /* I = 89 */
(PID.TID 0000.0001)                 1.231187167466594E+02,      /* I = 90 */
(PID.TID 0000.0001)                 1.257299562852129E+02,      /* I = 91 */
(PID.TID 0000.0001)                 1.281226168021277E+02,      /* I = 92 */
(PID.TID 0000.0001)                 1.302823232885607E+02,      /* I = 93 */
(PID.TID 0000.0001)                 1.321863035748696E+02,      /* I = 94 */
(PID.TID 0000.0001)                 1.337919453120370E+02,      /* I = 95 */
(PID.TID 0000.0001)                 1.350000000000000E+02,      /* I = 96 */
(PID.TID 0000.0001)                 1.356047800523947E+02,      /* I = 97 */
(PID.TID 0000.0001)                 1.358367907661329E+02,      /* I = 98 */
(PID.TID 0000.0001)                 1.359720382181193E+02,      /* I = 99 */
(PID.TID 0000.0001)                 1.360654656901789E+02,      /* I =100 */
(PID.TID 0000.0001)                 1.361344533147042E+02,      /* I =101 */
(PID.TID 0000.0001)                 1.361871219420981E+02,      /* I =102 */
(PID.TID 0000.0001)                 1.362280794509603E+02,      /* I =103 */
(PID.TID 0000.0001)                 1.362602511071934E+02,      /* I =104 */
(PID.TID 0000.0001)                 1.362856280326734E+02,      /* I =105 */
(PID.TID 0000.0001)                 1.363056266270901E+02,      /* I =106 */
(PID.TID 0000.0001)                 1.363212817739446E+02,      /* I =107 */
(PID.TID 0000.0001)                 1.363333595910255E+02,      /* I =108 */
(PID.TID 0000.0001)                 1.363424272425760E+02,      /* I =109 */
(PID.TID 0000.0001)                 1.363488978790713E+02,      /* I =110 */
(PID.TID 0000.0001)                 1.363530600590580E+02,      /* I =111 */
(PID.TID 0000.0001)     2 @  1.363550967500717E+02,             /* I =112:113 */
(PID.TID 0000.0001)                 1.363530600590580E+02,      /* I =114 */
(PID.TID 0000.0001)                 1.363488978790713E+02,      /* I =115 */
(PID.TID 0000.0001)                 1.363424272425760E+02,      /* I =116 */
(PID.TID 0000.0001)                 1.363333595910255E+02,      /* I =117 */
(PID.TID 0000.0001)                 1.363212817739446E+02,      /* I =118 */
(PID.TID 0000.0001)                 1.363056266270901E+02,      /* I =119 */
(PID.TID 0000.0001)                 1.362856280326734E+02,      /* I =120 */
(PID.TID 0000.0001)                 1.362602511071934E+02,      /* I =121 */
(PID.TID 0000.0001)                 1.362280794509603E+02,      /* I =122 */
(PID.TID 0000.0001)                 1.361871219420981E+02,      /* I =123 */
(PID.TID 0000.0001)                 1.361344533147042E+02,      /* I =124 */
(PID.TID 0000.0001)                 1.360654656901789E+02,      /* I =125 */
(PID.TID 0000.0001)                 1.359720382181193E+02,      /* I =126 */
(PID.TID 0000.0001)                 1.358367907661329E+02,      /* I =127 */
(PID.TID 0000.0001)                 1.356047800523947E+02,      /* I =128 */
(PID.TID 0000.0001)                -1.343952199476053E+02,      /* I =129 */
(PID.TID 0000.0001)                -1.341632092338671E+02,      /* I =130 */
(PID.TID 0000.0001)                -1.340279617818807E+02,      /* I =131 */
(PID.TID 0000.0001)                -1.339345343098211E+02,      /* I =132 */
(PID.TID 0000.0001)                -1.338655466852958E+02,      /* I =133 */
(PID.TID 0000.0001)                -1.338128780579019E+02,      /* I =134 */
(PID.TID 0000.0001)                -1.337719205490397E+02,      /* I =135 */
(PID.TID 0000.0001)                -1.337397488928066E+02,      /* I =136 */
(PID.TID 0000.0001)                -1.337143719673266E+02,      /* I =137 */
(PID.TID 0000.0001)                -1.336943733729099E+02,      /* I =138 */
(PID.TID 0000.0001)                -1.336787182260554E+02,      /* I =139 */
(PID.TID 0000.0001)                -1.336666404089745E+02,      /* I =140 */
(PID.TID 0000.0001)                -1.336575727574240E+02,      /* I =141 */
(PID.TID 0000.0001)                -1.336511021209287E+02,      /* I =142 */
(PID.TID 0000.0001)                -1.336469399409420E+02,      /* I =143 */
(PID.TID 0000.0001)     2 @ -1.336449032499283E+02,             /* I =144:145 */
(PID.TID 0000.0001)                -1.336469399409420E+02,      /* I =146 */
(PID.TID 0000.0001)                -1.336511021209287E+02,      /* I =147 */
(PID.TID 0000.0001)                -1.336575727574240E+02,      /* I =148 */
(PID.TID 0000.0001)                -1.336666404089745E+02,      /* I =149 */
(PID.TID 0000.0001)                -1.336787182260554E+02,      /* I =150 */
(PID.TID 0000.0001)                -1.336943733729099E+02,      /* I =151 */
(PID.TID 0000.0001)                -1.337143719673266E+02,      /* I =152 */
(PID.TID 0000.0001)                -1.337397488928066E+02,      /* I =153 */
(PID.TID 0000.0001)                -1.337719205490397E+02,      /* I =154 */
(PID.TID 0000.0001)                -1.338128780579019E+02,      /* I =155 */
(PID.TID 0000.0001)                -1.338655466852958E+02,      /* I =156 */
(PID.TID 0000.0001)                -1.339345343098211E+02,      /* I =157 */
(PID.TID 0000.0001)                -1.340279617818807E+02,      /* I =158 */
(PID.TID 0000.0001)                -1.341632092338671E+02,      /* I =159 */
(PID.TID 0000.0001)                -1.343952199476053E+02,      /* I =160 */
(PID.TID 0000.0001)                -1.350000000000000E+02,      /* I =161 */
(PID.TID 0000.0001)                -1.362080546879630E+02,      /* I =162 */
(PID.TID 0000.0001)                -1.378136964251304E+02,      /* I =163 */
(PID.TID 0000.0001)                -1.397176767114393E+02,      /* I =164 */
(PID.TID 0000.0001)                -1.418773831978723E+02,      /* I =165 */
(PID.TID 0000.0001)                -1.442700437147871E+02,      /* I =166 */
(PID.TID 0000.0001)                -1.468812832533406E+02,      /* I =167 */
(PID.TID 0000.0001)                -1.497001816778676E+02,      /* I =168 */
(PID.TID 0000.0001)                -1.527165499179235E+02,      /* I =169 */
(PID.TID 0000.0001)                -1.559191460485302E+02,      /* I =170 */
(PID.TID 0000.0001)                -1.592943927048415E+02,      /* I =171 */
(PID.TID 0000.0001)                -1.628254580761615E+02,      /* I =172 */
(PID.TID 0000.0001)                -1.664916883061893E+02,      /* I =173 */
(PID.TID 0000.0001)                -1.702684280378718E+02,      /* I =174 */
(PID.TID 0000.0001)                -1.741272674312418E+02,      /* I =175 */
(PID.TID 0000.0001)                -1.780367200854751E+02,      /* I =176 */
(PID.TID 0000.0001)                 1.780367200854751E+02,      /* I =177 */
(PID.TID 0000.0001)                 1.741272674312418E+02,      /* I =178 */
(PID.TID 0000.0001)                 1.702684280378718E+02,      /* I =179 */
(PID.TID 0000.0001)                 1.664916883061893E+02,      /* I =180 */
(PID.TID 0000.0001)                 1.628254580761615E+02,      /* I =181 */
(PID.TID 0000.0001)                 1.592943927048415E+02,      /* I =182 */
(PID.TID 0000.0001)                 1.559191460485302E+02,      /* I =183 */
(PID.TID 0000.0001)                 1.527165499179235E+02,      /* I =184 */
(PID.TID 0000.0001)                 1.497001816778676E+02,      /* I =185 */
(PID.TID 0000.0001)                 1.468812832533406E+02,      /* I =186 */
(PID.TID 0000.0001)                 1.442700437147871E+02,      /* I =187 */
(PID.TID 0000.0001)                 1.418773831978723E+02,      /* I =188 */
(PID.TID 0000.0001)                 1.397176767114393E+02,      /* I =189 */
(PID.TID 0000.0001)                 1.378136964251304E+02,      /* I =190 */
(PID.TID 0000.0001)                 1.362080546879630E+02,      /* I =191 */
(PID.TID 0000.0001)                 1.350000000000000E+02       /* I =192 */
(PID.TID 0000.0001)     ;
(PID.TID 0000.0001) ycoord =   /* P-point Y coord ( m - cartesian, degrees - spherical ) */
(PID.TID 0000.0001)                -3.497677942598243E+01,      /* J =  1 */
(PID.TID 0000.0001)                -3.374005967394886E+01,      /* J =  2 */
(PID.TID 0000.0001)                -3.220655175667454E+01,      /* J =  3 */
(PID.TID 0000.0001)                -3.045756348838641E+01,      /* J =  4 */
(PID.TID 0000.0001)                -2.853728129852918E+01,      /* J =  5 */
(PID.TID 0000.0001)                -2.647426640173173E+01,      /* J =  6 */
(PID.TID 0000.0001)                -2.428936657094636E+01,      /* J =  7 */
(PID.TID 0000.0001)                -2.199915808312262E+01,      /* J =  8 */
(PID.TID 0000.0001)                -1.961768597440146E+01,      /* J =  9 */
(PID.TID 0000.0001)                -1.715743888281371E+01,      /* J = 10 */
(PID.TID 0000.0001)                -1.462993396899330E+01,      /* J = 11 */
(PID.TID 0000.0001)                -1.204608340464756E+01,      /* J = 12 */
(PID.TID 0000.0001)                -9.416429130284818E+00,      /* J = 13 */
(PID.TID 0000.0001)                -6.751293662992216E+00,      /* J = 14 */
(PID.TID 0000.0001)                -4.060875511835959E+00,      /* J = 15 */
(PID.TID 0000.0001)                -1.355307764409121E+00,      /* J = 16 */
(PID.TID 0000.0001)                 1.355307764409121E+00,      /* J = 17 */
(PID.TID 0000.0001)                 4.060875511835959E+00,      /* J = 18 */
(PID.TID 0000.0001)                 6.751293662992216E+00,      /* J = 19 */
(PID.TID 0000.0001)                 9.416429130284818E+00,      /* J = 20 */
(PID.TID 0000.0001)                 1.204608340464756E+01,      /* J = 21 */
(PID.TID 0000.0001)                 1.462993396899330E+01,      /* J = 22 */
(PID.TID 0000.0001)                 1.715743888281371E+01,      /* J = 23 */
(PID.TID 0000.0001)                 1.961768597440146E+01,      /* J = 24 */
(PID.TID 0000.0001)                 2.199915808312262E+01,      /* J = 25 */
(PID.TID 0000.0001)                 2.428936657094636E+01,      /* J = 26 */
(PID.TID 0000.0001)                 2.647426640173173E+01,      /* J = 27 */
(PID.TID 0000.0001)                 2.853728129852918E+01,      /* J = 28 */
(PID.TID 0000.0001)                 3.045756348838641E+01,      /* J = 29 */
(PID.TID 0000.0001)                 3.220655175667454E+01,      /* J = 30 */
(PID.TID 0000.0001)                 3.374005967394886E+01,      /* J = 31 */
(PID.TID 0000.0001)                 3.497677942598243E+01       /* J = 32 */
(PID.TID 0000.0001)     ;
(PID.TID 0000.0001) rcoord =   /* P-point R coordinate (  units of r ) */
(PID.TID 0000.0001)                -2.500000000000000E+01,      /* K =  1 */
(PID.TID 0000.0001)                -8.500000000000000E+01,      /* K =  2 */
(PID.TID 0000.0001)                -1.700000000000000E+02,      /* K =  3 */
(PID.TID 0000.0001)                -2.900000000000000E+02,      /* K =  4 */
(PID.TID 0000.0001)                -4.550000000000000E+02,      /* K =  5 */
(PID.TID 0000.0001)                -6.700000000000000E+02,      /* K =  6 */
(PID.TID 0000.0001)                -9.350000000000000E+02,      /* K =  7 */
(PID.TID 0000.0001)                -1.250000000000000E+03,      /* K =  8 */
(PID.TID 0000.0001)                -1.615000000000000E+03,      /* K =  9 */
(PID.TID 0000.0001)                -2.030000000000000E+03,      /* K = 10 */
(PID.TID 0000.0001)                -2.495000000000000E+03,      /* K = 11 */
(PID.TID 0000.0001)                -3.010000000000000E+03,      /* K = 12 */
(PID.TID 0000.0001)                -3.575000000000000E+03,      /* K = 13 */
(PID.TID 0000.0001)                -4.190000000000000E+03,      /* K = 14 */
(PID.TID 0000.0001)                -4.855000000000000E+03       /* K = 15 */
(PID.TID 0000.0001)     ;
(PID.TID 0000.0001) rF =   /* W-Interf. R coordinate (  units of r ) */
(PID.TID 0000.0001)                 0.000000000000000E+00,      /* K =  1 */
(PID.TID 0000.0001)                -5.000000000000000E+01,      /* K =  2 */
(PID.TID 0000.0001)                -1.200000000000000E+02,      /* K =  3 */
(PID.TID 0000.0001)                -2.200000000000000E+02,      /* K =  4 */
(PID.TID 0000.0001)                -3.600000000000000E+02,      /* K =  5 */
(PID.TID 0000.0001)                -5.500000000000000E+02,      /* K =  6 */
(PID.TID 0000.0001)                -7.900000000000000E+02,      /* K =  7 */
(PID.TID 0000.0001)                -1.080000000000000E+03,      /* K =  8 */
(PID.TID 0000.0001)                -1.420000000000000E+03,      /* K =  9 */
(PID.TID 0000.0001)                -1.810000000000000E+03,      /* K = 10 */
(PID.TID 0000.0001)                -2.250000000000000E+03,      /* K = 11 */
(PID.TID 0000.0001)                -2.740000000000000E+03,      /* K = 12 */
(PID.TID 0000.0001)                -3.280000000000000E+03,      /* K = 13 */
(PID.TID 0000.0001)                -3.870000000000000E+03,      /* K = 14 */
(PID.TID 0000.0001)                -4.510000000000000E+03,      /* K = 15 */
(PID.TID 0000.0001)                -5.200000000000000E+03       /* K = 16 */
(PID.TID 0000.0001)     ;
(PID.TID 0000.0001) deepFacC = /* deep-model grid factor @ cell-Center (-) */
(PID.TID 0000.0001)    15 @  1.000000000000000E+00              /* K =  1: 15 */
(PID.TID 0000.0001)     ;
(PID.TID 0000.0001) deepFacF = /* deep-model grid factor @ W-Interface (-) */
(PID.TID 0000.0001)    16 @  1.000000000000000E+00              /* K =  1: 16 */
(PID.TID 0000.0001)     ;
(PID.TID 0000.0001) rVel2wUnit = /* convert units: rVel -> wSpeed (=1 if z-coord)*/
(PID.TID 0000.0001)    16 @  1.000000000000000E+00              /* K =  1: 16 */
(PID.TID 0000.0001)     ;
(PID.TID 0000.0001) wUnit2rVel = /* convert units: wSpeed -> rVel (=1 if z-coord)*/
(PID.TID 0000.0001)    16 @  1.000000000000000E+00              /* K =  1: 16 */
(PID.TID 0000.0001)     ;
(PID.TID 0000.0001) dBdrRef = /* Vertical gradient of reference boyancy [(m/s/r)^2)] */
(PID.TID 0000.0001)    15 @  0.000000000000000E+00              /* K =  1: 15 */
(PID.TID 0000.0001)     ;
(PID.TID 0000.0001) rotateGrid = /* use rotated grid ( True/False ) */
(PID.TID 0000.0001)                   F
(PID.TID 0000.0001)     ;
(PID.TID 0000.0001) phiEuler = /* Euler angle, rotation about original z-coordinate [rad] */
(PID.TID 0000.0001)                 0.000000000000000E+00
(PID.TID 0000.0001)     ;
(PID.TID 0000.0001) thetaEuler = /* Euler angle, rotation about new x-coordinate [rad] */
(PID.TID 0000.0001)                 0.000000000000000E+00
(PID.TID 0000.0001)     ;
(PID.TID 0000.0001) psiEuler = /* Euler angle, rotation about new z-coordinate [rad] */
(PID.TID 0000.0001)                 0.000000000000000E+00
(PID.TID 0000.0001)     ;
(PID.TID 0000.0001) dxF =  /* dxF(:,1,:,1) ( units: m ) */
(PID.TID 0000.0001)                 1.202082051331828E+05,      /* I =  1 */
(PID.TID 0000.0001)                 1.563594089971120E+05,      /* I =  2 */
(PID.TID 0000.0001)                 1.835530058121492E+05,      /* I =  3 */
(PID.TID 0000.0001)                 2.045883481718707E+05,      /* I =  4 */
(PID.TID 0000.0001)                 2.218350349844185E+05,      /* I =  5 */
(PID.TID 0000.0001)                 2.364352994647058E+05,      /* I =  6 */
(PID.TID 0000.0001)                 2.490022710862746E+05,      /* I =  7 */
(PID.TID 0000.0001)                 2.598919724358304E+05,      /* I =  8 */
(PID.TID 0000.0001)                 2.693210245495156E+05,      /* I =  9 */
(PID.TID 0000.0001)                 2.774243179696503E+05,      /* I = 10 */
(PID.TID 0000.0001)                 2.842862532064524E+05,      /* I = 11 */
(PID.TID 0000.0001)                 2.899590699694043E+05,      /* I = 12 */
(PID.TID 0000.0001)                 2.944742915095688E+05,      /* I = 13 */
(PID.TID 0000.0001)                 2.978501920522794E+05,      /* I = 14 */
(PID.TID 0000.0001)                 3.000967749619962E+05,      /* I = 15 */
(PID.TID 0000.0001)     2 @  3.012190981969055E+05,             /* I = 16: 17 */
(PID.TID 0000.0001)                 3.000967749619962E+05,      /* I = 18 */
(PID.TID 0000.0001)                 2.978501920522794E+05,      /* I = 19 */
(PID.TID 0000.0001)                 2.944742915095688E+05,      /* I = 20 */
(PID.TID 0000.0001)                 2.899590699694043E+05,      /* I = 21 */
(PID.TID 0000.0001)                 2.842862532064524E+05,      /* I = 22 */
(PID.TID 0000.0001)                 2.774243179696503E+05,      /* I = 23 */
(PID.TID 0000.0001)                 2.693210245495156E+05,      /* I = 24 */
(PID.TID 0000.0001)                 2.598919724358304E+05,      /* I = 25 */
(PID.TID 0000.0001)                 2.490022710862746E+05,      /* I = 26 */
(PID.TID 0000.0001)                 2.364352994647058E+05,      /* I = 27 */
(PID.TID 0000.0001)                 2.218350349844185E+05,      /* I = 28 */
(PID.TID 0000.0001)                 2.045883481718707E+05,      /* I = 29 */
(PID.TID 0000.0001)                 1.835530058121492E+05,      /* I = 30 */
(PID.TID 0000.0001)                 1.563594089971120E+05,      /* I = 31 */
(PID.TID 0000.0001)     2 @  1.202082051331828E+05,             /* I = 32: 33 */
(PID.TID 0000.0001)                 1.563594089971120E+05,      /* I = 34 */
(PID.TID 0000.0001)                 1.835530058121492E+05,      /* I = 35 */
(PID.TID 0000.0001)                 2.045883481718707E+05,      /* I = 36 */
(PID.TID 0000.0001)                 2.218350349844185E+05,      /* I = 37 */
(PID.TID 0000.0001)                 2.364352994647058E+05,      /* I = 38 */
(PID.TID 0000.0001)                 2.490022710862746E+05,      /* I = 39 */
(PID.TID 0000.0001)                 2.598919724358304E+05,      /* I = 40 */
(PID.TID 0000.0001)                 2.693210245495156E+05,      /* I = 41 */
(PID.TID 0000.0001)                 2.774243179696503E+05,      /* I = 42 */
(PID.TID 0000.0001)                 2.842862532064524E+05,      /* I = 43 */
(PID.TID 0000.0001)                 2.899590699694043E+05,      /* I = 44 */
(PID.TID 0000.0001)                 2.944742915095688E+05,      /* I = 45 */
(PID.TID 0000.0001)                 2.978501920522794E+05,      /* I = 46 */
(PID.TID 0000.0001)                 3.000967749619962E+05,      /* I = 47 */
(PID.TID 0000.0001)     2 @  3.012190981969055E+05,             /* I = 48: 49 */
(PID.TID 0000.0001)                 3.000967749619962E+05,      /* I = 50 */
(PID.TID 0000.0001)                 2.978501920522794E+05,      /* I = 51 */
(PID.TID 0000.0001)                 2.944742915095688E+05,      /* I = 52 */
(PID.TID 0000.0001)                 2.899590699694043E+05,      /* I = 53 */
(PID.TID 0000.0001)                 2.842862532064524E+05,      /* I = 54 */
(PID.TID 0000.0001)                 2.774243179696503E+05,      /* I = 55 */
(PID.TID 0000.0001)                 2.693210245495156E+05,      /* I = 56 */
(PID.TID 0000.0001)                 2.598919724358304E+05,      /* I = 57 */
(PID.TID 0000.0001)                 2.490022710862746E+05,      /* I = 58 */
(PID.TID 0000.0001)                 2.364352994647058E+05,      /* I = 59 */
(PID.TID 0000.0001)                 2.218350349844185E+05,      /* I = 60 */
(PID.TID 0000.0001)                 2.045883481718707E+05,      /* I = 61 */
(PID.TID 0000.0001)                 1.835530058121492E+05,      /* I = 62 */
(PID.TID 0000.0001)                 1.563594089971120E+05,      /* I = 63 */
(PID.TID 0000.0001)     2 @  1.202082051331828E+05,             /* I = 64: 65 */
(PID.TID 0000.0001)                 1.563594089971120E+05,      /* I = 66 */
(PID.TID 0000.0001)                 1.835530058121492E+05,      /* I = 67 */
(PID.TID 0000.0001)                 2.045883481718707E+05,      /* I = 68 */
(PID.TID 0000.0001)                 2.218350349844185E+05,      /* I = 69 */
(PID.TID 0000.0001)                 2.364352994647058E+05,      /* I = 70 */
(PID.TID 0000.0001)                 2.490022710862746E+05,      /* I = 71 */
(PID.TID 0000.0001)                 2.598919724358304E+05,      /* I = 72 */
(PID.TID 0000.0001)                 2.693210245495156E+05,      /* I = 73 */
(PID.TID 0000.0001)                 2.774243179696503E+05,      /* I = 74 */
(PID.TID 0000.0001)                 2.842862532064524E+05,      /* I = 75 */
(PID.TID 0000.0001)                 2.899590699694043E+05,      /* I = 76 */
(PID.TID 0000.0001)                 2.944742915095688E+05,      /* I = 77 */
(PID.TID 0000.0001)                 2.978501920522794E+05,      /* I = 78 */
(PID.TID 0000.0001)                 3.000967749619962E+05,      /* I = 79 */
(PID.TID 0000.0001)     2 @  3.012190981969055E+05,             /* I = 80: 81 */
(PID.TID 0000.0001)                 3.000967749619962E+05,      /* I = 82 */
(PID.TID 0000.0001)                 2.978501920522794E+05,      /* I = 83 */
(PID.TID 0000.0001)                 2.944742915095688E+05,      /* I = 84 */
(PID.TID 0000.0001)                 2.899590699694043E+05,      /* I = 85 */
(PID.TID 0000.0001)                 2.842862532064524E+05,      /* I = 86 */
(PID.TID 0000.0001)                 2.774243179696503E+05,      /* I = 87 */
(PID.TID 0000.0001)                 2.693210245495156E+05,      /* I = 88 */
(PID.TID 0000.0001)                 2.598919724358304E+05,      /* I = 89 */
(PID.TID 0000.0001)                 2.490022710862746E+05,      /* I = 90 */
(PID.TID 0000.0001)                 2.364352994647058E+05,      /* I = 91 */
(PID.TID 0000.0001)                 2.218350349844185E+05,      /* I = 92 */
(PID.TID 0000.0001)                 2.045883481718707E+05,      /* I = 93 */
(PID.TID 0000.0001)                 1.835530058121492E+05,      /* I = 94 */
(PID.TID 0000.0001)                 1.563594089971120E+05,      /* I = 95 */
(PID.TID 0000.0001)     2 @  1.202082051331828E+05,             /* I = 96: 97 */
(PID.TID 0000.0001)                 1.563594089971120E+05,      /* I = 98 */
(PID.TID 0000.0001)                 1.835530058121492E+05,      /* I = 99 */
(PID.TID 0000.0001)                 2.045883481718707E+05,      /* I =100 */
(PID.TID 0000.0001)                 2.218350349844185E+05,      /* I =101 */
(PID.TID 0000.0001)                 2.364352994647058E+05,      /* I =102 */
(PID.TID 0000.0001)                 2.490022710862746E+05,      /* I =103 */
(PID.TID 0000.0001)                 2.598919724358304E+05,      /* I =104 */
(PID.TID 0000.0001)                 2.693210245495156E+05,      /* I =105 */
(PID.TID 0000.0001)                 2.774243179696503E+05,      /* I =106 */
(PID.TID 0000.0001)                 2.842862532064524E+05,      /* I =107 */
(PID.TID 0000.0001)                 2.899590699694043E+05,      /* I =108 */
(PID.TID 0000.0001)                 2.944742915095688E+05,      /* I =109 */
(PID.TID 0000.0001)                 2.978501920522794E+05,      /* I =110 */
(PID.TID 0000.0001)                 3.000967749619962E+05,      /* I =111 */
(PID.TID 0000.0001)     2 @  3.012190981969055E+05,             /* I =112:113 */
(PID.TID 0000.0001)                 3.000967749619962E+05,      /* I =114 */
(PID.TID 0000.0001)                 2.978501920522794E+05,      /* I =115 */
(PID.TID 0000.0001)                 2.944742915095688E+05,      /* I =116 */
(PID.TID 0000.0001)                 2.899590699694043E+05,      /* I =117 */
(PID.TID 0000.0001)                 2.842862532064524E+05,      /* I =118 */
(PID.TID 0000.0001)                 2.774243179696503E+05,      /* I =119 */
(PID.TID 0000.0001)                 2.693210245495156E+05,      /* I =120 */
(PID.TID 0000.0001)                 2.598919724358304E+05,      /* I =121 */
(PID.TID 0000.0001)                 2.490022710862746E+05,      /* I =122 */
(PID.TID 0000.0001)                 2.364352994647058E+05,      /* I =123 */
(PID.TID 0000.0001)                 2.218350349844185E+05,      /* I =124 */
(PID.TID 0000.0001)                 2.045883481718707E+05,      /* I =125 */
(PID.TID 0000.0001)                 1.835530058121492E+05,      /* I =126 */
(PID.TID 0000.0001)                 1.563594089971120E+05,      /* I =127 */
(PID.TID 0000.0001)     2 @  1.202082051331828E+05,             /* I =128:129 */
(PID.TID 0000.0001)                 1.563594089971120E+05,      /* I =130 */
(PID.TID 0000.0001)                 1.835530058121492E+05,      /* I =131 */
(PID.TID 0000.0001)                 2.045883481718707E+05,      /* I =132 */
(PID.TID 0000.0001)                 2.218350349844185E+05,      /* I =133 */
(PID.TID 0000.0001)                 2.364352994647058E+05,      /* I =134 */
(PID.TID 0000.0001)                 2.490022710862746E+05,      /* I =135 */
(PID.TID 0000.0001)                 2.598919724358304E+05,      /* I =136 */
(PID.TID 0000.0001)                 2.693210245495156E+05,      /* I =137 */
(PID.TID 0000.0001)                 2.774243179696503E+05,      /* I =138 */
(PID.TID 0000.0001)                 2.842862532064524E+05,      /* I =139 */
(PID.TID 0000.0001)                 2.899590699694043E+05,      /* I =140 */
(PID.TID 0000.0001)                 2.944742915095688E+05,      /* I =141 */
(PID.TID 0000.0001)                 2.978501920522794E+05,      /* I =142 */
(PID.TID 0000.0001)                 3.000967749619962E+05,      /* I =143 */
(PID.TID 0000.0001)     2 @  3.012190981969055E+05,             /* I =144:145 */
(PID.TID 0000.0001)                 3.000967749619962E+05,      /* I =146 */
(PID.TID 0000.0001)                 2.978501920522794E+05,      /* I =147 */
(PID.TID 0000.0001)                 2.944742915095688E+05,      /* I =148 */
(PID.TID 0000.0001)                 2.899590699694043E+05,      /* I =149 */
(PID.TID 0000.0001)                 2.842862532064524E+05,      /* I =150 */
(PID.TID 0000.0001)                 2.774243179696503E+05,      /* I =151 */
(PID.TID 0000.0001)                 2.693210245495156E+05,      /* I =152 */
(PID.TID 0000.0001)                 2.598919724358304E+05,      /* I =153 */
(PID.TID 0000.0001)                 2.490022710862746E+05,      /* I =154 */
(PID.TID 0000.0001)                 2.364352994647058E+05,      /* I =155 */
(PID.TID 0000.0001)                 2.218350349844185E+05,      /* I =156 */
(PID.TID 0000.0001)                 2.045883481718707E+05,      /* I =157 */
(PID.TID 0000.0001)                 1.835530058121492E+05,      /* I =158 */
(PID.TID 0000.0001)                 1.563594089971120E+05,      /* I =159 */
(PID.TID 0000.0001)     2 @  1.202082051331828E+05,             /* I =160:161 */
(PID.TID 0000.0001)                 1.563594089971120E+05,      /* I =162 */
(PID.TID 0000.0001)                 1.835530058121492E+05,      /* I =163 */
(PID.TID 0000.0001)                 2.045883481718707E+05,      /* I =164 */
(PID.TID 0000.0001)                 2.218350349844185E+05,      /* I =165 */
(PID.TID 0000.0001)                 2.364352994647058E+05,      /* I =166 */
(PID.TID 0000.0001)                 2.490022710862746E+05,      /* I =167 */
(PID.TID 0000.0001)                 2.598919724358304E+05,      /* I =168 */
(PID.TID 0000.0001)                 2.693210245495156E+05,      /* I =169 */
(PID.TID 0000.0001)                 2.774243179696503E+05,      /* I =170 */
(PID.TID 0000.0001)                 2.842862532064524E+05,      /* I =171 */
(PID.TID 0000.0001)                 2.899590699694043E+05,      /* I =172 */
(PID.TID 0000.0001)                 2.944742915095688E+05,      /* I =173 */
(PID.TID 0000.0001)                 2.978501920522794E+05,      /* I =174 */
(PID.TID 0000.0001)                 3.000967749619962E+05,      /* I =175 */
(PID.TID 0000.0001)     2 @  3.012190981969055E+05,             /* I =176:177 */
(PID.TID 0000.0001)                 3.000967749619962E+05,      /* I =178 */
(PID.TID 0000.0001)                 2.978501920522794E+05,      /* I =179 */
(PID.TID 0000.0001)                 2.944742915095688E+05,      /* I =180 */
(PID.TID 0000.0001)                 2.899590699694043E+05,      /* I =181 */
(PID.TID 0000.0001)                 2.842862532064524E+05,      /* I =182 */
(PID.TID 0000.0001)                 2.774243179696503E+05,      /* I =183 */
(PID.TID 0000.0001)                 2.693210245495156E+05,      /* I =184 */
(PID.TID 0000.0001)                 2.598919724358304E+05,      /* I =185 */
(PID.TID 0000.0001)                 2.490022710862746E+05,      /* I =186 */
(PID.TID 0000.0001)                 2.364352994647058E+05,      /* I =187 */
(PID.TID 0000.0001)                 2.218350349844185E+05,      /* I =188 */
(PID.TID 0000.0001)                 2.045883481718707E+05,      /* I =189 */
(PID.TID 0000.0001)                 1.835530058121492E+05,      /* I =190 */
(PID.TID 0000.0001)                 1.563594089971120E+05,      /* I =191 */
(PID.TID 0000.0001)                 1.202082051331828E+05       /* I =192 */
(PID.TID 0000.0001)     ;
(PID.TID 0000.0001) dxF =  /* dxF(1,:,1,:) ( units: m ) */
(PID.TID 0000.0001)                 1.202082051331828E+05,      /* J =  1 */
(PID.TID 0000.0001)                 1.572908084538706E+05,      /* J =  2 */
(PID.TID 0000.0001)                 1.840412227747703E+05,      /* J =  3 */
(PID.TID 0000.0001)                 2.048868197919576E+05,      /* J =  4 */
(PID.TID 0000.0001)                 2.220405216043041E+05,      /* J =  5 */
(PID.TID 0000.0001)                 2.365892017348392E+05,      /* J =  6 */
(PID.TID 0000.0001)                 2.491250781852558E+05,      /* J =  7 */
(PID.TID 0000.0001)                 2.599949918261881E+05,      /* J =  8 */
(PID.TID 0000.0001)                 2.694110134598581E+05,      /* J =  9 */
(PID.TID 0000.0001)                 2.775055554645015E+05,      /* J = 10 */
(PID.TID 0000.0001)                 2.843615645344775E+05,      /* J = 11 */
(PID.TID 0000.0001)                 2.900303768613599E+05,      /* J = 12 */
(PID.TID 0000.0001)                 2.945429307892709E+05,      /* J = 13 */
(PID.TID 0000.0001)                 2.979171143158405E+05,      /* J = 14 */
(PID.TID 0000.0001)                 3.001626787528886E+05,      /* J = 15 */
(PID.TID 0000.0001)     2 @  3.012844832048790E+05,             /* J = 16: 17 */
(PID.TID 0000.0001)                 3.001626787528886E+05,      /* J = 18 */
(PID.TID 0000.0001)                 2.979171143158405E+05,      /* J = 19 */
(PID.TID 0000.0001)                 2.945429307892709E+05,      /* J = 20 */
(PID.TID 0000.0001)                 2.900303768613599E+05,      /* J = 21 */
(PID.TID 0000.0001)                 2.843615645344775E+05,      /* J = 22 */
(PID.TID 0000.0001)                 2.775055554645015E+05,      /* J = 23 */
(PID.TID 0000.0001)                 2.694110134598581E+05,      /* J = 24 */
(PID.TID 0000.0001)                 2.599949918261881E+05,      /* J = 25 */
(PID.TID 0000.0001)                 2.491250781852558E+05,      /* J = 26 */
(PID.TID 0000.0001)                 2.365892017348392E+05,      /* J = 27 */
(PID.TID 0000.0001)                 2.220405216043041E+05,      /* J = 28 */
(PID.TID 0000.0001)                 2.048868197919576E+05,      /* J = 29 */
(PID.TID 0000.0001)                 1.840412227747703E+05,      /* J = 30 */
(PID.TID 0000.0001)                 1.572908084538706E+05,      /* J = 31 */
(PID.TID 0000.0001)                 1.202082051331828E+05       /* J = 32 */
(PID.TID 0000.0001)     ;
(PID.TID 0000.0001) dyF =  /* dyF(:,1,:,1) ( units: m ) */
(PID.TID 0000.0001)                 1.202082051331828E+05,      /* I =  1 */
(PID.TID 0000.0001)                 1.572908084538706E+05,      /* I =  2 */
(PID.TID 0000.0001)                 1.840412227747703E+05,      /* I =  3 */
(PID.TID 0000.0001)                 2.048868197919576E+05,      /* I =  4 */
(PID.TID 0000.0001)                 2.220405216043041E+05,      /* I =  5 */
(PID.TID 0000.0001)                 2.365892017348392E+05,      /* I =  6 */
(PID.TID 0000.0001)                 2.491250781852558E+05,      /* I =  7 */
(PID.TID 0000.0001)                 2.599949918261881E+05,      /* I =  8 */
(PID.TID 0000.0001)                 2.694110134598581E+05,      /* I =  9 */
(PID.TID 0000.0001)                 2.775055554645015E+05,      /* I = 10 */
(PID.TID 0000.0001)                 2.843615645344775E+05,      /* I = 11 */
(PID.TID 0000.0001)                 2.900303768613599E+05,      /* I = 12 */
(PID.TID 0000.0001)                 2.945429307892709E+05,      /* I = 13 */
(PID.TID 0000.0001)                 2.979171143158405E+05,      /* I = 14 */
(PID.TID 0000.0001)                 3.001626787528886E+05,      /* I = 15 */
(PID.TID 0000.0001)     2 @  3.012844832048790E+05,             /* I = 16: 17 */
(PID.TID 0000.0001)                 3.001626787528886E+05,      /* I = 18 */
(PID.TID 0000.0001)                 2.979171143158405E+05,      /* I = 19 */
(PID.TID 0000.0001)                 2.945429307892709E+05,      /* I = 20 */
(PID.TID 0000.0001)                 2.900303768613599E+05,      /* I = 21 */
(PID.TID 0000.0001)                 2.843615645344775E+05,      /* I = 22 */
(PID.TID 0000.0001)                 2.775055554645015E+05,      /* I = 23 */
(PID.TID 0000.0001)                 2.694110134598581E+05,      /* I = 24 */
(PID.TID 0000.0001)                 2.599949918261881E+05,      /* I = 25 */
(PID.TID 0000.0001)                 2.491250781852558E+05,      /* I = 26 */
(PID.TID 0000.0001)                 2.365892017348392E+05,      /* I = 27 */
(PID.TID 0000.0001)                 2.220405216043041E+05,      /* I = 28 */
(PID.TID 0000.0001)                 2.048868197919576E+05,      /* I = 29 */
(PID.TID 0000.0001)                 1.840412227747703E+05,      /* I = 30 */
(PID.TID 0000.0001)                 1.572908084538706E+05,      /* I = 31 */
(PID.TID 0000.0001)     2 @  1.202082051331828E+05,             /* I = 32: 33 */
(PID.TID 0000.0001)                 1.572908084538706E+05,      /* I = 34 */
(PID.TID 0000.0001)                 1.840412227747703E+05,      /* I = 35 */
(PID.TID 0000.0001)                 2.048868197919576E+05,      /* I = 36 */
(PID.TID 0000.0001)                 2.220405216043041E+05,      /* I = 37 */
(PID.TID 0000.0001)                 2.365892017348392E+05,      /* I = 38 */
(PID.TID 0000.0001)                 2.491250781852558E+05,      /* I = 39 */
(PID.TID 0000.0001)                 2.599949918261881E+05,      /* I = 40 */
(PID.TID 0000.0001)                 2.694110134598581E+05,      /* I = 41 */
(PID.TID 0000.0001)                 2.775055554645015E+05,      /* I = 42 */
(PID.TID 0000.0001)                 2.843615645344775E+05,      /* I = 43 */
(PID.TID 0000.0001)                 2.900303768613599E+05,      /* I = 44 */
(PID.TID 0000.0001)                 2.945429307892709E+05,      /* I = 45 */
(PID.TID 0000.0001)                 2.979171143158405E+05,      /* I = 46 */
(PID.TID 0000.0001)                 3.001626787528886E+05,      /* I = 47 */
(PID.TID 0000.0001)     2 @  3.012844832048790E+05,             /* I = 48: 49 */
(PID.TID 0000.0001)                 3.001626787528886E+05,      /* I = 50 */
(PID.TID 0000.0001)                 2.979171143158405E+05,      /* I = 51 */
(PID.TID 0000.0001)                 2.945429307892709E+05,      /* I = 52 */
(PID.TID 0000.0001)                 2.900303768613599E+05,      /* I = 53 */
(PID.TID 0000.0001)                 2.843615645344775E+05,      /* I = 54 */
(PID.TID 0000.0001)                 2.775055554645015E+05,      /* I = 55 */
(PID.TID 0000.0001)                 2.694110134598581E+05,      /* I = 56 */
(PID.TID 0000.0001)                 2.599949918261881E+05,      /* I = 57 */
(PID.TID 0000.0001)                 2.491250781852558E+05,      /* I = 58 */
(PID.TID 0000.0001)                 2.365892017348392E+05,      /* I = 59 */
(PID.TID 0000.0001)                 2.220405216043041E+05,      /* I = 60 */
(PID.TID 0000.0001)                 2.048868197919576E+05,      /* I = 61 */
(PID.TID 0000.0001)                 1.840412227747703E+05,      /* I = 62 */
(PID.TID 0000.0001)                 1.572908084538706E+05,      /* I = 63 */
(PID.TID 0000.0001)     2 @  1.202082051331828E+05,             /* I = 64: 65 */
(PID.TID 0000.0001)                 1.572908084538706E+05,      /* I = 66 */
(PID.TID 0000.0001)                 1.840412227747703E+05,      /* I = 67 */
(PID.TID 0000.0001)                 2.048868197919576E+05,      /* I = 68 */
(PID.TID 0000.0001)                 2.220405216043041E+05,      /* I = 69 */
(PID.TID 0000.0001)                 2.365892017348392E+05,      /* I = 70 */
(PID.TID 0000.0001)                 2.491250781852558E+05,      /* I = 71 */
(PID.TID 0000.0001)                 2.599949918261881E+05,      /* I = 72 */
(PID.TID 0000.0001)                 2.694110134598581E+05,      /* I = 73 */
(PID.TID 0000.0001)                 2.775055554645015E+05,      /* I = 74 */
(PID.TID 0000.0001)                 2.843615645344775E+05,      /* I = 75 */
(PID.TID 0000.0001)                 2.900303768613599E+05,      /* I = 76 */
(PID.TID 0000.0001)                 2.945429307892709E+05,      /* I = 77 */
(PID.TID 0000.0001)                 2.979171143158405E+05,      /* I = 78 */
(PID.TID 0000.0001)                 3.001626787528886E+05,      /* I = 79 */
(PID.TID 0000.0001)     2 @  3.012844832048790E+05,             /* I = 80: 81 */
(PID.TID 0000.0001)                 3.001626787528886E+05,      /* I = 82 */
(PID.TID 0000.0001)                 2.979171143158405E+05,      /* I = 83 */
(PID.TID 0000.0001)                 2.945429307892709E+05,      /* I = 84 */
(PID.TID 0000.0001)                 2.900303768613599E+05,      /* I = 85 */
(PID.TID 0000.0001)                 2.843615645344775E+05,      /* I = 86 */
(PID.TID 0000.0001)                 2.775055554645015E+05,      /* I = 87 */
(PID.TID 0000.0001)                 2.694110134598581E+05,      /* I = 88 */
(PID.TID 0000.0001)                 2.599949918261881E+05,      /* I = 89 */
(PID.TID 0000.0001)                 2.491250781852558E+05,      /* I = 90 */
(PID.TID 0000.0001)                 2.365892017348392E+05,      /* I = 91 */
(PID.TID 0000.0001)                 2.220405216043041E+05,      /* I = 92 */
(PID.TID 0000.0001)                 2.048868197919576E+05,      /* I = 93 */
(PID.TID 0000.0001)                 1.840412227747703E+05,      /* I = 94 */
(PID.TID 0000.0001)                 1.572908084538706E+05,      /* I = 95 */
(PID.TID 0000.0001)     2 @  1.202082051331828E+05,             /* I = 96: 97 */
(PID.TID 0000.0001)                 1.572908084538706E+05,      /* I = 98 */
(PID.TID 0000.0001)                 1.840412227747703E+05,      /* I = 99 */
(PID.TID 0000.0001)                 2.048868197919576E+05,      /* I =100 */
(PID.TID 0000.0001)                 2.220405216043041E+05,      /* I =101 */
(PID.TID 0000.0001)                 2.365892017348392E+05,      /* I =102 */
(PID.TID 0000.0001)                 2.491250781852558E+05,      /* I =103 */
(PID.TID 0000.0001)                 2.599949918261881E+05,      /* I =104 */
(PID.TID 0000.0001)                 2.694110134598581E+05,      /* I =105 */
(PID.TID 0000.0001)                 2.775055554645015E+05,      /* I =106 */
(PID.TID 0000.0001)                 2.843615645344775E+05,      /* I =107 */
(PID.TID 0000.0001)                 2.900303768613599E+05,      /* I =108 */
(PID.TID 0000.0001)                 2.945429307892709E+05,      /* I =109 */
(PID.TID 0000.0001)                 2.979171143158405E+05,      /* I =110 */
(PID.TID 0000.0001)                 3.001626787528886E+05,      /* I =111 */
(PID.TID 0000.0001)     2 @  3.012844832048790E+05,             /* I =112:113 */
(PID.TID 0000.0001)                 3.001626787528886E+05,      /* I =114 */
(PID.TID 0000.0001)                 2.979171143158405E+05,      /* I =115 */
(PID.TID 0000.0001)                 2.945429307892709E+05,      /* I =116 */
(PID.TID 0000.0001)                 2.900303768613599E+05,      /* I =117 */
(PID.TID 0000.0001)                 2.843615645344775E+05,      /* I =118 */
(PID.TID 0000.0001)                 2.775055554645015E+05,      /* I =119 */
(PID.TID 0000.0001)                 2.694110134598581E+05,      /* I =120 */
(PID.TID 0000.0001)                 2.599949918261881E+05,      /* I =121 */
(PID.TID 0000.0001)                 2.491250781852558E+05,      /* I =122 */
(PID.TID 0000.0001)                 2.365892017348392E+05,      /* I =123 */
(PID.TID 0000.0001)                 2.220405216043041E+05,      /* I =124 */
(PID.TID 0000.0001)                 2.048868197919576E+05,      /* I =125 */
(PID.TID 0000.0001)                 1.840412227747703E+05,      /* I =126 */
(PID.TID 0000.0001)                 1.572908084538706E+05,      /* I =127 */
(PID.TID 0000.0001)     2 @  1.202082051331828E+05,             /* I =128:129 */
(PID.TID 0000.0001)                 1.572908084538706E+05,      /* I =130 */
(PID.TID 0000.0001)                 1.840412227747703E+05,      /* I =131 */
(PID.TID 0000.0001)                 2.048868197919576E+05,      /* I =132 */
(PID.TID 0000.0001)                 2.220405216043041E+05,      /* I =133 */
(PID.TID 0000.0001)                 2.365892017348392E+05,      /* I =134 */
(PID.TID 0000.0001)                 2.491250781852558E+05,      /* I =135 */
(PID.TID 0000.0001)                 2.599949918261881E+05,      /* I =136 */
(PID.TID 0000.0001)                 2.694110134598581E+05,      /* I =137 */
(PID.TID 0000.0001)                 2.775055554645015E+05,      /* I =138 */
(PID.TID 0000.0001)                 2.843615645344775E+05,      /* I =139 */
(PID.TID 0000.0001)                 2.900303768613599E+05,      /* I =140 */
(PID.TID 0000.0001)                 2.945429307892709E+05,      /* I =141 */
(PID.TID 0000.0001)                 2.979171143158405E+05,      /* I =142 */
(PID.TID 0000.0001)                 3.001626787528886E+05,      /* I =143 */
(PID.TID 0000.0001)     2 @  3.012844832048790E+05,             /* I =144:145 */
(PID.TID 0000.0001)                 3.001626787528886E+05,      /* I =146 */
(PID.TID 0000.0001)                 2.979171143158405E+05,      /* I =147 */
(PID.TID 0000.0001)                 2.945429307892709E+05,      /* I =148 */
(PID.TID 0000.0001)                 2.900303768613599E+05,      /* I =149 */
(PID.TID 0000.0001)                 2.843615645344775E+05,      /* I =150 */
(PID.TID 0000.0001)                 2.775055554645015E+05,      /* I =151 */
(PID.TID 0000.0001)                 2.694110134598581E+05,      /* I =152 */
(PID.TID 0000.0001)                 2.599949918261881E+05,      /* I =153 */
(PID.TID 0000.0001)                 2.491250781852558E+05,      /* I =154 */
(PID.TID 0000.0001)                 2.365892017348392E+05,      /* I =155 */
(PID.TID 0000.0001)                 2.220405216043041E+05,      /* I =156 */
(PID.TID 0000.0001)                 2.048868197919576E+05,      /* I =157 */
(PID.TID 0000.0001)                 1.840412227747703E+05,      /* I =158 */
(PID.TID 0000.0001)                 1.572908084538706E+05,      /* I =159 */
(PID.TID 0000.0001)     2 @  1.202082051331828E+05,             /* I =160:161 */
(PID.TID 0000.0001)                 1.572908084538706E+05,      /* I =162 */
(PID.TID 0000.0001)                 1.840412227747703E+05,      /* I =163 */
(PID.TID 0000.0001)                 2.048868197919576E+05,      /* I =164 */
(PID.TID 0000.0001)                 2.220405216043041E+05,      /* I =165 */
(PID.TID 0000.0001)                 2.365892017348392E+05,      /* I =166 */
(PID.TID 0000.0001)                 2.491250781852558E+05,      /* I =167 */
(PID.TID 0000.0001)                 2.599949918261881E+05,      /* I =168 */
(PID.TID 0000.0001)                 2.694110134598581E+05,      /* I =169 */
(PID.TID 0000.0001)                 2.775055554645015E+05,      /* I =170 */
(PID.TID 0000.0001)                 2.843615645344775E+05,      /* I =171 */
(PID.TID 0000.0001)                 2.900303768613599E+05,      /* I =172 */
(PID.TID 0000.0001)                 2.945429307892709E+05,      /* I =173 */
(PID.TID 0000.0001)                 2.979171143158405E+05,      /* I =174 */
(PID.TID 0000.0001)                 3.001626787528886E+05,      /* I =175 */
(PID.TID 0000.0001)     2 @  3.012844832048790E+05,             /* I =176:177 */
(PID.TID 0000.0001)                 3.001626787528886E+05,      /* I =178 */
(PID.TID 0000.0001)                 2.979171143158405E+05,      /* I =179 */
(PID.TID 0000.0001)                 2.945429307892709E+05,      /* I =180 */
(PID.TID 0000.0001)                 2.900303768613599E+05,      /* I =181 */
(PID.TID 0000.0001)                 2.843615645344775E+05,      /* I =182 */
(PID.TID 0000.0001)                 2.775055554645015E+05,      /* I =183 */
(PID.TID 0000.0001)                 2.694110134598581E+05,      /* I =184 */
(PID.TID 0000.0001)                 2.599949918261881E+05,      /* I =185 */
(PID.TID 0000.0001)                 2.491250781852558E+05,      /* I =186 */
(PID.TID 0000.0001)                 2.365892017348392E+05,      /* I =187 */
(PID.TID 0000.0001)                 2.220405216043041E+05,      /* I =188 */
(PID.TID 0000.0001)                 2.048868197919576E+05,      /* I =189 */
(PID.TID 0000.0001)                 1.840412227747703E+05,      /* I =190 */
(PID.TID 0000.0001)                 1.572908084538706E+05,      /* I =191 */
(PID.TID 0000.0001)                 1.202082051331828E+05       /* I =192 */
(PID.TID 0000.0001)     ;
(PID.TID 0000.0001) dyF =  /* dyF(1,:,1,:) ( units: m ) */
(PID.TID 0000.0001)                 1.202082051331828E+05,      /* J =  1 */
(PID.TID 0000.0001)                 1.563594089971120E+05,      /* J =  2 */
(PID.TID 0000.0001)                 1.835530058121492E+05,      /* J =  3 */
(PID.TID 0000.0001)                 2.045883481718707E+05,      /* J =  4 */
(PID.TID 0000.0001)                 2.218350349844185E+05,      /* J =  5 */
(PID.TID 0000.0001)                 2.364352994647058E+05,      /* J =  6 */
(PID.TID 0000.0001)                 2.490022710862746E+05,      /* J =  7 */
(PID.TID 0000.0001)                 2.598919724358304E+05,      /* J =  8 */
(PID.TID 0000.0001)                 2.693210245495156E+05,      /* J =  9 */
(PID.TID 0000.0001)                 2.774243179696503E+05,      /* J = 10 */
(PID.TID 0000.0001)                 2.842862532064524E+05,      /* J = 11 */
(PID.TID 0000.0001)                 2.899590699694043E+05,      /* J = 12 */
(PID.TID 0000.0001)                 2.944742915095688E+05,      /* J = 13 */
(PID.TID 0000.0001)                 2.978501920522794E+05,      /* J = 14 */
(PID.TID 0000.0001)                 3.000967749619962E+05,      /* J = 15 */
(PID.TID 0000.0001)     2 @  3.012190981969055E+05,             /* J = 16: 17 */
(PID.TID 0000.0001)                 3.000967749619962E+05,      /* J = 18 */
(PID.TID 0000.0001)                 2.978501920522794E+05,      /* J = 19 */
(PID.TID 0000.0001)                 2.944742915095688E+05,      /* J = 20 */
(PID.TID 0000.0001)                 2.899590699694043E+05,      /* J = 21 */
(PID.TID 0000.0001)                 2.842862532064524E+05,      /* J = 22 */
(PID.TID 0000.0001)                 2.774243179696503E+05,      /* J = 23 */
(PID.TID 0000.0001)                 2.693210245495156E+05,      /* J = 24 */
(PID.TID 0000.0001)                 2.598919724358304E+05,      /* J = 25 */
(PID.TID 0000.0001)                 2.490022710862746E+05,      /* J = 26 */
(PID.TID 0000.0001)                 2.364352994647058E+05,      /* J = 27 */
(PID.TID 0000.0001)                 2.218350349844185E+05,      /* J = 28 */
(PID.TID 0000.0001)                 2.045883481718707E+05,      /* J = 29 */
(PID.TID 0000.0001)                 1.835530058121492E+05,      /* J = 30 */
(PID.TID 0000.0001)                 1.563594089971120E+05,      /* J = 31 */
(PID.TID 0000.0001)                 1.202082051331828E+05       /* J = 32 */
(PID.TID 0000.0001)     ;
(PID.TID 0000.0001) dxG =  /* dxG(:,1,:,1) ( units: m ) */
(PID.TID 0000.0001)                 1.009837800879055E+05,      /* I =  1 */
(PID.TID 0000.0001)                 1.534505834330338E+05,      /* I =  2 */
(PID.TID 0000.0001)                 1.823321598773926E+05,      /* I =  3 */
(PID.TID 0000.0001)                 2.038999045536999E+05,      /* I =  4 */
(PID.TID 0000.0001)                 2.213884732245467E+05,      /* I =  5 */
(PID.TID 0000.0001)                 2.361211699596122E+05,      /* I =  6 */
(PID.TID 0000.0001)                 2.487693460283865E+05,      /* I =  7 */
(PID.TID 0000.0001)                 2.597126963772147E+05,      /* I =  8 */
(PID.TID 0000.0001)                 2.691790288994575E+05,      /* I =  9 */
(PID.TID 0000.0001)                 2.773091043277394E+05,      /* I = 10 */
(PID.TID 0000.0001)                 2.841906470085516E+05,      /* I = 11 */
(PID.TID 0000.0001)                 2.898778860929753E+05,      /* I = 12 */
(PID.TID 0000.0001)                 2.944035815526416E+05,      /* I = 13 */
(PID.TID 0000.0001)                 2.977867909042096E+05,      /* I = 14 */
(PID.TID 0000.0001)                 3.000380090330854E+05,      /* I = 15 */
(PID.TID 0000.0001)     2 @  3.011625828699101E+05,             /* I = 16: 17 */
(PID.TID 0000.0001)                 3.000380090330854E+05,      /* I = 18 */
(PID.TID 0000.0001)                 2.977867909042096E+05,      /* I = 19 */
(PID.TID 0000.0001)                 2.944035815526416E+05,      /* I = 20 */
(PID.TID 0000.0001)                 2.898778860929753E+05,      /* I = 21 */
(PID.TID 0000.0001)                 2.841906470085516E+05,      /* I = 22 */
(PID.TID 0000.0001)                 2.773091043277394E+05,      /* I = 23 */
(PID.TID 0000.0001)                 2.691790288994575E+05,      /* I = 24 */
(PID.TID 0000.0001)                 2.597126963772147E+05,      /* I = 25 */
(PID.TID 0000.0001)                 2.487693460283865E+05,      /* I = 26 */
(PID.TID 0000.0001)                 2.361211699596122E+05,      /* I = 27 */
(PID.TID 0000.0001)                 2.213884732245467E+05,      /* I = 28 */
(PID.TID 0000.0001)                 2.038999045536999E+05,      /* I = 29 */
(PID.TID 0000.0001)                 1.823321598773926E+05,      /* I = 30 */
(PID.TID 0000.0001)                 1.534505834330338E+05,      /* I = 31 */
(PID.TID 0000.0001)     2 @  1.009837800879055E+05,             /* I = 32: 33 */
(PID.TID 0000.0001)                 1.534505834330338E+05,      /* I = 34 */
(PID.TID 0000.0001)                 1.823321598773926E+05,      /* I = 35 */
(PID.TID 0000.0001)                 2.038999045536999E+05,      /* I = 36 */
(PID.TID 0000.0001)                 2.213884732245467E+05,      /* I = 37 */
(PID.TID 0000.0001)                 2.361211699596122E+05,      /* I = 38 */
(PID.TID 0000.0001)                 2.487693460283865E+05,      /* I = 39 */
(PID.TID 0000.0001)                 2.597126963772147E+05,      /* I = 40 */
(PID.TID 0000.0001)                 2.691790288994575E+05,      /* I = 41 */
(PID.TID 0000.0001)                 2.773091043277394E+05,      /* I = 42 */
(PID.TID 0000.0001)                 2.841906470085516E+05,      /* I = 43 */
(PID.TID 0000.0001)                 2.898778860929753E+05,      /* I = 44 */
(PID.TID 0000.0001)                 2.944035815526416E+05,      /* I = 45 */
(PID.TID 0000.0001)                 2.977867909042096E+05,      /* I = 46 */
(PID.TID 0000.0001)                 3.000380090330854E+05,      /* I = 47 */
(PID.TID 0000.0001)     2 @  3.011625828699101E+05,             /* I = 48: 49 */
(PID.TID 0000.0001)                 3.000380090330854E+05,      /* I = 50 */
(PID.TID 0000.0001)                 2.977867909042096E+05,      /* I = 51 */
(PID.TID 0000.0001)                 2.944035815526416E+05,      /* I = 52 */
(PID.TID 0000.0001)                 2.898778860929753E+05,      /* I = 53 */
(PID.TID 0000.0001)                 2.841906470085516E+05,      /* I = 54 */
(PID.TID 0000.0001)                 2.773091043277394E+05,      /* I = 55 */
(PID.TID 0000.0001)                 2.691790288994575E+05,      /* I = 56 */
(PID.TID 0000.0001)                 2.597126963772147E+05,      /* I = 57 */
(PID.TID 0000.0001)                 2.487693460283865E+05,      /* I = 58 */
(PID.TID 0000.0001)                 2.361211699596122E+05,      /* I = 59 */
(PID.TID 0000.0001)                 2.213884732245467E+05,      /* I = 60 */
(PID.TID 0000.0001)                 2.038999045536999E+05,      /* I = 61 */
(PID.TID 0000.0001)                 1.823321598773926E+05,      /* I = 62 */
(PID.TID 0000.0001)                 1.534505834330338E+05,      /* I = 63 */
(PID.TID 0000.0001)     2 @  1.009837800879055E+05,             /* I = 64: 65 */
(PID.TID 0000.0001)                 1.534505834330338E+05,      /* I = 66 */
(PID.TID 0000.0001)                 1.823321598773926E+05,      /* I = 67 */
(PID.TID 0000.0001)                 2.038999045536999E+05,      /* I = 68 */
(PID.TID 0000.0001)                 2.213884732245467E+05,      /* I = 69 */
(PID.TID 0000.0001)                 2.361211699596122E+05,      /* I = 70 */
(PID.TID 0000.0001)                 2.487693460283865E+05,      /* I = 71 */
(PID.TID 0000.0001)                 2.597126963772147E+05,      /* I = 72 */
(PID.TID 0000.0001)                 2.691790288994575E+05,      /* I = 73 */
(PID.TID 0000.0001)                 2.773091043277394E+05,      /* I = 74 */
(PID.TID 0000.0001)                 2.841906470085516E+05,      /* I = 75 */
(PID.TID 0000.0001)                 2.898778860929753E+05,      /* I = 76 */
(PID.TID 0000.0001)                 2.944035815526416E+05,      /* I = 77 */
(PID.TID 0000.0001)                 2.977867909042096E+05,      /* I = 78 */
(PID.TID 0000.0001)                 3.000380090330854E+05,      /* I = 79 */
(PID.TID 0000.0001)     2 @  3.011625828699101E+05,             /* I = 80: 81 */
(PID.TID 0000.0001)                 3.000380090330854E+05,      /* I = 82 */
(PID.TID 0000.0001)                 2.977867909042096E+05,      /* I = 83 */
(PID.TID 0000.0001)                 2.944035815526416E+05,      /* I = 84 */
(PID.TID 0000.0001)                 2.898778860929753E+05,      /* I = 85 */
(PID.TID 0000.0001)                 2.841906470085516E+05,      /* I = 86 */
(PID.TID 0000.0001)                 2.773091043277394E+05,      /* I = 87 */
(PID.TID 0000.0001)                 2.691790288994575E+05,      /* I = 88 */
(PID.TID 0000.0001)                 2.597126963772147E+05,      /* I = 89 */
(PID.TID 0000.0001)                 2.487693460283865E+05,      /* I = 90 */
(PID.TID 0000.0001)                 2.361211699596122E+05,      /* I = 91 */
(PID.TID 0000.0001)                 2.213884732245467E+05,      /* I = 92 */
(PID.TID 0000.0001)                 2.038999045536999E+05,      /* I = 93 */
(PID.TID 0000.0001)                 1.823321598773926E+05,      /* I = 94 */
(PID.TID 0000.0001)                 1.534505834330338E+05,      /* I = 95 */
(PID.TID 0000.0001)     2 @  1.009837800879055E+05,             /* I = 96: 97 */
(PID.TID 0000.0001)                 1.534505834330338E+05,      /* I = 98 */
(PID.TID 0000.0001)                 1.823321598773926E+05,      /* I = 99 */
(PID.TID 0000.0001)                 2.038999045536999E+05,      /* I =100 */
(PID.TID 0000.0001)                 2.213884732245467E+05,      /* I =101 */
(PID.TID 0000.0001)                 2.361211699596122E+05,      /* I =102 */
(PID.TID 0000.0001)                 2.487693460283865E+05,      /* I =103 */
(PID.TID 0000.0001)                 2.597126963772147E+05,      /* I =104 */
(PID.TID 0000.0001)                 2.691790288994575E+05,      /* I =105 */
(PID.TID 0000.0001)                 2.773091043277394E+05,      /* I =106 */
(PID.TID 0000.0001)                 2.841906470085516E+05,      /* I =107 */
(PID.TID 0000.0001)                 2.898778860929753E+05,      /* I =108 */
(PID.TID 0000.0001)                 2.944035815526416E+05,      /* I =109 */
(PID.TID 0000.0001)                 2.977867909042096E+05,      /* I =110 */
(PID.TID 0000.0001)                 3.000380090330854E+05,      /* I =111 */
(PID.TID 0000.0001)     2 @  3.011625828699101E+05,             /* I =112:113 */
(PID.TID 0000.0001)                 3.000380090330854E+05,      /* I =114 */
(PID.TID 0000.0001)                 2.977867909042096E+05,      /* I =115 */
(PID.TID 0000.0001)                 2.944035815526416E+05,      /* I =116 */
(PID.TID 0000.0001)                 2.898778860929753E+05,      /* I =117 */
(PID.TID 0000.0001)                 2.841906470085516E+05,      /* I =118 */
(PID.TID 0000.0001)                 2.773091043277394E+05,      /* I =119 */
(PID.TID 0000.0001)                 2.691790288994575E+05,      /* I =120 */
(PID.TID 0000.0001)                 2.597126963772147E+05,      /* I =121 */
(PID.TID 0000.0001)                 2.487693460283865E+05,      /* I =122 */
(PID.TID 0000.0001)                 2.361211699596122E+05,      /* I =123 */
(PID.TID 0000.0001)                 2.213884732245467E+05,      /* I =124 */
(PID.TID 0000.0001)                 2.038999045536999E+05,      /* I =125 */
(PID.TID 0000.0001)                 1.823321598773926E+05,      /* I =126 */
(PID.TID 0000.0001)                 1.534505834330338E+05,      /* I =127 */
(PID.TID 0000.0001)     2 @  1.009837800879055E+05,             /* I =128:129 */
(PID.TID 0000.0001)                 1.534505834330338E+05,      /* I =130 */
(PID.TID 0000.0001)                 1.823321598773926E+05,      /* I =131 */
(PID.TID 0000.0001)                 2.038999045536999E+05,      /* I =132 */
(PID.TID 0000.0001)                 2.213884732245467E+05,      /* I =133 */
(PID.TID 0000.0001)                 2.361211699596122E+05,      /* I =134 */
(PID.TID 0000.0001)                 2.487693460283865E+05,      /* I =135 */
(PID.TID 0000.0001)                 2.597126963772147E+05,      /* I =136 */
(PID.TID 0000.0001)                 2.691790288994575E+05,      /* I =137 */
(PID.TID 0000.0001)                 2.773091043277394E+05,      /* I =138 */
(PID.TID 0000.0001)                 2.841906470085516E+05,      /* I =139 */
(PID.TID 0000.0001)                 2.898778860929753E+05,      /* I =140 */
(PID.TID 0000.0001)                 2.944035815526416E+05,      /* I =141 */
(PID.TID 0000.0001)                 2.977867909042096E+05,      /* I =142 */
(PID.TID 0000.0001)                 3.000380090330854E+05,      /* I =143 */
(PID.TID 0000.0001)     2 @  3.011625828699101E+05,             /* I =144:145 */
(PID.TID 0000.0001)                 3.000380090330854E+05,      /* I =146 */
(PID.TID 0000.0001)                 2.977867909042096E+05,      /* I =147 */
(PID.TID 0000.0001)                 2.944035815526416E+05,      /* I =148 */
(PID.TID 0000.0001)                 2.898778860929753E+05,      /* I =149 */
(PID.TID 0000.0001)                 2.841906470085516E+05,      /* I =150 */
(PID.TID 0000.0001)                 2.773091043277394E+05,      /* I =151 */
(PID.TID 0000.0001)                 2.691790288994575E+05,      /* I =152 */
(PID.TID 0000.0001)                 2.597126963772147E+05,      /* I =153 */
(PID.TID 0000.0001)                 2.487693460283865E+05,      /* I =154 */
(PID.TID 0000.0001)                 2.361211699596122E+05,      /* I =155 */
(PID.TID 0000.0001)                 2.213884732245467E+05,      /* I =156 */
(PID.TID 0000.0001)                 2.038999045536999E+05,      /* I =157 */
(PID.TID 0000.0001)                 1.823321598773926E+05,      /* I =158 */
(PID.TID 0000.0001)                 1.534505834330338E+05,      /* I =159 */
(PID.TID 0000.0001)     2 @  1.009837800879055E+05,             /* I =160:161 */
(PID.TID 0000.0001)                 1.534505834330338E+05,      /* I =162 */
(PID.TID 0000.0001)                 1.823321598773926E+05,      /* I =163 */
(PID.TID 0000.0001)                 2.038999045536999E+05,      /* I =164 */
(PID.TID 0000.0001)                 2.213884732245467E+05,      /* I =165 */
(PID.TID 0000.0001)                 2.361211699596122E+05,      /* I =166 */
(PID.TID 0000.0001)                 2.487693460283865E+05,      /* I =167 */
(PID.TID 0000.0001)                 2.597126963772147E+05,      /* I =168 */
(PID.TID 0000.0001)                 2.691790288994575E+05,      /* I =169 */
(PID.TID 0000.0001)                 2.773091043277394E+05,      /* I =170 */
(PID.TID 0000.0001)                 2.841906470085516E+05,      /* I =171 */
(PID.TID 0000.0001)                 2.898778860929753E+05,      /* I =172 */
(PID.TID 0000.0001)                 2.944035815526416E+05,      /* I =173 */
(PID.TID 0000.0001)                 2.977867909042096E+05,      /* I =174 */
(PID.TID 0000.0001)                 3.000380090330854E+05,      /* I =175 */
(PID.TID 0000.0001)     2 @  3.011625828699101E+05,             /* I =176:177 */
(PID.TID 0000.0001)                 3.000380090330854E+05,      /* I =178 */
(PID.TID 0000.0001)                 2.977867909042096E+05,      /* I =179 */
(PID.TID 0000.0001)                 2.944035815526416E+05,      /* I =180 */
(PID.TID 0000.0001)                 2.898778860929753E+05,      /* I =181 */
(PID.TID 0000.0001)                 2.841906470085516E+05,      /* I =182 */
(PID.TID 0000.0001)                 2.773091043277394E+05,      /* I =183 */
(PID.TID 0000.0001)                 2.691790288994575E+05,      /* I =184 */
(PID.TID 0000.0001)                 2.597126963772147E+05,      /* I =185 */
(PID.TID 0000.0001)                 2.487693460283865E+05,      /* I =186 */
(PID.TID 0000.0001)                 2.361211699596122E+05,      /* I =187 */
(PID.TID 0000.0001)                 2.213884732245467E+05,      /* I =188 */
(PID.TID 0000.0001)                 2.038999045536999E+05,      /* I =189 */
(PID.TID 0000.0001)                 1.823321598773926E+05,      /* I =190 */
(PID.TID 0000.0001)                 1.534505834330338E+05,      /* I =191 */
(PID.TID 0000.0001)                 1.009837800879055E+05       /* I =192 */
(PID.TID 0000.0001)     ;
(PID.TID 0000.0001) dxG =  /* dxG(1,:,1,:) ( units: m ) */
(PID.TID 0000.0001)                 1.009837800879055E+05,      /* J =  1 */
(PID.TID 0000.0001)                 1.403701524205398E+05,      /* J =  2 */
(PID.TID 0000.0001)                 1.716197227386011E+05,      /* J =  3 */
(PID.TID 0000.0001)                 1.950254041626018E+05,      /* J =  4 */
(PID.TID 0000.0001)                 2.138410773065497E+05,      /* J =  5 */
(PID.TID 0000.0001)                 2.295958105911512E+05,      /* J =  6 */
(PID.TID 0000.0001)                 2.430829951739083E+05,      /* J =  7 */
(PID.TID 0000.0001)                 2.547526806712889E+05,      /* J =  8 */
(PID.TID 0000.0001)                 2.648750305193301E+05,      /* J =  9 */
(PID.TID 0000.0001)                 2.736173771018112E+05,      /* J = 10 */
(PID.TID 0000.0001)                 2.810845823202647E+05,      /* J = 11 */
(PID.TID 0000.0001)                 2.873420591008078E+05,      /* J = 12 */
(PID.TID 0000.0001)                 2.924298293668651E+05,      /* J = 13 */
(PID.TID 0000.0001)                 2.963715635865306E+05,      /* J = 14 */
(PID.TID 0000.0001)                 2.991805843171258E+05,      /* J = 15 */
(PID.TID 0000.0001)                 3.008638765647886E+05,      /* J = 16 */
(PID.TID 0000.0001)                 3.014246674484008E+05,      /* J = 17 */
(PID.TID 0000.0001)                 3.008638765647886E+05,      /* J = 18 */
(PID.TID 0000.0001)                 2.991805843171258E+05,      /* J = 19 */
(PID.TID 0000.0001)                 2.963715635865306E+05,      /* J = 20 */
(PID.TID 0000.0001)                 2.924298293668651E+05,      /* J = 21 */
(PID.TID 0000.0001)                 2.873420591008078E+05,      /* J = 22 */
(PID.TID 0000.0001)                 2.810845823202647E+05,      /* J = 23 */
(PID.TID 0000.0001)                 2.736173771018112E+05,      /* J = 24 */
(PID.TID 0000.0001)                 2.648750305193301E+05,      /* J = 25 */
(PID.TID 0000.0001)                 2.547526806712889E+05,      /* J = 26 */
(PID.TID 0000.0001)                 2.430829951739083E+05,      /* J = 27 */
(PID.TID 0000.0001)                 2.295958105911512E+05,      /* J = 28 */
(PID.TID 0000.0001)                 2.138410773065497E+05,      /* J = 29 */
(PID.TID 0000.0001)                 1.950254041626018E+05,      /* J = 30 */
(PID.TID 0000.0001)                 1.716197227386011E+05,      /* J = 31 */
(PID.TID 0000.0001)                 1.403701524205398E+05       /* J = 32 */
(PID.TID 0000.0001)     ;
(PID.TID 0000.0001) dyG =  /* dyG(:,1,:,1) ( units: m ) */
(PID.TID 0000.0001)                 1.009837800879055E+05,      /* I =  1 */
(PID.TID 0000.0001)                 1.403701524205398E+05,      /* I =  2 */
(PID.TID 0000.0001)                 1.716197227386011E+05,      /* I =  3 */
(PID.TID 0000.0001)                 1.950254041626018E+05,      /* I =  4 */
(PID.TID 0000.0001)                 2.138410773065497E+05,      /* I =  5 */
(PID.TID 0000.0001)                 2.295958105911512E+05,      /* I =  6 */
(PID.TID 0000.0001)                 2.430829951739083E+05,      /* I =  7 */
(PID.TID 0000.0001)                 2.547526806712889E+05,      /* I =  8 */
(PID.TID 0000.0001)                 2.648750305193301E+05,      /* I =  9 */
(PID.TID 0000.0001)                 2.736173771018112E+05,      /* I = 10 */
(PID.TID 0000.0001)                 2.810845823202647E+05,      /* I = 11 */
(PID.TID 0000.0001)                 2.873420591008078E+05,      /* I = 12 */
(PID.TID 0000.0001)                 2.924298293668651E+05,      /* I = 13 */
(PID.TID 0000.0001)                 2.963715635865306E+05,      /* I = 14 */
(PID.TID 0000.0001)                 2.991805843171258E+05,      /* I = 15 */
(PID.TID 0000.0001)                 3.008638765647886E+05,      /* I = 16 */
(PID.TID 0000.0001)                 3.014246674484008E+05,      /* I = 17 */
(PID.TID 0000.0001)                 3.008638765647886E+05,      /* I = 18 */
(PID.TID 0000.0001)                 2.991805843171258E+05,      /* I = 19 */
(PID.TID 0000.0001)                 2.963715635865306E+05,      /* I = 20 */
(PID.TID 0000.0001)                 2.924298293668651E+05,      /* I = 21 */
(PID.TID 0000.0001)                 2.873420591008078E+05,      /* I = 22 */
(PID.TID 0000.0001)                 2.810845823202647E+05,      /* I = 23 */
(PID.TID 0000.0001)                 2.736173771018112E+05,      /* I = 24 */
(PID.TID 0000.0001)                 2.648750305193301E+05,      /* I = 25 */
(PID.TID 0000.0001)                 2.547526806712889E+05,      /* I = 26 */
(PID.TID 0000.0001)                 2.430829951739083E+05,      /* I = 27 */
(PID.TID 0000.0001)                 2.295958105911512E+05,      /* I = 28 */
(PID.TID 0000.0001)                 2.138410773065497E+05,      /* I = 29 */
(PID.TID 0000.0001)                 1.950254041626018E+05,      /* I = 30 */
(PID.TID 0000.0001)                 1.716197227386011E+05,      /* I = 31 */
(PID.TID 0000.0001)                 1.403701524205398E+05,      /* I = 32 */
(PID.TID 0000.0001)                 1.009837800879055E+05,      /* I = 33 */
(PID.TID 0000.0001)                 1.403701524205398E+05,      /* I = 34 */
(PID.TID 0000.0001)                 1.716197227386011E+05,      /* I = 35 */
(PID.TID 0000.0001)                 1.950254041626018E+05,      /* I = 36 */
(PID.TID 0000.0001)                 2.138410773065497E+05,      /* I = 37 */
(PID.TID 0000.0001)                 2.295958105911512E+05,      /* I = 38 */
(PID.TID 0000.0001)                 2.430829951739083E+05,      /* I = 39 */
(PID.TID 0000.0001)                 2.547526806712889E+05,      /* I = 40 */
(PID.TID 0000.0001)                 2.648750305193301E+05,      /* I = 41 */
(PID.TID 0000.0001)                 2.736173771018112E+05,      /* I = 42 */
(PID.TID 0000.0001)                 2.810845823202647E+05,      /* I = 43 */
(PID.TID 0000.0001)                 2.873420591008078E+05,      /* I = 44 */
(PID.TID 0000.0001)                 2.924298293668651E+05,      /* I = 45 */
(PID.TID 0000.0001)                 2.963715635865306E+05,      /* I = 46 */
(PID.TID 0000.0001)                 2.991805843171258E+05,      /* I = 47 */
(PID.TID 0000.0001)                 3.008638765647886E+05,      /* I = 48 */
(PID.TID 0000.0001)                 3.014246674484008E+05,      /* I = 49 */
(PID.TID 0000.0001)                 3.008638765647886E+05,      /* I = 50 */
(PID.TID 0000.0001)                 2.991805843171258E+05,      /* I = 51 */
(PID.TID 0000.0001)                 2.963715635865306E+05,      /* I = 52 */
(PID.TID 0000.0001)                 2.924298293668651E+05,      /* I = 53 */
(PID.TID 0000.0001)                 2.873420591008078E+05,      /* I = 54 */
(PID.TID 0000.0001)                 2.810845823202647E+05,      /* I = 55 */
(PID.TID 0000.0001)                 2.736173771018112E+05,      /* I = 56 */
(PID.TID 0000.0001)                 2.648750305193301E+05,      /* I = 57 */
(PID.TID 0000.0001)                 2.547526806712889E+05,      /* I = 58 */
(PID.TID 0000.0001)                 2.430829951739083E+05,      /* I = 59 */
(PID.TID 0000.0001)                 2.295958105911512E+05,      /* I = 60 */
(PID.TID 0000.0001)                 2.138410773065497E+05,      /* I = 61 */
(PID.TID 0000.0001)                 1.950254041626018E+05,      /* I = 62 */
(PID.TID 0000.0001)                 1.716197227386011E+05,      /* I = 63 */
(PID.TID 0000.0001)                 1.403701524205398E+05,      /* I = 64 */
(PID.TID 0000.0001)                 1.009837800879055E+05,      /* I = 65 */
(PID.TID 0000.0001)                 1.403701524205398E+05,      /* I = 66 */
(PID.TID 0000.0001)                 1.716197227386011E+05,      /* I = 67 */
(PID.TID 0000.0001)                 1.950254041626018E+05,      /* I = 68 */
(PID.TID 0000.0001)                 2.138410773065497E+05,      /* I = 69 */
(PID.TID 0000.0001)                 2.295958105911512E+05,      /* I = 70 */
(PID.TID 0000.0001)                 2.430829951739083E+05,      /* I = 71 */
(PID.TID 0000.0001)                 2.547526806712889E+05,      /* I = 72 */
(PID.TID 0000.0001)                 2.648750305193301E+05,      /* I = 73 */
(PID.TID 0000.0001)                 2.736173771018112E+05,      /* I = 74 */
(PID.TID 0000.0001)                 2.810845823202647E+05,      /* I = 75 */
(PID.TID 0000.0001)                 2.873420591008078E+05,      /* I = 76 */
(PID.TID 0000.0001)                 2.924298293668651E+05,      /* I = 77 */
(PID.TID 0000.0001)                 2.963715635865306E+05,      /* I = 78 */
(PID.TID 0000.0001)                 2.991805843171258E+05,      /* I = 79 */
(PID.TID 0000.0001)                 3.008638765647886E+05,      /* I = 80 */
(PID.TID 0000.0001)                 3.014246674484008E+05,      /* I = 81 */
(PID.TID 0000.0001)                 3.008638765647886E+05,      /* I = 82 */
(PID.TID 0000.0001)                 2.991805843171258E+05,      /* I = 83 */
(PID.TID 0000.0001)                 2.963715635865306E+05,      /* I = 84 */
(PID.TID 0000.0001)                 2.924298293668651E+05,      /* I = 85 */
(PID.TID 0000.0001)                 2.873420591008078E+05,      /* I = 86 */
(PID.TID 0000.0001)                 2.810845823202647E+05,      /* I = 87 */
(PID.TID 0000.0001)                 2.736173771018112E+05,      /* I = 88 */
(PID.TID 0000.0001)                 2.648750305193301E+05,      /* I = 89 */
(PID.TID 0000.0001)                 2.547526806712889E+05,      /* I = 90 */
(PID.TID 0000.0001)                 2.430829951739083E+05,      /* I = 91 */
(PID.TID 0000.0001)                 2.295958105911512E+05,      /* I = 92 */
(PID.TID 0000.0001)                 2.138410773065497E+05,      /* I = 93 */
(PID.TID 0000.0001)                 1.950254041626018E+05,      /* I = 94 */
(PID.TID 0000.0001)                 1.716197227386011E+05,      /* I = 95 */
(PID.TID 0000.0001)                 1.403701524205398E+05,      /* I = 96 */
(PID.TID 0000.0001)                 1.009837800879055E+05,      /* I = 97 */
(PID.TID 0000.0001)                 1.403701524205398E+05,      /* I = 98 */
(PID.TID 0000.0001)                 1.716197227386011E+05,      /* I = 99 */
(PID.TID 0000.0001)                 1.950254041626018E+05,      /* I =100 */
(PID.TID 0000.0001)                 2.138410773065497E+05,      /* I =101 */
(PID.TID 0000.0001)                 2.295958105911512E+05,      /* I =102 */
(PID.TID 0000.0001)                 2.430829951739083E+05,      /* I =103 */
(PID.TID 0000.0001)                 2.547526806712889E+05,      /* I =104 */
(PID.TID 0000.0001)                 2.648750305193301E+05,      /* I =105 */
(PID.TID 0000.0001)                 2.736173771018112E+05,      /* I =106 */
(PID.TID 0000.0001)                 2.810845823202647E+05,      /* I =107 */
(PID.TID 0000.0001)                 2.873420591008078E+05,      /* I =108 */
(PID.TID 0000.0001)                 2.924298293668651E+05,      /* I =109 */
(PID.TID 0000.0001)                 2.963715635865306E+05,      /* I =110 */
(PID.TID 0000.0001)                 2.991805843171258E+05,      /* I =111 */
(PID.TID 0000.0001)                 3.008638765647886E+05,      /* I =112 */
(PID.TID 0000.0001)                 3.014246674484008E+05,      /* I =113 */
(PID.TID 0000.0001)                 3.008638765647886E+05,      /* I =114 */
(PID.TID 0000.0001)                 2.991805843171258E+05,      /* I =115 */
(PID.TID 0000.0001)                 2.963715635865306E+05,      /* I =116 */
(PID.TID 0000.0001)                 2.924298293668651E+05,      /* I =117 */
(PID.TID 0000.0001)                 2.873420591008078E+05,      /* I =118 */
(PID.TID 0000.0001)                 2.810845823202647E+05,      /* I =119 */
(PID.TID 0000.0001)                 2.736173771018112E+05,      /* I =120 */
(PID.TID 0000.0001)                 2.648750305193301E+05,      /* I =121 */
(PID.TID 0000.0001)                 2.547526806712889E+05,      /* I =122 */
(PID.TID 0000.0001)                 2.430829951739083E+05,      /* I =123 */
(PID.TID 0000.0001)                 2.295958105911512E+05,      /* I =124 */
(PID.TID 0000.0001)                 2.138410773065497E+05,      /* I =125 */
(PID.TID 0000.0001)                 1.950254041626018E+05,      /* I =126 */
(PID.TID 0000.0001)                 1.716197227386011E+05,      /* I =127 */
(PID.TID 0000.0001)                 1.403701524205398E+05,      /* I =128 */
(PID.TID 0000.0001)                 1.009837800879055E+05,      /* I =129 */
(PID.TID 0000.0001)                 1.403701524205398E+05,      /* I =130 */
(PID.TID 0000.0001)                 1.716197227386011E+05,      /* I =131 */
(PID.TID 0000.0001)                 1.950254041626018E+05,      /* I =132 */
(PID.TID 0000.0001)                 2.138410773065497E+05,      /* I =133 */
(PID.TID 0000.0001)                 2.295958105911512E+05,      /* I =134 */
(PID.TID 0000.0001)                 2.430829951739083E+05,      /* I =135 */
(PID.TID 0000.0001)                 2.547526806712889E+05,      /* I =136 */
(PID.TID 0000.0001)                 2.648750305193301E+05,      /* I =137 */
(PID.TID 0000.0001)                 2.736173771018112E+05,      /* I =138 */
(PID.TID 0000.0001)                 2.810845823202647E+05,      /* I =139 */
(PID.TID 0000.0001)                 2.873420591008078E+05,      /* I =140 */
(PID.TID 0000.0001)                 2.924298293668651E+05,      /* I =141 */
(PID.TID 0000.0001)                 2.963715635865306E+05,      /* I =142 */
(PID.TID 0000.0001)                 2.991805843171258E+05,      /* I =143 */
(PID.TID 0000.0001)                 3.008638765647886E+05,      /* I =144 */
(PID.TID 0000.0001)                 3.014246674484008E+05,      /* I =145 */
(PID.TID 0000.0001)                 3.008638765647886E+05,      /* I =146 */
(PID.TID 0000.0001)                 2.991805843171258E+05,      /* I =147 */
(PID.TID 0000.0001)                 2.963715635865306E+05,      /* I =148 */
(PID.TID 0000.0001)                 2.924298293668651E+05,      /* I =149 */
(PID.TID 0000.0001)                 2.873420591008078E+05,      /* I =150 */
(PID.TID 0000.0001)                 2.810845823202647E+05,      /* I =151 */
(PID.TID 0000.0001)                 2.736173771018112E+05,      /* I =152 */
(PID.TID 0000.0001)                 2.648750305193301E+05,      /* I =153 */
(PID.TID 0000.0001)                 2.547526806712889E+05,      /* I =154 */
(PID.TID 0000.0001)                 2.430829951739083E+05,      /* I =155 */
(PID.TID 0000.0001)                 2.295958105911512E+05,      /* I =156 */
(PID.TID 0000.0001)                 2.138410773065497E+05,      /* I =157 */
(PID.TID 0000.0001)                 1.950254041626018E+05,      /* I =158 */
(PID.TID 0000.0001)                 1.716197227386011E+05,      /* I =159 */
(PID.TID 0000.0001)                 1.403701524205398E+05,      /* I =160 */
(PID.TID 0000.0001)                 1.009837800879055E+05,      /* I =161 */
(PID.TID 0000.0001)                 1.403701524205398E+05,      /* I =162 */
(PID.TID 0000.0001)                 1.716197227386011E+05,      /* I =163 */
(PID.TID 0000.0001)                 1.950254041626018E+05,      /* I =164 */
(PID.TID 0000.0001)                 2.138410773065497E+05,      /* I =165 */
(PID.TID 0000.0001)                 2.295958105911512E+05,      /* I =166 */
(PID.TID 0000.0001)                 2.430829951739083E+05,      /* I =167 */
(PID.TID 0000.0001)                 2.547526806712889E+05,      /* I =168 */
(PID.TID 0000.0001)                 2.648750305193301E+05,      /* I =169 */
(PID.TID 0000.0001)                 2.736173771018112E+05,      /* I =170 */
(PID.TID 0000.0001)                 2.810845823202647E+05,      /* I =171 */
(PID.TID 0000.0001)                 2.873420591008078E+05,      /* I =172 */
(PID.TID 0000.0001)                 2.924298293668651E+05,      /* I =173 */
(PID.TID 0000.0001)                 2.963715635865306E+05,      /* I =174 */
(PID.TID 0000.0001)                 2.991805843171258E+05,      /* I =175 */
(PID.TID 0000.0001)                 3.008638765647886E+05,      /* I =176 */
(PID.TID 0000.0001)                 3.014246674484008E+05,      /* I =177 */
(PID.TID 0000.0001)                 3.008638765647886E+05,      /* I =178 */
(PID.TID 0000.0001)                 2.991805843171258E+05,      /* I =179 */
(PID.TID 0000.0001)                 2.963715635865306E+05,      /* I =180 */
(PID.TID 0000.0001)                 2.924298293668651E+05,      /* I =181 */
(PID.TID 0000.0001)                 2.873420591008078E+05,      /* I =182 */
(PID.TID 0000.0001)                 2.810845823202647E+05,      /* I =183 */
(PID.TID 0000.0001)                 2.736173771018112E+05,      /* I =184 */
(PID.TID 0000.0001)                 2.648750305193301E+05,      /* I =185 */
(PID.TID 0000.0001)                 2.547526806712889E+05,      /* I =186 */
(PID.TID 0000.0001)                 2.430829951739083E+05,      /* I =187 */
(PID.TID 0000.0001)                 2.295958105911512E+05,      /* I =188 */
(PID.TID 0000.0001)                 2.138410773065497E+05,      /* I =189 */
(PID.TID 0000.0001)                 1.950254041626018E+05,      /* I =190 */
(PID.TID 0000.0001)                 1.716197227386011E+05,      /* I =191 */
(PID.TID 0000.0001)                 1.403701524205398E+05       /* I =192 */
(PID.TID 0000.0001)     ;
(PID.TID 0000.0001) dyG =  /* dyG(1,:,1,:) ( units: m ) */
(PID.TID 0000.0001)                 1.009837800879055E+05,      /* J =  1 */
(PID.TID 0000.0001)                 1.534505834330338E+05,      /* J =  2 */
(PID.TID 0000.0001)                 1.823321598773926E+05,      /* J =  3 */
(PID.TID 0000.0001)                 2.038999045536999E+05,      /* J =  4 */
(PID.TID 0000.0001)                 2.213884732245467E+05,      /* J =  5 */
(PID.TID 0000.0001)                 2.361211699596122E+05,      /* J =  6 */
(PID.TID 0000.0001)                 2.487693460283865E+05,      /* J =  7 */
(PID.TID 0000.0001)                 2.597126963772147E+05,      /* J =  8 */
(PID.TID 0000.0001)                 2.691790288994575E+05,      /* J =  9 */
(PID.TID 0000.0001)                 2.773091043277394E+05,      /* J = 10 */
(PID.TID 0000.0001)                 2.841906470085516E+05,      /* J = 11 */
(PID.TID 0000.0001)                 2.898778860929753E+05,      /* J = 12 */
(PID.TID 0000.0001)                 2.944035815526416E+05,      /* J = 13 */
(PID.TID 0000.0001)                 2.977867909042096E+05,      /* J = 14 */
(PID.TID 0000.0001)                 3.000380090330854E+05,      /* J = 15 */
(PID.TID 0000.0001)     2 @  3.011625828699101E+05,             /* J = 16: 17 */
(PID.TID 0000.0001)                 3.000380090330854E+05,      /* J = 18 */
(PID.TID 0000.0001)                 2.977867909042096E+05,      /* J = 19 */
(PID.TID 0000.0001)                 2.944035815526416E+05,      /* J = 20 */
(PID.TID 0000.0001)                 2.898778860929753E+05,      /* J = 21 */
(PID.TID 0000.0001)                 2.841906470085516E+05,      /* J = 22 */
(PID.TID 0000.0001)                 2.773091043277394E+05,      /* J = 23 */
(PID.TID 0000.0001)                 2.691790288994575E+05,      /* J = 24 */
(PID.TID 0000.0001)                 2.597126963772147E+05,      /* J = 25 */
(PID.TID 0000.0001)                 2.487693460283865E+05,      /* J = 26 */
(PID.TID 0000.0001)                 2.361211699596122E+05,      /* J = 27 */
(PID.TID 0000.0001)                 2.213884732245467E+05,      /* J = 28 */
(PID.TID 0000.0001)                 2.038999045536999E+05,      /* J = 29 */
(PID.TID 0000.0001)                 1.823321598773926E+05,      /* J = 30 */
(PID.TID 0000.0001)                 1.534505834330338E+05,      /* J = 31 */
(PID.TID 0000.0001)                 1.009837800879055E+05       /* J = 32 */
(PID.TID 0000.0001)     ;
(PID.TID 0000.0001) dxC =  /* dxC(:,1,:,1) ( units: m ) */
(PID.TID 0000.0001)                 1.114203141013064E+05,      /* I =  1 */
(PID.TID 0000.0001)                 1.391343389937106E+05,      /* I =  2 */
(PID.TID 0000.0001)                 1.709574999026266E+05,      /* I =  3 */
(PID.TID 0000.0001)                 1.946503699269892E+05,      /* I =  4 */
(PID.TID 0000.0001)                 2.135964483342134E+05,      /* I =  5 */
(PID.TID 0000.0001)                 2.294195678257306E+05,      /* I =  6 */
(PID.TID 0000.0001)                 2.429464709770498E+05,      /* I =  7 */
(PID.TID 0000.0001)                 2.546408290696998E+05,      /* I =  8 */
(PID.TID 0000.0001)                 2.647791839299727E+05,      /* I =  9 */
(PID.TID 0000.0001)                 2.735321911346108E+05,      /* I = 10 */
(PID.TID 0000.0001)                 2.810065951609633E+05,      /* I = 11 */
(PID.TID 0000.0001)                 2.872689479506990E+05,      /* I = 12 */
(PID.TID 0000.0001)                 2.923599955312932E+05,      /* I = 13 */
(PID.TID 0000.0001)                 2.963038832565530E+05,      /* I = 14 */
(PID.TID 0000.0001)                 2.991142470004740E+05,      /* I = 15 */
(PID.TID 0000.0001)                 3.007982711627968E+05,      /* I = 16 */
(PID.TID 0000.0001)                 3.013593857228136E+05,      /* I = 17 */
(PID.TID 0000.0001)                 3.007982711627968E+05,      /* I = 18 */
(PID.TID 0000.0001)                 2.991142470004740E+05,      /* I = 19 */
(PID.TID 0000.0001)                 2.963038832565530E+05,      /* I = 20 */
(PID.TID 0000.0001)                 2.923599955312932E+05,      /* I = 21 */
(PID.TID 0000.0001)                 2.872689479506990E+05,      /* I = 22 */
(PID.TID 0000.0001)                 2.810065951609633E+05,      /* I = 23 */
(PID.TID 0000.0001)                 2.735321911346108E+05,      /* I = 24 */
(PID.TID 0000.0001)                 2.647791839299727E+05,      /* I = 25 */
(PID.TID 0000.0001)                 2.546408290696998E+05,      /* I = 26 */
(PID.TID 0000.0001)                 2.429464709770498E+05,      /* I = 27 */
(PID.TID 0000.0001)                 2.294195678257306E+05,      /* I = 28 */
(PID.TID 0000.0001)                 2.135964483342134E+05,      /* I = 29 */
(PID.TID 0000.0001)                 1.946503699269892E+05,      /* I = 30 */
(PID.TID 0000.0001)                 1.709574999026266E+05,      /* I = 31 */
(PID.TID 0000.0001)                 1.391343389937106E+05,      /* I = 32 */
(PID.TID 0000.0001)                 1.114203141013064E+05,      /* I = 33 */
(PID.TID 0000.0001)                 1.391343389937106E+05,      /* I = 34 */
(PID.TID 0000.0001)                 1.709574999026266E+05,      /* I = 35 */
(PID.TID 0000.0001)                 1.946503699269892E+05,      /* I = 36 */
(PID.TID 0000.0001)                 2.135964483342134E+05,      /* I = 37 */
(PID.TID 0000.0001)                 2.294195678257306E+05,      /* I = 38 */
(PID.TID 0000.0001)                 2.429464709770498E+05,      /* I = 39 */
(PID.TID 0000.0001)                 2.546408290696998E+05,      /* I = 40 */
(PID.TID 0000.0001)                 2.647791839299727E+05,      /* I = 41 */
(PID.TID 0000.0001)                 2.735321911346108E+05,      /* I = 42 */
(PID.TID 0000.0001)                 2.810065951609633E+05,      /* I = 43 */
(PID.TID 0000.0001)                 2.872689479506990E+05,      /* I = 44 */
(PID.TID 0000.0001)                 2.923599955312932E+05,      /* I = 45 */
(PID.TID 0000.0001)                 2.963038832565530E+05,      /* I = 46 */
(PID.TID 0000.0001)                 2.991142470004740E+05,      /* I = 47 */
(PID.TID 0000.0001)                 3.007982711627968E+05,      /* I = 48 */
(PID.TID 0000.0001)                 3.013593857228136E+05,      /* I = 49 */
(PID.TID 0000.0001)                 3.007982711627968E+05,      /* I = 50 */
(PID.TID 0000.0001)                 2.991142470004740E+05,      /* I = 51 */
(PID.TID 0000.0001)                 2.963038832565530E+05,      /* I = 52 */
(PID.TID 0000.0001)                 2.923599955312932E+05,      /* I = 53 */
(PID.TID 0000.0001)                 2.872689479506990E+05,      /* I = 54 */
(PID.TID 0000.0001)                 2.810065951609633E+05,      /* I = 55 */
(PID.TID 0000.0001)                 2.735321911346108E+05,      /* I = 56 */
(PID.TID 0000.0001)                 2.647791839299727E+05,      /* I = 57 */
(PID.TID 0000.0001)                 2.546408290696998E+05,      /* I = 58 */
(PID.TID 0000.0001)                 2.429464709770498E+05,      /* I = 59 */
(PID.TID 0000.0001)                 2.294195678257306E+05,      /* I = 60 */
(PID.TID 0000.0001)                 2.135964483342134E+05,      /* I = 61 */
(PID.TID 0000.0001)                 1.946503699269892E+05,      /* I = 62 */
(PID.TID 0000.0001)                 1.709574999026266E+05,      /* I = 63 */
(PID.TID 0000.0001)                 1.391343389937106E+05,      /* I = 64 */
(PID.TID 0000.0001)                 1.114203141013064E+05,      /* I = 65 */
(PID.TID 0000.0001)                 1.391343389937106E+05,      /* I = 66 */
(PID.TID 0000.0001)                 1.709574999026266E+05,      /* I = 67 */
(PID.TID 0000.0001)                 1.946503699269892E+05,      /* I = 68 */
(PID.TID 0000.0001)                 2.135964483342134E+05,      /* I = 69 */
(PID.TID 0000.0001)                 2.294195678257306E+05,      /* I = 70 */
(PID.TID 0000.0001)                 2.429464709770498E+05,      /* I = 71 */
(PID.TID 0000.0001)                 2.546408290696998E+05,      /* I = 72 */
(PID.TID 0000.0001)                 2.647791839299727E+05,      /* I = 73 */
(PID.TID 0000.0001)                 2.735321911346108E+05,      /* I = 74 */
(PID.TID 0000.0001)                 2.810065951609633E+05,      /* I = 75 */
(PID.TID 0000.0001)                 2.872689479506990E+05,      /* I = 76 */
(PID.TID 0000.0001)                 2.923599955312932E+05,      /* I = 77 */
(PID.TID 0000.0001)                 2.963038832565530E+05,      /* I = 78 */
(PID.TID 0000.0001)                 2.991142470004740E+05,      /* I = 79 */
(PID.TID 0000.0001)                 3.007982711627968E+05,      /* I = 80 */
(PID.TID 0000.0001)                 3.013593857228136E+05,      /* I = 81 */
(PID.TID 0000.0001)                 3.007982711627968E+05,      /* I = 82 */
(PID.TID 0000.0001)                 2.991142470004740E+05,      /* I = 83 */
(PID.TID 0000.0001)                 2.963038832565530E+05,      /* I = 84 */
(PID.TID 0000.0001)                 2.923599955312932E+05,      /* I = 85 */
(PID.TID 0000.0001)                 2.872689479506990E+05,      /* I = 86 */
(PID.TID 0000.0001)                 2.810065951609633E+05,      /* I = 87 */
(PID.TID 0000.0001)                 2.735321911346108E+05,      /* I = 88 */
(PID.TID 0000.0001)                 2.647791839299727E+05,      /* I = 89 */
(PID.TID 0000.0001)                 2.546408290696998E+05,      /* I = 90 */
(PID.TID 0000.0001)                 2.429464709770498E+05,      /* I = 91 */
(PID.TID 0000.0001)                 2.294195678257306E+05,      /* I = 92 */
(PID.TID 0000.0001)                 2.135964483342134E+05,      /* I = 93 */
(PID.TID 0000.0001)                 1.946503699269892E+05,      /* I = 94 */
(PID.TID 0000.0001)                 1.709574999026266E+05,      /* I = 95 */
(PID.TID 0000.0001)                 1.391343389937106E+05,      /* I = 96 */
(PID.TID 0000.0001)                 1.114203141013064E+05,      /* I = 97 */
(PID.TID 0000.0001)                 1.391343389937106E+05,      /* I = 98 */
(PID.TID 0000.0001)                 1.709574999026266E+05,      /* I = 99 */
(PID.TID 0000.0001)                 1.946503699269892E+05,      /* I =100 */
(PID.TID 0000.0001)                 2.135964483342134E+05,      /* I =101 */
(PID.TID 0000.0001)                 2.294195678257306E+05,      /* I =102 */
(PID.TID 0000.0001)                 2.429464709770498E+05,      /* I =103 */
(PID.TID 0000.0001)                 2.546408290696998E+05,      /* I =104 */
(PID.TID 0000.0001)                 2.647791839299727E+05,      /* I =105 */
(PID.TID 0000.0001)                 2.735321911346108E+05,      /* I =106 */
(PID.TID 0000.0001)                 2.810065951609633E+05,      /* I =107 */
(PID.TID 0000.0001)                 2.872689479506990E+05,      /* I =108 */
(PID.TID 0000.0001)                 2.923599955312932E+05,      /* I =109 */
(PID.TID 0000.0001)                 2.963038832565530E+05,      /* I =110 */
(PID.TID 0000.0001)                 2.991142470004740E+05,      /* I =111 */
(PID.TID 0000.0001)                 3.007982711627968E+05,      /* I =112 */
(PID.TID 0000.0001)                 3.013593857228136E+05,      /* I =113 */
(PID.TID 0000.0001)                 3.007982711627968E+05,      /* I =114 */
(PID.TID 0000.0001)                 2.991142470004740E+05,      /* I =115 */
(PID.TID 0000.0001)                 2.963038832565530E+05,      /* I =116 */
(PID.TID 0000.0001)                 2.923599955312932E+05,      /* I =117 */
(PID.TID 0000.0001)                 2.872689479506990E+05,      /* I =118 */
(PID.TID 0000.0001)                 2.810065951609633E+05,      /* I =119 */
(PID.TID 0000.0001)                 2.735321911346108E+05,      /* I =120 */
(PID.TID 0000.0001)                 2.647791839299727E+05,      /* I =121 */
(PID.TID 0000.0001)                 2.546408290696998E+05,      /* I =122 */
(PID.TID 0000.0001)                 2.429464709770498E+05,      /* I =123 */
(PID.TID 0000.0001)                 2.294195678257306E+05,      /* I =124 */
(PID.TID 0000.0001)                 2.135964483342134E+05,      /* I =125 */
(PID.TID 0000.0001)                 1.946503699269892E+05,      /* I =126 */
(PID.TID 0000.0001)                 1.709574999026266E+05,      /* I =127 */
(PID.TID 0000.0001)                 1.391343389937106E+05,      /* I =128 */
(PID.TID 0000.0001)                 1.114203141013064E+05,      /* I =129 */
(PID.TID 0000.0001)                 1.391343389937106E+05,      /* I =130 */
(PID.TID 0000.0001)                 1.709574999026266E+05,      /* I =131 */
(PID.TID 0000.0001)                 1.946503699269892E+05,      /* I =132 */
(PID.TID 0000.0001)                 2.135964483342134E+05,      /* I =133 */
(PID.TID 0000.0001)                 2.294195678257306E+05,      /* I =134 */
(PID.TID 0000.0001)                 2.429464709770498E+05,      /* I =135 */
(PID.TID 0000.0001)                 2.546408290696998E+05,      /* I =136 */
(PID.TID 0000.0001)                 2.647791839299727E+05,      /* I =137 */
(PID.TID 0000.0001)                 2.735321911346108E+05,      /* I =138 */
(PID.TID 0000.0001)                 2.810065951609633E+05,      /* I =139 */
(PID.TID 0000.0001)                 2.872689479506990E+05,      /* I =140 */
(PID.TID 0000.0001)                 2.923599955312932E+05,      /* I =141 */
(PID.TID 0000.0001)                 2.963038832565530E+05,      /* I =142 */
(PID.TID 0000.0001)                 2.991142470004740E+05,      /* I =143 */
(PID.TID 0000.0001)                 3.007982711627968E+05,      /* I =144 */
(PID.TID 0000.0001)                 3.013593857228136E+05,      /* I =145 */
(PID.TID 0000.0001)                 3.007982711627968E+05,      /* I =146 */
(PID.TID 0000.0001)                 2.991142470004740E+05,      /* I =147 */
(PID.TID 0000.0001)                 2.963038832565530E+05,      /* I =148 */
(PID.TID 0000.0001)                 2.923599955312932E+05,      /* I =149 */
(PID.TID 0000.0001)                 2.872689479506990E+05,      /* I =150 */
(PID.TID 0000.0001)                 2.810065951609633E+05,      /* I =151 */
(PID.TID 0000.0001)                 2.735321911346108E+05,      /* I =152 */
(PID.TID 0000.0001)                 2.647791839299727E+05,      /* I =153 */
(PID.TID 0000.0001)                 2.546408290696998E+05,      /* I =154 */
(PID.TID 0000.0001)                 2.429464709770498E+05,      /* I =155 */
(PID.TID 0000.0001)                 2.294195678257306E+05,      /* I =156 */
(PID.TID 0000.0001)                 2.135964483342134E+05,      /* I =157 */
(PID.TID 0000.0001)                 1.946503699269892E+05,      /* I =158 */
(PID.TID 0000.0001)                 1.709574999026266E+05,      /* I =159 */
(PID.TID 0000.0001)                 1.391343389937106E+05,      /* I =160 */
(PID.TID 0000.0001)                 1.114203141013064E+05,      /* I =161 */
(PID.TID 0000.0001)                 1.391343389937106E+05,      /* I =162 */
(PID.TID 0000.0001)                 1.709574999026266E+05,      /* I =163 */
(PID.TID 0000.0001)                 1.946503699269892E+05,      /* I =164 */
(PID.TID 0000.0001)                 2.135964483342134E+05,      /* I =165 */
(PID.TID 0000.0001)                 2.294195678257306E+05,      /* I =166 */
(PID.TID 0000.0001)                 2.429464709770498E+05,      /* I =167 */
(PID.TID 0000.0001)                 2.546408290696998E+05,      /* I =168 */
(PID.TID 0000.0001)                 2.647791839299727E+05,      /* I =169 */
(PID.TID 0000.0001)                 2.735321911346108E+05,      /* I =170 */
(PID.TID 0000.0001)                 2.810065951609633E+05,      /* I =171 */
(PID.TID 0000.0001)                 2.872689479506990E+05,      /* I =172 */
(PID.TID 0000.0001)                 2.923599955312932E+05,      /* I =173 */
(PID.TID 0000.0001)                 2.963038832565530E+05,      /* I =174 */
(PID.TID 0000.0001)                 2.991142470004740E+05,      /* I =175 */
(PID.TID 0000.0001)                 3.007982711627968E+05,      /* I =176 */
(PID.TID 0000.0001)                 3.013593857228136E+05,      /* I =177 */
(PID.TID 0000.0001)                 3.007982711627968E+05,      /* I =178 */
(PID.TID 0000.0001)                 2.991142470004740E+05,      /* I =179 */
(PID.TID 0000.0001)                 2.963038832565530E+05,      /* I =180 */
(PID.TID 0000.0001)                 2.923599955312932E+05,      /* I =181 */
(PID.TID 0000.0001)                 2.872689479506990E+05,      /* I =182 */
(PID.TID 0000.0001)                 2.810065951609633E+05,      /* I =183 */
(PID.TID 0000.0001)                 2.735321911346108E+05,      /* I =184 */
(PID.TID 0000.0001)                 2.647791839299727E+05,      /* I =185 */
(PID.TID 0000.0001)                 2.546408290696998E+05,      /* I =186 */
(PID.TID 0000.0001)                 2.429464709770498E+05,      /* I =187 */
(PID.TID 0000.0001)                 2.294195678257306E+05,      /* I =188 */
(PID.TID 0000.0001)                 2.135964483342134E+05,      /* I =189 */
(PID.TID 0000.0001)                 1.946503699269892E+05,      /* I =190 */
(PID.TID 0000.0001)                 1.709574999026266E+05,      /* I =191 */
(PID.TID 0000.0001)                 1.391343389937106E+05       /* I =192 */
(PID.TID 0000.0001)     ;
(PID.TID 0000.0001) dxC =  /* dxC(1,:,1,:) ( units: m ) */
(PID.TID 0000.0001)                 1.114203141013064E+05,      /* J =  1 */
(PID.TID 0000.0001)                 1.549545757850771E+05,      /* J =  2 */
(PID.TID 0000.0001)                 1.829777599966776E+05,      /* J =  3 */
(PID.TID 0000.0001)                 2.042717761866506E+05,      /* J =  4 */
(PID.TID 0000.0001)                 2.216367828252819E+05,      /* J =  5 */
(PID.TID 0000.0001)                 2.363029564123586E+05,      /* J =  6 */
(PID.TID 0000.0001)                 2.489113743322025E+05,      /* J =  7 */
(PID.TID 0000.0001)                 2.598293319150326E+05,      /* J =  8 */
(PID.TID 0000.0001)                 2.692787333338535E+05,      /* J =  9 */
(PID.TID 0000.0001)                 2.773972106720365E+05,      /* J = 10 */
(PID.TID 0000.0001)                 2.842706922224557E+05,      /* J = 11 */
(PID.TID 0000.0001)                 2.899523122489403E+05,      /* J = 12 */
(PID.TID 0000.0001)                 2.944741346384699E+05,      /* J = 13 */
(PID.TID 0000.0001)                 2.978547649292580E+05,      /* J = 14 */
(PID.TID 0000.0001)                 3.001044073506459E+05,      /* J = 15 */
(PID.TID 0000.0001)     2 @  3.012281885409289E+05,             /* J = 16: 17 */
(PID.TID 0000.0001)                 3.001044073506459E+05,      /* J = 18 */
(PID.TID 0000.0001)                 2.978547649292580E+05,      /* J = 19 */
(PID.TID 0000.0001)                 2.944741346384699E+05,      /* J = 20 */
(PID.TID 0000.0001)                 2.899523122489403E+05,      /* J = 21 */
(PID.TID 0000.0001)                 2.842706922224557E+05,      /* J = 22 */
(PID.TID 0000.0001)                 2.773972106720365E+05,      /* J = 23 */
(PID.TID 0000.0001)                 2.692787333338535E+05,      /* J = 24 */
(PID.TID 0000.0001)                 2.598293319150326E+05,      /* J = 25 */
(PID.TID 0000.0001)                 2.489113743322025E+05,      /* J = 26 */
(PID.TID 0000.0001)                 2.363029564123586E+05,      /* J = 27 */
(PID.TID 0000.0001)                 2.216367828252819E+05,      /* J = 28 */
(PID.TID 0000.0001)                 2.042717761866506E+05,      /* J = 29 */
(PID.TID 0000.0001)                 1.829777599966776E+05,      /* J = 30 */
(PID.TID 0000.0001)                 1.549545757850771E+05,      /* J = 31 */
(PID.TID 0000.0001)                 1.114203141013064E+05       /* J = 32 */
(PID.TID 0000.0001)     ;
(PID.TID 0000.0001) dyC =  /* dyC(:,1,:,1) ( units: m ) */
(PID.TID 0000.0001)                 1.114203141013064E+05,      /* I =  1 */
(PID.TID 0000.0001)                 1.549545757850771E+05,      /* I =  2 */
(PID.TID 0000.0001)                 1.829777599966776E+05,      /* I =  3 */
(PID.TID 0000.0001)                 2.042717761866506E+05,      /* I =  4 */
(PID.TID 0000.0001)                 2.216367828252819E+05,      /* I =  5 */
(PID.TID 0000.0001)                 2.363029564123586E+05,      /* I =  6 */
(PID.TID 0000.0001)                 2.489113743322025E+05,      /* I =  7 */
(PID.TID 0000.0001)                 2.598293319150326E+05,      /* I =  8 */
(PID.TID 0000.0001)                 2.692787333338535E+05,      /* I =  9 */
(PID.TID 0000.0001)                 2.773972106720365E+05,      /* I = 10 */
(PID.TID 0000.0001)                 2.842706922224557E+05,      /* I = 11 */
(PID.TID 0000.0001)                 2.899523122489403E+05,      /* I = 12 */
(PID.TID 0000.0001)                 2.944741346384699E+05,      /* I = 13 */
(PID.TID 0000.0001)                 2.978547649292580E+05,      /* I = 14 */
(PID.TID 0000.0001)                 3.001044073506459E+05,      /* I = 15 */
(PID.TID 0000.0001)     2 @  3.012281885409289E+05,             /* I = 16: 17 */
(PID.TID 0000.0001)                 3.001044073506459E+05,      /* I = 18 */
(PID.TID 0000.0001)                 2.978547649292580E+05,      /* I = 19 */
(PID.TID 0000.0001)                 2.944741346384699E+05,      /* I = 20 */
(PID.TID 0000.0001)                 2.899523122489403E+05,      /* I = 21 */
(PID.TID 0000.0001)                 2.842706922224557E+05,      /* I = 22 */
(PID.TID 0000.0001)                 2.773972106720365E+05,      /* I = 23 */
(PID.TID 0000.0001)                 2.692787333338535E+05,      /* I = 24 */
(PID.TID 0000.0001)                 2.598293319150326E+05,      /* I = 25 */
(PID.TID 0000.0001)                 2.489113743322025E+05,      /* I = 26 */
(PID.TID 0000.0001)                 2.363029564123586E+05,      /* I = 27 */
(PID.TID 0000.0001)                 2.216367828252819E+05,      /* I = 28 */
(PID.TID 0000.0001)                 2.042717761866506E+05,      /* I = 29 */
(PID.TID 0000.0001)                 1.829777599966776E+05,      /* I = 30 */
(PID.TID 0000.0001)                 1.549545757850771E+05,      /* I = 31 */
(PID.TID 0000.0001)     2 @  1.114203141013064E+05,             /* I = 32: 33 */
(PID.TID 0000.0001)                 1.549545757850771E+05,      /* I = 34 */
(PID.TID 0000.0001)                 1.829777599966776E+05,      /* I = 35 */
(PID.TID 0000.0001)                 2.042717761866506E+05,      /* I = 36 */
(PID.TID 0000.0001)                 2.216367828252819E+05,      /* I = 37 */
(PID.TID 0000.0001)                 2.363029564123586E+05,      /* I = 38 */
(PID.TID 0000.0001)                 2.489113743322025E+05,      /* I = 39 */
(PID.TID 0000.0001)                 2.598293319150326E+05,      /* I = 40 */
(PID.TID 0000.0001)                 2.692787333338535E+05,      /* I = 41 */
(PID.TID 0000.0001)                 2.773972106720365E+05,      /* I = 42 */
(PID.TID 0000.0001)                 2.842706922224557E+05,      /* I = 43 */
(PID.TID 0000.0001)                 2.899523122489403E+05,      /* I = 44 */
(PID.TID 0000.0001)                 2.944741346384699E+05,      /* I = 45 */
(PID.TID 0000.0001)                 2.978547649292580E+05,      /* I = 46 */
(PID.TID 0000.0001)                 3.001044073506459E+05,      /* I = 47 */
(PID.TID 0000.0001)     2 @  3.012281885409289E+05,             /* I = 48: 49 */
(PID.TID 0000.0001)                 3.001044073506459E+05,      /* I = 50 */
(PID.TID 0000.0001)                 2.978547649292580E+05,      /* I = 51 */
(PID.TID 0000.0001)                 2.944741346384699E+05,      /* I = 52 */
(PID.TID 0000.0001)                 2.899523122489403E+05,      /* I = 53 */
(PID.TID 0000.0001)                 2.842706922224557E+05,      /* I = 54 */
(PID.TID 0000.0001)                 2.773972106720365E+05,      /* I = 55 */
(PID.TID 0000.0001)                 2.692787333338535E+05,      /* I = 56 */
(PID.TID 0000.0001)                 2.598293319150326E+05,      /* I = 57 */
(PID.TID 0000.0001)                 2.489113743322025E+05,      /* I = 58 */
(PID.TID 0000.0001)                 2.363029564123586E+05,      /* I = 59 */
(PID.TID 0000.0001)                 2.216367828252819E+05,      /* I = 60 */
(PID.TID 0000.0001)                 2.042717761866506E+05,      /* I = 61 */
(PID.TID 0000.0001)                 1.829777599966776E+05,      /* I = 62 */
(PID.TID 0000.0001)                 1.549545757850771E+05,      /* I = 63 */
(PID.TID 0000.0001)     2 @  1.114203141013064E+05,             /* I = 64: 65 */
(PID.TID 0000.0001)                 1.549545757850771E+05,      /* I = 66 */
(PID.TID 0000.0001)                 1.829777599966776E+05,      /* I = 67 */
(PID.TID 0000.0001)                 2.042717761866506E+05,      /* I = 68 */
(PID.TID 0000.0001)                 2.216367828252819E+05,      /* I = 69 */
(PID.TID 0000.0001)                 2.363029564123586E+05,      /* I = 70 */
(PID.TID 0000.0001)                 2.489113743322025E+05,      /* I = 71 */
(PID.TID 0000.0001)                 2.598293319150326E+05,      /* I = 72 */
(PID.TID 0000.0001)                 2.692787333338535E+05,      /* I = 73 */
(PID.TID 0000.0001)                 2.773972106720365E+05,      /* I = 74 */
(PID.TID 0000.0001)                 2.842706922224557E+05,      /* I = 75 */
(PID.TID 0000.0001)                 2.899523122489403E+05,      /* I = 76 */
(PID.TID 0000.0001)                 2.944741346384699E+05,      /* I = 77 */
(PID.TID 0000.0001)                 2.978547649292580E+05,      /* I = 78 */
(PID.TID 0000.0001)                 3.001044073506459E+05,      /* I = 79 */
(PID.TID 0000.0001)     2 @  3.012281885409289E+05,             /* I = 80: 81 */
(PID.TID 0000.0001)                 3.001044073506459E+05,      /* I = 82 */
(PID.TID 0000.0001)                 2.978547649292580E+05,      /* I = 83 */
(PID.TID 0000.0001)                 2.944741346384699E+05,      /* I = 84 */
(PID.TID 0000.0001)                 2.899523122489403E+05,      /* I = 85 */
(PID.TID 0000.0001)                 2.842706922224557E+05,      /* I = 86 */
(PID.TID 0000.0001)                 2.773972106720365E+05,      /* I = 87 */
(PID.TID 0000.0001)                 2.692787333338535E+05,      /* I = 88 */
(PID.TID 0000.0001)                 2.598293319150326E+05,      /* I = 89 */
(PID.TID 0000.0001)                 2.489113743322025E+05,      /* I = 90 */
(PID.TID 0000.0001)                 2.363029564123586E+05,      /* I = 91 */
(PID.TID 0000.0001)                 2.216367828252819E+05,      /* I = 92 */
(PID.TID 0000.0001)                 2.042717761866506E+05,      /* I = 93 */
(PID.TID 0000.0001)                 1.829777599966776E+05,      /* I = 94 */
(PID.TID 0000.0001)                 1.549545757850771E+05,      /* I = 95 */
(PID.TID 0000.0001)     2 @  1.114203141013064E+05,             /* I = 96: 97 */
(PID.TID 0000.0001)                 1.549545757850771E+05,      /* I = 98 */
(PID.TID 0000.0001)                 1.829777599966776E+05,      /* I = 99 */
(PID.TID 0000.0001)                 2.042717761866506E+05,      /* I =100 */
(PID.TID 0000.0001)                 2.216367828252819E+05,      /* I =101 */
(PID.TID 0000.0001)                 2.363029564123586E+05,      /* I =102 */
(PID.TID 0000.0001)                 2.489113743322025E+05,      /* I =103 */
(PID.TID 0000.0001)                 2.598293319150326E+05,      /* I =104 */
(PID.TID 0000.0001)                 2.692787333338535E+05,      /* I =105 */
(PID.TID 0000.0001)                 2.773972106720365E+05,      /* I =106 */
(PID.TID 0000.0001)                 2.842706922224557E+05,      /* I =107 */
(PID.TID 0000.0001)                 2.899523122489403E+05,      /* I =108 */
(PID.TID 0000.0001)                 2.944741346384699E+05,      /* I =109 */
(PID.TID 0000.0001)                 2.978547649292580E+05,      /* I =110 */
(PID.TID 0000.0001)                 3.001044073506459E+05,      /* I =111 */
(PID.TID 0000.0001)     2 @  3.012281885409289E+05,             /* I =112:113 */
(PID.TID 0000.0001)                 3.001044073506459E+05,      /* I =114 */
(PID.TID 0000.0001)                 2.978547649292580E+05,      /* I =115 */
(PID.TID 0000.0001)                 2.944741346384699E+05,      /* I =116 */
(PID.TID 0000.0001)                 2.899523122489403E+05,      /* I =117 */
(PID.TID 0000.0001)                 2.842706922224557E+05,      /* I =118 */
(PID.TID 0000.0001)                 2.773972106720365E+05,      /* I =119 */
(PID.TID 0000.0001)                 2.692787333338535E+05,      /* I =120 */
(PID.TID 0000.0001)                 2.598293319150326E+05,      /* I =121 */
(PID.TID 0000.0001)                 2.489113743322025E+05,      /* I =122 */
(PID.TID 0000.0001)                 2.363029564123586E+05,      /* I =123 */
(PID.TID 0000.0001)                 2.216367828252819E+05,      /* I =124 */
(PID.TID 0000.0001)                 2.042717761866506E+05,      /* I =125 */
(PID.TID 0000.0001)                 1.829777599966776E+05,      /* I =126 */
(PID.TID 0000.0001)                 1.549545757850771E+05,      /* I =127 */
(PID.TID 0000.0001)     2 @  1.114203141013064E+05,             /* I =128:129 */
(PID.TID 0000.0001)                 1.549545757850771E+05,      /* I =130 */
(PID.TID 0000.0001)                 1.829777599966776E+05,      /* I =131 */
(PID.TID 0000.0001)                 2.042717761866506E+05,      /* I =132 */
(PID.TID 0000.0001)                 2.216367828252819E+05,      /* I =133 */
(PID.TID 0000.0001)                 2.363029564123586E+05,      /* I =134 */
(PID.TID 0000.0001)                 2.489113743322025E+05,      /* I =135 */
(PID.TID 0000.0001)                 2.598293319150326E+05,      /* I =136 */
(PID.TID 0000.0001)                 2.692787333338535E+05,      /* I =137 */
(PID.TID 0000.0001)                 2.773972106720365E+05,      /* I =138 */
(PID.TID 0000.0001)                 2.842706922224557E+05,      /* I =139 */
(PID.TID 0000.0001)                 2.899523122489403E+05,      /* I =140 */
(PID.TID 0000.0001)                 2.944741346384699E+05,      /* I =141 */
(PID.TID 0000.0001)                 2.978547649292580E+05,      /* I =142 */
(PID.TID 0000.0001)                 3.001044073506459E+05,      /* I =143 */
(PID.TID 0000.0001)     2 @  3.012281885409289E+05,             /* I =144:145 */
(PID.TID 0000.0001)                 3.001044073506459E+05,      /* I =146 */
(PID.TID 0000.0001)                 2.978547649292580E+05,      /* I =147 */
(PID.TID 0000.0001)                 2.944741346384699E+05,      /* I =148 */
(PID.TID 0000.0001)                 2.899523122489403E+05,      /* I =149 */
(PID.TID 0000.0001)                 2.842706922224557E+05,      /* I =150 */
(PID.TID 0000.0001)                 2.773972106720365E+05,      /* I =151 */
(PID.TID 0000.0001)                 2.692787333338535E+05,      /* I =152 */
(PID.TID 0000.0001)                 2.598293319150326E+05,      /* I =153 */
(PID.TID 0000.0001)                 2.489113743322025E+05,      /* I =154 */
(PID.TID 0000.0001)                 2.363029564123586E+05,      /* I =155 */
(PID.TID 0000.0001)                 2.216367828252819E+05,      /* I =156 */
(PID.TID 0000.0001)                 2.042717761866506E+05,      /* I =157 */
(PID.TID 0000.0001)                 1.829777599966776E+05,      /* I =158 */
(PID.TID 0000.0001)                 1.549545757850771E+05,      /* I =159 */
(PID.TID 0000.0001)     2 @  1.114203141013064E+05,             /* I =160:161 */
(PID.TID 0000.0001)                 1.549545757850771E+05,      /* I =162 */
(PID.TID 0000.0001)                 1.829777599966776E+05,      /* I =163 */
(PID.TID 0000.0001)                 2.042717761866506E+05,      /* I =164 */
(PID.TID 0000.0001)                 2.216367828252819E+05,      /* I =165 */
(PID.TID 0000.0001)                 2.363029564123586E+05,      /* I =166 */
(PID.TID 0000.0001)                 2.489113743322025E+05,      /* I =167 */
(PID.TID 0000.0001)                 2.598293319150326E+05,      /* I =168 */
(PID.TID 0000.0001)                 2.692787333338535E+05,      /* I =169 */
(PID.TID 0000.0001)                 2.773972106720365E+05,      /* I =170 */
(PID.TID 0000.0001)                 2.842706922224557E+05,      /* I =171 */
(PID.TID 0000.0001)                 2.899523122489403E+05,      /* I =172 */
(PID.TID 0000.0001)                 2.944741346384699E+05,      /* I =173 */
(PID.TID 0000.0001)                 2.978547649292580E+05,      /* I =174 */
(PID.TID 0000.0001)                 3.001044073506459E+05,      /* I =175 */
(PID.TID 0000.0001)     2 @  3.012281885409289E+05,             /* I =176:177 */
(PID.TID 0000.0001)                 3.001044073506459E+05,      /* I =178 */
(PID.TID 0000.0001)                 2.978547649292580E+05,      /* I =179 */
(PID.TID 0000.0001)                 2.944741346384699E+05,      /* I =180 */
(PID.TID 0000.0001)                 2.899523122489403E+05,      /* I =181 */
(PID.TID 0000.0001)                 2.842706922224557E+05,      /* I =182 */
(PID.TID 0000.0001)                 2.773972106720365E+05,      /* I =183 */
(PID.TID 0000.0001)                 2.692787333338535E+05,      /* I =184 */
(PID.TID 0000.0001)                 2.598293319150326E+05,      /* I =185 */
(PID.TID 0000.0001)                 2.489113743322025E+05,      /* I =186 */
(PID.TID 0000.0001)                 2.363029564123586E+05,      /* I =187 */
(PID.TID 0000.0001)                 2.216367828252819E+05,      /* I =188 */
(PID.TID 0000.0001)                 2.042717761866506E+05,      /* I =189 */
(PID.TID 0000.0001)                 1.829777599966776E+05,      /* I =190 */
(PID.TID 0000.0001)                 1.549545757850771E+05,      /* I =191 */
(PID.TID 0000.0001)                 1.114203141013064E+05       /* I =192 */
(PID.TID 0000.0001)     ;
(PID.TID 0000.0001) dyC =  /* dyC(1,:,1,:) ( units: m ) */
(PID.TID 0000.0001)                 1.114203141013064E+05,      /* J =  1 */
(PID.TID 0000.0001)                 1.391343389937106E+05,      /* J =  2 */
(PID.TID 0000.0001)                 1.709574999026266E+05,      /* J =  3 */
(PID.TID 0000.0001)                 1.946503699269892E+05,      /* J =  4 */
(PID.TID 0000.0001)                 2.135964483342134E+05,      /* J =  5 */
(PID.TID 0000.0001)                 2.294195678257306E+05,      /* J =  6 */
(PID.TID 0000.0001)                 2.429464709770498E+05,      /* J =  7 */
(PID.TID 0000.0001)                 2.546408290696998E+05,      /* J =  8 */
(PID.TID 0000.0001)                 2.647791839299727E+05,      /* J =  9 */
(PID.TID 0000.0001)                 2.735321911346108E+05,      /* J = 10 */
(PID.TID 0000.0001)                 2.810065951609633E+05,      /* J = 11 */
(PID.TID 0000.0001)                 2.872689479506990E+05,      /* J = 12 */
(PID.TID 0000.0001)                 2.923599955312932E+05,      /* J = 13 */
(PID.TID 0000.0001)                 2.963038832565530E+05,      /* J = 14 */
(PID.TID 0000.0001)                 2.991142470004740E+05,      /* J = 15 */
(PID.TID 0000.0001)                 3.007982711627968E+05,      /* J = 16 */
(PID.TID 0000.0001)                 3.013593857228136E+05,      /* J = 17 */
(PID.TID 0000.0001)                 3.007982711627968E+05,      /* J = 18 */
(PID.TID 0000.0001)                 2.991142470004740E+05,      /* J = 19 */
(PID.TID 0000.0001)                 2.963038832565530E+05,      /* J = 20 */
(PID.TID 0000.0001)                 2.923599955312932E+05,      /* J = 21 */
(PID.TID 0000.0001)                 2.872689479506990E+05,      /* J = 22 */
(PID.TID 0000.0001)                 2.810065951609633E+05,      /* J = 23 */
(PID.TID 0000.0001)                 2.735321911346108E+05,      /* J = 24 */
(PID.TID 0000.0001)                 2.647791839299727E+05,      /* J = 25 */
(PID.TID 0000.0001)                 2.546408290696998E+05,      /* J = 26 */
(PID.TID 0000.0001)                 2.429464709770498E+05,      /* J = 27 */
(PID.TID 0000.0001)                 2.294195678257306E+05,      /* J = 28 */
(PID.TID 0000.0001)                 2.135964483342134E+05,      /* J = 29 */
(PID.TID 0000.0001)                 1.946503699269892E+05,      /* J = 30 */
(PID.TID 0000.0001)                 1.709574999026266E+05,      /* J = 31 */
(PID.TID 0000.0001)                 1.391343389937106E+05       /* J = 32 */
(PID.TID 0000.0001)     ;
(PID.TID 0000.0001) dxV =  /* dxV(:,1,:,1) ( units: m ) */
(PID.TID 0000.0001)                 8.015229982413632E+04,      /* I =  1 */
(PID.TID 0000.0001)                 1.333130744933864E+05,      /* I =  2 */
(PID.TID 0000.0001)                 1.691744868129062E+05,      /* I =  3 */
(PID.TID 0000.0001)                 1.937548202849060E+05,      /* I =  4 */
(PID.TID 0000.0001)                 2.130490056267208E+05,      /* I =  5 */
(PID.TID 0000.0001)                 2.290479919481738E+05,      /* I =  6 */
(PID.TID 0000.0001)                 2.426774358027003E+05,      /* I =  7 */
(PID.TID 0000.0001)                 2.544372984215561E+05,      /* I =  8 */
(PID.TID 0000.0001)                 2.646201463834826E+05,      /* I =  9 */
(PID.TID 0000.0001)                 2.734046499619031E+05,      /* I = 10 */
(PID.TID 0000.0001)                 2.809019351693761E+05,      /* I = 11 */
(PID.TID 0000.0001)                 2.871811105274442E+05,      /* I = 12 */
(PID.TID 0000.0001)                 2.922844849381675E+05,      /* I = 13 */
(PID.TID 0000.0001)                 2.962371870847826E+05,      /* I = 14 */
(PID.TID 0000.0001)                 2.990534755671296E+05,      /* I = 15 */
(PID.TID 0000.0001)                 3.007409169495504E+05,      /* I = 16 */
(PID.TID 0000.0001)                 3.013031486919771E+05,      /* I = 17 */
(PID.TID 0000.0001)                 3.007409169495504E+05,      /* I = 18 */
(PID.TID 0000.0001)                 2.990534755671296E+05,      /* I = 19 */
(PID.TID 0000.0001)                 2.962371870847826E+05,      /* I = 20 */
(PID.TID 0000.0001)                 2.922844849381675E+05,      /* I = 21 */
(PID.TID 0000.0001)                 2.871811105274442E+05,      /* I = 22 */
(PID.TID 0000.0001)                 2.809019351693761E+05,      /* I = 23 */
(PID.TID 0000.0001)                 2.734046499619031E+05,      /* I = 24 */
(PID.TID 0000.0001)                 2.646201463834826E+05,      /* I = 25 */
(PID.TID 0000.0001)                 2.544372984215561E+05,      /* I = 26 */
(PID.TID 0000.0001)                 2.426774358027003E+05,      /* I = 27 */
(PID.TID 0000.0001)                 2.290479919481738E+05,      /* I = 28 */
(PID.TID 0000.0001)                 2.130490056267208E+05,      /* I = 29 */
(PID.TID 0000.0001)                 1.937548202849060E+05,      /* I = 30 */
(PID.TID 0000.0001)                 1.691744868129062E+05,      /* I = 31 */
(PID.TID 0000.0001)                 1.333130744933864E+05,      /* I = 32 */
(PID.TID 0000.0001)                 8.015229982413632E+04,      /* I = 33 */
(PID.TID 0000.0001)                 1.333130744933864E+05,      /* I = 34 */
(PID.TID 0000.0001)                 1.691744868129062E+05,      /* I = 35 */
(PID.TID 0000.0001)                 1.937548202849060E+05,      /* I = 36 */
(PID.TID 0000.0001)                 2.130490056267208E+05,      /* I = 37 */
(PID.TID 0000.0001)                 2.290479919481738E+05,      /* I = 38 */
(PID.TID 0000.0001)                 2.426774358027003E+05,      /* I = 39 */
(PID.TID 0000.0001)                 2.544372984215561E+05,      /* I = 40 */
(PID.TID 0000.0001)                 2.646201463834826E+05,      /* I = 41 */
(PID.TID 0000.0001)                 2.734046499619031E+05,      /* I = 42 */
(PID.TID 0000.0001)                 2.809019351693761E+05,      /* I = 43 */
(PID.TID 0000.0001)                 2.871811105274442E+05,      /* I = 44 */
(PID.TID 0000.0001)                 2.922844849381675E+05,      /* I = 45 */
(PID.TID 0000.0001)                 2.962371870847826E+05,      /* I = 46 */
(PID.TID 0000.0001)                 2.990534755671296E+05,      /* I = 47 */
(PID.TID 0000.0001)                 3.007409169495504E+05,      /* I = 48 */
(PID.TID 0000.0001)                 3.013031486919771E+05,      /* I = 49 */
(PID.TID 0000.0001)                 3.007409169495504E+05,      /* I = 50 */
(PID.TID 0000.0001)                 2.990534755671296E+05,      /* I = 51 */
(PID.TID 0000.0001)                 2.962371870847826E+05,      /* I = 52 */
(PID.TID 0000.0001)                 2.922844849381675E+05,      /* I = 53 */
(PID.TID 0000.0001)                 2.871811105274442E+05,      /* I = 54 */
(PID.TID 0000.0001)                 2.809019351693761E+05,      /* I = 55 */
(PID.TID 0000.0001)                 2.734046499619031E+05,      /* I = 56 */
(PID.TID 0000.0001)                 2.646201463834826E+05,      /* I = 57 */
(PID.TID 0000.0001)                 2.544372984215561E+05,      /* I = 58 */
(PID.TID 0000.0001)                 2.426774358027003E+05,      /* I = 59 */
(PID.TID 0000.0001)                 2.290479919481738E+05,      /* I = 60 */
(PID.TID 0000.0001)                 2.130490056267208E+05,      /* I = 61 */
(PID.TID 0000.0001)                 1.937548202849060E+05,      /* I = 62 */
(PID.TID 0000.0001)                 1.691744868129062E+05,      /* I = 63 */
(PID.TID 0000.0001)                 1.333130744933864E+05,      /* I = 64 */
(PID.TID 0000.0001)                 8.015229982413632E+04,      /* I = 65 */
(PID.TID 0000.0001)                 1.333130744933864E+05,      /* I = 66 */
(PID.TID 0000.0001)                 1.691744868129062E+05,      /* I = 67 */
(PID.TID 0000.0001)                 1.937548202849060E+05,      /* I = 68 */
(PID.TID 0000.0001)                 2.130490056267208E+05,      /* I = 69 */
(PID.TID 0000.0001)                 2.290479919481738E+05,      /* I = 70 */
(PID.TID 0000.0001)                 2.426774358027003E+05,      /* I = 71 */
(PID.TID 0000.0001)                 2.544372984215561E+05,      /* I = 72 */
(PID.TID 0000.0001)                 2.646201463834826E+05,      /* I = 73 */
(PID.TID 0000.0001)                 2.734046499619031E+05,      /* I = 74 */
(PID.TID 0000.0001)                 2.809019351693761E+05,      /* I = 75 */
(PID.TID 0000.0001)                 2.871811105274442E+05,      /* I = 76 */
(PID.TID 0000.0001)                 2.922844849381675E+05,      /* I = 77 */
(PID.TID 0000.0001)                 2.962371870847826E+05,      /* I = 78 */
(PID.TID 0000.0001)                 2.990534755671296E+05,      /* I = 79 */
(PID.TID 0000.0001)                 3.007409169495504E+05,      /* I = 80 */
(PID.TID 0000.0001)                 3.013031486919771E+05,      /* I = 81 */
(PID.TID 0000.0001)                 3.007409169495504E+05,      /* I = 82 */
(PID.TID 0000.0001)                 2.990534755671296E+05,      /* I = 83 */
(PID.TID 0000.0001)                 2.962371870847826E+05,      /* I = 84 */
(PID.TID 0000.0001)                 2.922844849381675E+05,      /* I = 85 */
(PID.TID 0000.0001)                 2.871811105274442E+05,      /* I = 86 */
(PID.TID 0000.0001)                 2.809019351693761E+05,      /* I = 87 */
(PID.TID 0000.0001)                 2.734046499619031E+05,      /* I = 88 */
(PID.TID 0000.0001)                 2.646201463834826E+05,      /* I = 89 */
(PID.TID 0000.0001)                 2.544372984215561E+05,      /* I = 90 */
(PID.TID 0000.0001)                 2.426774358027003E+05,      /* I = 91 */
(PID.TID 0000.0001)                 2.290479919481738E+05,      /* I = 92 */
(PID.TID 0000.0001)                 2.130490056267208E+05,      /* I = 93 */
(PID.TID 0000.0001)                 1.937548202849060E+05,      /* I = 94 */
(PID.TID 0000.0001)                 1.691744868129062E+05,      /* I = 95 */
(PID.TID 0000.0001)                 1.333130744933864E+05,      /* I = 96 */
(PID.TID 0000.0001)                 8.015229982413632E+04,      /* I = 97 */
(PID.TID 0000.0001)                 1.333130744933864E+05,      /* I = 98 */
(PID.TID 0000.0001)                 1.691744868129062E+05,      /* I = 99 */
(PID.TID 0000.0001)                 1.937548202849060E+05,      /* I =100 */
(PID.TID 0000.0001)                 2.130490056267208E+05,      /* I =101 */
(PID.TID 0000.0001)                 2.290479919481738E+05,      /* I =102 */
(PID.TID 0000.0001)                 2.426774358027003E+05,      /* I =103 */
(PID.TID 0000.0001)                 2.544372984215561E+05,      /* I =104 */
(PID.TID 0000.0001)                 2.646201463834826E+05,      /* I =105 */
(PID.TID 0000.0001)                 2.734046499619031E+05,      /* I =106 */
(PID.TID 0000.0001)                 2.809019351693761E+05,      /* I =107 */
(PID.TID 0000.0001)                 2.871811105274442E+05,      /* I =108 */
(PID.TID 0000.0001)                 2.922844849381675E+05,      /* I =109 */
(PID.TID 0000.0001)                 2.962371870847826E+05,      /* I =110 */
(PID.TID 0000.0001)                 2.990534755671296E+05,      /* I =111 */
(PID.TID 0000.0001)                 3.007409169495504E+05,      /* I =112 */
(PID.TID 0000.0001)                 3.013031486919771E+05,      /* I =113 */
(PID.TID 0000.0001)                 3.007409169495504E+05,      /* I =114 */
(PID.TID 0000.0001)                 2.990534755671296E+05,      /* I =115 */
(PID.TID 0000.0001)                 2.962371870847826E+05,      /* I =116 */
(PID.TID 0000.0001)                 2.922844849381675E+05,      /* I =117 */
(PID.TID 0000.0001)                 2.871811105274442E+05,      /* I =118 */
(PID.TID 0000.0001)                 2.809019351693761E+05,      /* I =119 */
(PID.TID 0000.0001)                 2.734046499619031E+05,      /* I =120 */
(PID.TID 0000.0001)                 2.646201463834826E+05,      /* I =121 */
(PID.TID 0000.0001)                 2.544372984215561E+05,      /* I =122 */
(PID.TID 0000.0001)                 2.426774358027003E+05,      /* I =123 */
(PID.TID 0000.0001)                 2.290479919481738E+05,      /* I =124 */
(PID.TID 0000.0001)                 2.130490056267208E+05,      /* I =125 */
(PID.TID 0000.0001)                 1.937548202849060E+05,      /* I =126 */
(PID.TID 0000.0001)                 1.691744868129062E+05,      /* I =127 */
(PID.TID 0000.0001)                 1.333130744933864E+05,      /* I =128 */
(PID.TID 0000.0001)                 8.015229982413632E+04,      /* I =129 */
(PID.TID 0000.0001)                 1.333130744933864E+05,      /* I =130 */
(PID.TID 0000.0001)                 1.691744868129062E+05,      /* I =131 */
(PID.TID 0000.0001)                 1.937548202849060E+05,      /* I =132 */
(PID.TID 0000.0001)                 2.130490056267208E+05,      /* I =133 */
(PID.TID 0000.0001)                 2.290479919481738E+05,      /* I =134 */
(PID.TID 0000.0001)                 2.426774358027003E+05,      /* I =135 */
(PID.TID 0000.0001)                 2.544372984215561E+05,      /* I =136 */
(PID.TID 0000.0001)                 2.646201463834826E+05,      /* I =137 */
(PID.TID 0000.0001)                 2.734046499619031E+05,      /* I =138 */
(PID.TID 0000.0001)                 2.809019351693761E+05,      /* I =139 */
(PID.TID 0000.0001)                 2.871811105274442E+05,      /* I =140 */
(PID.TID 0000.0001)                 2.922844849381675E+05,      /* I =141 */
(PID.TID 0000.0001)                 2.962371870847826E+05,      /* I =142 */
(PID.TID 0000.0001)                 2.990534755671296E+05,      /* I =143 */
(PID.TID 0000.0001)                 3.007409169495504E+05,      /* I =144 */
(PID.TID 0000.0001)                 3.013031486919771E+05,      /* I =145 */
(PID.TID 0000.0001)                 3.007409169495504E+05,      /* I =146 */
(PID.TID 0000.0001)                 2.990534755671296E+05,      /* I =147 */
(PID.TID 0000.0001)                 2.962371870847826E+05,      /* I =148 */
(PID.TID 0000.0001)                 2.922844849381675E+05,      /* I =149 */
(PID.TID 0000.0001)                 2.871811105274442E+05,      /* I =150 */
(PID.TID 0000.0001)                 2.809019351693761E+05,      /* I =151 */
(PID.TID 0000.0001)                 2.734046499619031E+05,      /* I =152 */
(PID.TID 0000.0001)                 2.646201463834826E+05,      /* I =153 */
(PID.TID 0000.0001)                 2.544372984215561E+05,      /* I =154 */
(PID.TID 0000.0001)                 2.426774358027003E+05,      /* I =155 */
(PID.TID 0000.0001)                 2.290479919481738E+05,      /* I =156 */
(PID.TID 0000.0001)                 2.130490056267208E+05,      /* I =157 */
(PID.TID 0000.0001)                 1.937548202849060E+05,      /* I =158 */
(PID.TID 0000.0001)                 1.691744868129062E+05,      /* I =159 */
(PID.TID 0000.0001)                 1.333130744933864E+05,      /* I =160 */
(PID.TID 0000.0001)                 8.015229982413632E+04,      /* I =161 */
(PID.TID 0000.0001)                 1.333130744933864E+05,      /* I =162 */
(PID.TID 0000.0001)                 1.691744868129062E+05,      /* I =163 */
(PID.TID 0000.0001)                 1.937548202849060E+05,      /* I =164 */
(PID.TID 0000.0001)                 2.130490056267208E+05,      /* I =165 */
(PID.TID 0000.0001)                 2.290479919481738E+05,      /* I =166 */
(PID.TID 0000.0001)                 2.426774358027003E+05,      /* I =167 */
(PID.TID 0000.0001)                 2.544372984215561E+05,      /* I =168 */
(PID.TID 0000.0001)                 2.646201463834826E+05,      /* I =169 */
(PID.TID 0000.0001)                 2.734046499619031E+05,      /* I =170 */
(PID.TID 0000.0001)                 2.809019351693761E+05,      /* I =171 */
(PID.TID 0000.0001)                 2.871811105274442E+05,      /* I =172 */
(PID.TID 0000.0001)                 2.922844849381675E+05,      /* I =173 */
(PID.TID 0000.0001)                 2.962371870847826E+05,      /* I =174 */
(PID.TID 0000.0001)                 2.990534755671296E+05,      /* I =175 */
(PID.TID 0000.0001)                 3.007409169495504E+05,      /* I =176 */
(PID.TID 0000.0001)                 3.013031486919771E+05,      /* I =177 */
(PID.TID 0000.0001)                 3.007409169495504E+05,      /* I =178 */
(PID.TID 0000.0001)                 2.990534755671296E+05,      /* I =179 */
(PID.TID 0000.0001)                 2.962371870847826E+05,      /* I =180 */
(PID.TID 0000.0001)                 2.922844849381675E+05,      /* I =181 */
(PID.TID 0000.0001)                 2.871811105274442E+05,      /* I =182 */
(PID.TID 0000.0001)                 2.809019351693761E+05,      /* I =183 */
(PID.TID 0000.0001)                 2.734046499619031E+05,      /* I =184 */
(PID.TID 0000.0001)                 2.646201463834826E+05,      /* I =185 */
(PID.TID 0000.0001)                 2.544372984215561E+05,      /* I =186 */
(PID.TID 0000.0001)                 2.426774358027003E+05,      /* I =187 */
(PID.TID 0000.0001)                 2.290479919481738E+05,      /* I =188 */
(PID.TID 0000.0001)                 2.130490056267208E+05,      /* I =189 */
(PID.TID 0000.0001)                 1.937548202849060E+05,      /* I =190 */
(PID.TID 0000.0001)                 1.691744868129062E+05,      /* I =191 */
(PID.TID 0000.0001)                 1.333130744933864E+05       /* I =192 */
(PID.TID 0000.0001)     ;
(PID.TID 0000.0001) dxV =  /* dxV(1,:,1,:) ( units: m ) */
(PID.TID 0000.0001)                 8.015229982413632E+04,      /* J =  1 */
(PID.TID 0000.0001)                 1.362652340208229E+05,      /* J =  2 */
(PID.TID 0000.0001)                 1.701080315742101E+05,      /* J =  3 */
(PID.TID 0000.0001)                 1.942331448101592E+05,      /* J =  4 */
(PID.TID 0000.0001)                 2.133486626971531E+05,      /* J =  5 */
(PID.TID 0000.0001)                 2.292584591272880E+05,      /* J =  6 */
(PID.TID 0000.0001)                 2.428369969078989E+05,      /* J =  7 */
(PID.TID 0000.0001)                 2.545652950875683E+05,      /* J =  8 */
(PID.TID 0000.0001)                 2.647274964828301E+05,      /* J =  9 */
(PID.TID 0000.0001)                 2.734980225206389E+05,      /* J = 10 */
(PID.TID 0000.0001)                 2.809856491525217E+05,      /* J = 11 */
(PID.TID 0000.0001)                 2.872580915202295E+05,      /* J = 12 */
(PID.TID 0000.0001)                 2.923567890694162E+05,      /* J = 13 */
(PID.TID 0000.0001)                 2.963063101754721E+05,      /* J = 14 */
(PID.TID 0000.0001)                 2.991205495886625E+05,      /* J = 15 */
(PID.TID 0000.0001)                 3.008068453676764E+05,      /* J = 16 */
(PID.TID 0000.0001)                 3.013686170436881E+05,      /* J = 17 */
(PID.TID 0000.0001)                 3.008068453676764E+05,      /* J = 18 */
(PID.TID 0000.0001)                 2.991205495886625E+05,      /* J = 19 */
(PID.TID 0000.0001)                 2.963063101754721E+05,      /* J = 20 */
(PID.TID 0000.0001)                 2.923567890694162E+05,      /* J = 21 */
(PID.TID 0000.0001)                 2.872580915202295E+05,      /* J = 22 */
(PID.TID 0000.0001)                 2.809856491525217E+05,      /* J = 23 */
(PID.TID 0000.0001)                 2.734980225206389E+05,      /* J = 24 */
(PID.TID 0000.0001)                 2.647274964828301E+05,      /* J = 25 */
(PID.TID 0000.0001)                 2.545652950875683E+05,      /* J = 26 */
(PID.TID 0000.0001)                 2.428369969078989E+05,      /* J = 27 */
(PID.TID 0000.0001)                 2.292584591272880E+05,      /* J = 28 */
(PID.TID 0000.0001)                 2.133486626971531E+05,      /* J = 29 */
(PID.TID 0000.0001)                 1.942331448101592E+05,      /* J = 30 */
(PID.TID 0000.0001)                 1.701080315742101E+05,      /* J = 31 */
(PID.TID 0000.0001)                 1.362652340208229E+05       /* J = 32 */
(PID.TID 0000.0001)     ;
(PID.TID 0000.0001) dyU =  /* dyU(:,1,:,1) ( units: m ) */
(PID.TID 0000.0001)                 8.015229982413632E+04,      /* I =  1 */
(PID.TID 0000.0001)                 1.362652340208229E+05,      /* I =  2 */
(PID.TID 0000.0001)                 1.701080315742101E+05,      /* I =  3 */
(PID.TID 0000.0001)                 1.942331448101592E+05,      /* I =  4 */
(PID.TID 0000.0001)                 2.133486626971531E+05,      /* I =  5 */
(PID.TID 0000.0001)                 2.292584591272880E+05,      /* I =  6 */
(PID.TID 0000.0001)                 2.428369969078989E+05,      /* I =  7 */
(PID.TID 0000.0001)                 2.545652950875683E+05,      /* I =  8 */
(PID.TID 0000.0001)                 2.647274964828301E+05,      /* I =  9 */
(PID.TID 0000.0001)                 2.734980225206389E+05,      /* I = 10 */
(PID.TID 0000.0001)                 2.809856491525217E+05,      /* I = 11 */
(PID.TID 0000.0001)                 2.872580915202295E+05,      /* I = 12 */
(PID.TID 0000.0001)                 2.923567890694162E+05,      /* I = 13 */
(PID.TID 0000.0001)                 2.963063101754721E+05,      /* I = 14 */
(PID.TID 0000.0001)                 2.991205495886625E+05,      /* I = 15 */
(PID.TID 0000.0001)                 3.008068453676764E+05,      /* I = 16 */
(PID.TID 0000.0001)                 3.013686170436881E+05,      /* I = 17 */
(PID.TID 0000.0001)                 3.008068453676764E+05,      /* I = 18 */
(PID.TID 0000.0001)                 2.991205495886625E+05,      /* I = 19 */
(PID.TID 0000.0001)                 2.963063101754721E+05,      /* I = 20 */
(PID.TID 0000.0001)                 2.923567890694162E+05,      /* I = 21 */
(PID.TID 0000.0001)                 2.872580915202295E+05,      /* I = 22 */
(PID.TID 0000.0001)                 2.809856491525217E+05,      /* I = 23 */
(PID.TID 0000.0001)                 2.734980225206389E+05,      /* I = 24 */
(PID.TID 0000.0001)                 2.647274964828301E+05,      /* I = 25 */
(PID.TID 0000.0001)                 2.545652950875683E+05,      /* I = 26 */
(PID.TID 0000.0001)                 2.428369969078989E+05,      /* I = 27 */
(PID.TID 0000.0001)                 2.292584591272880E+05,      /* I = 28 */
(PID.TID 0000.0001)                 2.133486626971531E+05,      /* I = 29 */
(PID.TID 0000.0001)                 1.942331448101592E+05,      /* I = 30 */
(PID.TID 0000.0001)                 1.701080315742101E+05,      /* I = 31 */
(PID.TID 0000.0001)                 1.362652340208229E+05,      /* I = 32 */
(PID.TID 0000.0001)                 8.015229982413632E+04,      /* I = 33 */
(PID.TID 0000.0001)                 1.362652340208229E+05,      /* I = 34 */
(PID.TID 0000.0001)                 1.701080315742101E+05,      /* I = 35 */
(PID.TID 0000.0001)                 1.942331448101592E+05,      /* I = 36 */
(PID.TID 0000.0001)                 2.133486626971531E+05,      /* I = 37 */
(PID.TID 0000.0001)                 2.292584591272880E+05,      /* I = 38 */
(PID.TID 0000.0001)                 2.428369969078989E+05,      /* I = 39 */
(PID.TID 0000.0001)                 2.545652950875683E+05,      /* I = 40 */
(PID.TID 0000.0001)                 2.647274964828301E+05,      /* I = 41 */
(PID.TID 0000.0001)                 2.734980225206389E+05,      /* I = 42 */
(PID.TID 0000.0001)                 2.809856491525217E+05,      /* I = 43 */
(PID.TID 0000.0001)                 2.872580915202295E+05,      /* I = 44 */
(PID.TID 0000.0001)                 2.923567890694162E+05,      /* I = 45 */
(PID.TID 0000.0001)                 2.963063101754721E+05,      /* I = 46 */
(PID.TID 0000.0001)                 2.991205495886625E+05,      /* I = 47 */
(PID.TID 0000.0001)                 3.008068453676764E+05,      /* I = 48 */
(PID.TID 0000.0001)                 3.013686170436881E+05,      /* I = 49 */
(PID.TID 0000.0001)                 3.008068453676764E+05,      /* I = 50 */
(PID.TID 0000.0001)                 2.991205495886625E+05,      /* I = 51 */
(PID.TID 0000.0001)                 2.963063101754721E+05,      /* I = 52 */
(PID.TID 0000.0001)                 2.923567890694162E+05,      /* I = 53 */
(PID.TID 0000.0001)                 2.872580915202295E+05,      /* I = 54 */
(PID.TID 0000.0001)                 2.809856491525217E+05,      /* I = 55 */
(PID.TID 0000.0001)                 2.734980225206389E+05,      /* I = 56 */
(PID.TID 0000.0001)                 2.647274964828301E+05,      /* I = 57 */
(PID.TID 0000.0001)                 2.545652950875683E+05,      /* I = 58 */
(PID.TID 0000.0001)                 2.428369969078989E+05,      /* I = 59 */
(PID.TID 0000.0001)                 2.292584591272880E+05,      /* I = 60 */
(PID.TID 0000.0001)                 2.133486626971531E+05,      /* I = 61 */
(PID.TID 0000.0001)                 1.942331448101592E+05,      /* I = 62 */
(PID.TID 0000.0001)                 1.701080315742101E+05,      /* I = 63 */
(PID.TID 0000.0001)                 1.362652340208229E+05,      /* I = 64 */
(PID.TID 0000.0001)                 8.015229982413632E+04,      /* I = 65 */
(PID.TID 0000.0001)                 1.362652340208229E+05,      /* I = 66 */
(PID.TID 0000.0001)                 1.701080315742101E+05,      /* I = 67 */
(PID.TID 0000.0001)                 1.942331448101592E+05,      /* I = 68 */
(PID.TID 0000.0001)                 2.133486626971531E+05,      /* I = 69 */
(PID.TID 0000.0001)                 2.292584591272880E+05,      /* I = 70 */
(PID.TID 0000.0001)                 2.428369969078989E+05,      /* I = 71 */
(PID.TID 0000.0001)                 2.545652950875683E+05,      /* I = 72 */
(PID.TID 0000.0001)                 2.647274964828301E+05,      /* I = 73 */
(PID.TID 0000.0001)                 2.734980225206389E+05,      /* I = 74 */
(PID.TID 0000.0001)                 2.809856491525217E+05,      /* I = 75 */
(PID.TID 0000.0001)                 2.872580915202295E+05,      /* I = 76 */
(PID.TID 0000.0001)                 2.923567890694162E+05,      /* I = 77 */
(PID.TID 0000.0001)                 2.963063101754721E+05,      /* I = 78 */
(PID.TID 0000.0001)                 2.991205495886625E+05,      /* I = 79 */
(PID.TID 0000.0001)                 3.008068453676764E+05,      /* I = 80 */
(PID.TID 0000.0001)                 3.013686170436881E+05,      /* I = 81 */
(PID.TID 0000.0001)                 3.008068453676764E+05,      /* I = 82 */
(PID.TID 0000.0001)                 2.991205495886625E+05,      /* I = 83 */
(PID.TID 0000.0001)                 2.963063101754721E+05,      /* I = 84 */
(PID.TID 0000.0001)                 2.923567890694162E+05,      /* I = 85 */
(PID.TID 0000.0001)                 2.872580915202295E+05,      /* I = 86 */
(PID.TID 0000.0001)                 2.809856491525217E+05,      /* I = 87 */
(PID.TID 0000.0001)                 2.734980225206389E+05,      /* I = 88 */
(PID.TID 0000.0001)                 2.647274964828301E+05,      /* I = 89 */
(PID.TID 0000.0001)                 2.545652950875683E+05,      /* I = 90 */
(PID.TID 0000.0001)                 2.428369969078989E+05,      /* I = 91 */
(PID.TID 0000.0001)                 2.292584591272880E+05,      /* I = 92 */
(PID.TID 0000.0001)                 2.133486626971531E+05,      /* I = 93 */
(PID.TID 0000.0001)                 1.942331448101592E+05,      /* I = 94 */
(PID.TID 0000.0001)                 1.701080315742101E+05,      /* I = 95 */
(PID.TID 0000.0001)                 1.362652340208229E+05,      /* I = 96 */
(PID.TID 0000.0001)                 8.015229982413632E+04,      /* I = 97 */
(PID.TID 0000.0001)                 1.362652340208229E+05,      /* I = 98 */
(PID.TID 0000.0001)                 1.701080315742101E+05,      /* I = 99 */
(PID.TID 0000.0001)                 1.942331448101592E+05,      /* I =100 */
(PID.TID 0000.0001)                 2.133486626971531E+05,      /* I =101 */
(PID.TID 0000.0001)                 2.292584591272880E+05,      /* I =102 */
(PID.TID 0000.0001)                 2.428369969078989E+05,      /* I =103 */
(PID.TID 0000.0001)                 2.545652950875683E+05,      /* I =104 */
(PID.TID 0000.0001)                 2.647274964828301E+05,      /* I =105 */
(PID.TID 0000.0001)                 2.734980225206389E+05,      /* I =106 */
(PID.TID 0000.0001)                 2.809856491525217E+05,      /* I =107 */
(PID.TID 0000.0001)                 2.872580915202295E+05,      /* I =108 */
(PID.TID 0000.0001)                 2.923567890694162E+05,      /* I =109 */
(PID.TID 0000.0001)                 2.963063101754721E+05,      /* I =110 */
(PID.TID 0000.0001)                 2.991205495886625E+05,      /* I =111 */
(PID.TID 0000.0001)                 3.008068453676764E+05,      /* I =112 */
(PID.TID 0000.0001)                 3.013686170436881E+05,      /* I =113 */
(PID.TID 0000.0001)                 3.008068453676764E+05,      /* I =114 */
(PID.TID 0000.0001)                 2.991205495886625E+05,      /* I =115 */
(PID.TID 0000.0001)                 2.963063101754721E+05,      /* I =116 */
(PID.TID 0000.0001)                 2.923567890694162E+05,      /* I =117 */
(PID.TID 0000.0001)                 2.872580915202295E+05,      /* I =118 */
(PID.TID 0000.0001)                 2.809856491525217E+05,      /* I =119 */
(PID.TID 0000.0001)                 2.734980225206389E+05,      /* I =120 */
(PID.TID 0000.0001)                 2.647274964828301E+05,      /* I =121 */
(PID.TID 0000.0001)                 2.545652950875683E+05,      /* I =122 */
(PID.TID 0000.0001)                 2.428369969078989E+05,      /* I =123 */
(PID.TID 0000.0001)                 2.292584591272880E+05,      /* I =124 */
(PID.TID 0000.0001)                 2.133486626971531E+05,      /* I =125 */
(PID.TID 0000.0001)                 1.942331448101592E+05,      /* I =126 */
(PID.TID 0000.0001)                 1.701080315742101E+05,      /* I =127 */
(PID.TID 0000.0001)                 1.362652340208229E+05,      /* I =128 */
(PID.TID 0000.0001)                 8.015229982413632E+04,      /* I =129 */
(PID.TID 0000.0001)                 1.362652340208229E+05,      /* I =130 */
(PID.TID 0000.0001)                 1.701080315742101E+05,      /* I =131 */
(PID.TID 0000.0001)                 1.942331448101592E+05,      /* I =132 */
(PID.TID 0000.0001)                 2.133486626971531E+05,      /* I =133 */
(PID.TID 0000.0001)                 2.292584591272880E+05,      /* I =134 */
(PID.TID 0000.0001)                 2.428369969078989E+05,      /* I =135 */
(PID.TID 0000.0001)                 2.545652950875683E+05,      /* I =136 */
(PID.TID 0000.0001)                 2.647274964828301E+05,      /* I =137 */
(PID.TID 0000.0001)                 2.734980225206389E+05,      /* I =138 */
(PID.TID 0000.0001)                 2.809856491525217E+05,      /* I =139 */
(PID.TID 0000.0001)                 2.872580915202295E+05,      /* I =140 */
(PID.TID 0000.0001)                 2.923567890694162E+05,      /* I =141 */
(PID.TID 0000.0001)                 2.963063101754721E+05,      /* I =142 */
(PID.TID 0000.0001)                 2.991205495886625E+05,      /* I =143 */
(PID.TID 0000.0001)                 3.008068453676764E+05,      /* I =144 */
(PID.TID 0000.0001)                 3.013686170436881E+05,      /* I =145 */
(PID.TID 0000.0001)                 3.008068453676764E+05,      /* I =146 */
(PID.TID 0000.0001)                 2.991205495886625E+05,      /* I =147 */
(PID.TID 0000.0001)                 2.963063101754721E+05,      /* I =148 */
(PID.TID 0000.0001)                 2.923567890694162E+05,      /* I =149 */
(PID.TID 0000.0001)                 2.872580915202295E+05,      /* I =150 */
(PID.TID 0000.0001)                 2.809856491525217E+05,      /* I =151 */
(PID.TID 0000.0001)                 2.734980225206389E+05,      /* I =152 */
(PID.TID 0000.0001)                 2.647274964828301E+05,      /* I =153 */
(PID.TID 0000.0001)                 2.545652950875683E+05,      /* I =154 */
(PID.TID 0000.0001)                 2.428369969078989E+05,      /* I =155 */
(PID.TID 0000.0001)                 2.292584591272880E+05,      /* I =156 */
(PID.TID 0000.0001)                 2.133486626971531E+05,      /* I =157 */
(PID.TID 0000.0001)                 1.942331448101592E+05,      /* I =158 */
(PID.TID 0000.0001)                 1.701080315742101E+05,      /* I =159 */
(PID.TID 0000.0001)                 1.362652340208229E+05,      /* I =160 */
(PID.TID 0000.0001)                 8.015229982413632E+04,      /* I =161 */
(PID.TID 0000.0001)                 1.362652340208229E+05,      /* I =162 */
(PID.TID 0000.0001)                 1.701080315742101E+05,      /* I =163 */
(PID.TID 0000.0001)                 1.942331448101592E+05,      /* I =164 */
(PID.TID 0000.0001)                 2.133486626971531E+05,      /* I =165 */
(PID.TID 0000.0001)                 2.292584591272880E+05,      /* I =166 */
(PID.TID 0000.0001)                 2.428369969078989E+05,      /* I =167 */
(PID.TID 0000.0001)                 2.545652950875683E+05,      /* I =168 */
(PID.TID 0000.0001)                 2.647274964828301E+05,      /* I =169 */
(PID.TID 0000.0001)                 2.734980225206389E+05,      /* I =170 */
(PID.TID 0000.0001)                 2.809856491525217E+05,      /* I =171 */
(PID.TID 0000.0001)                 2.872580915202295E+05,      /* I =172 */
(PID.TID 0000.0001)                 2.923567890694162E+05,      /* I =173 */
(PID.TID 0000.0001)                 2.963063101754721E+05,      /* I =174 */
(PID.TID 0000.0001)                 2.991205495886625E+05,      /* I =175 */
(PID.TID 0000.0001)                 3.008068453676764E+05,      /* I =176 */
(PID.TID 0000.0001)                 3.013686170436881E+05,      /* I =177 */
(PID.TID 0000.0001)                 3.008068453676764E+05,      /* I =178 */
(PID.TID 0000.0001)                 2.991205495886625E+05,      /* I =179 */
(PID.TID 0000.0001)                 2.963063101754721E+05,      /* I =180 */
(PID.TID 0000.0001)                 2.923567890694162E+05,      /* I =181 */
(PID.TID 0000.0001)                 2.872580915202295E+05,      /* I =182 */
(PID.TID 0000.0001)                 2.809856491525217E+05,      /* I =183 */
(PID.TID 0000.0001)                 2.734980225206389E+05,      /* I =184 */
(PID.TID 0000.0001)                 2.647274964828301E+05,      /* I =185 */
(PID.TID 0000.0001)                 2.545652950875683E+05,      /* I =186 */
(PID.TID 0000.0001)                 2.428369969078989E+05,      /* I =187 */
(PID.TID 0000.0001)                 2.292584591272880E+05,      /* I =188 */
(PID.TID 0000.0001)                 2.133486626971531E+05,      /* I =189 */
(PID.TID 0000.0001)                 1.942331448101592E+05,      /* I =190 */
(PID.TID 0000.0001)                 1.701080315742101E+05,      /* I =191 */
(PID.TID 0000.0001)                 1.362652340208229E+05       /* I =192 */
(PID.TID 0000.0001)     ;
(PID.TID 0000.0001) dyU =  /* dyU(1,:,1,:) ( units: m ) */
(PID.TID 0000.0001)                 8.015229982413632E+04,      /* J =  1 */
(PID.TID 0000.0001)                 1.333130744933864E+05,      /* J =  2 */
(PID.TID 0000.0001)                 1.691744868129062E+05,      /* J =  3 */
(PID.TID 0000.0001)                 1.937548202849060E+05,      /* J =  4 */
(PID.TID 0000.0001)                 2.130490056267208E+05,      /* J =  5 */
(PID.TID 0000.0001)                 2.290479919481738E+05,      /* J =  6 */
(PID.TID 0000.0001)                 2.426774358027003E+05,      /* J =  7 */
(PID.TID 0000.0001)                 2.544372984215561E+05,      /* J =  8 */
(PID.TID 0000.0001)                 2.646201463834826E+05,      /* J =  9 */
(PID.TID 0000.0001)                 2.734046499619031E+05,      /* J = 10 */
(PID.TID 0000.0001)                 2.809019351693761E+05,      /* J = 11 */
(PID.TID 0000.0001)                 2.871811105274442E+05,      /* J = 12 */
(PID.TID 0000.0001)                 2.922844849381675E+05,      /* J = 13 */
(PID.TID 0000.0001)                 2.962371870847826E+05,      /* J = 14 */
(PID.TID 0000.0001)                 2.990534755671296E+05,      /* J = 15 */
(PID.TID 0000.0001)                 3.007409169495504E+05,      /* J = 16 */
(PID.TID 0000.0001)                 3.013031486919771E+05,      /* J = 17 */
(PID.TID 0000.0001)                 3.007409169495504E+05,      /* J = 18 */
(PID.TID 0000.0001)                 2.990534755671296E+05,      /* J = 19 */
(PID.TID 0000.0001)                 2.962371870847826E+05,      /* J = 20 */
(PID.TID 0000.0001)                 2.922844849381675E+05,      /* J = 21 */
(PID.TID 0000.0001)                 2.871811105274442E+05,      /* J = 22 */
(PID.TID 0000.0001)                 2.809019351693761E+05,      /* J = 23 */
(PID.TID 0000.0001)                 2.734046499619031E+05,      /* J = 24 */
(PID.TID 0000.0001)                 2.646201463834826E+05,      /* J = 25 */
(PID.TID 0000.0001)                 2.544372984215561E+05,      /* J = 26 */
(PID.TID 0000.0001)                 2.426774358027003E+05,      /* J = 27 */
(PID.TID 0000.0001)                 2.290479919481738E+05,      /* J = 28 */
(PID.TID 0000.0001)                 2.130490056267208E+05,      /* J = 29 */
(PID.TID 0000.0001)                 1.937548202849060E+05,      /* J = 30 */
(PID.TID 0000.0001)                 1.691744868129062E+05,      /* J = 31 */
(PID.TID 0000.0001)                 1.333130744933864E+05       /* J = 32 */
(PID.TID 0000.0001)     ;
(PID.TID 0000.0001) rA  =  /* rA (:,1,:,1) ( units: m^2 ) */
(PID.TID 0000.0001)                 1.401900702255611E+10,      /* I =  1 */
(PID.TID 0000.0001)                 2.459906945574446E+10,      /* I =  2 */
(PID.TID 0000.0001)                 3.378518544307869E+10,      /* I =  3 */
(PID.TID 0000.0001)                 4.192037169898667E+10,      /* I =  4 */
(PID.TID 0000.0001)                 4.925938996118163E+10,      /* I =  5 */
(PID.TID 0000.0001)                 5.594154126607553E+10,      /* I =  6 */
(PID.TID 0000.0001)                 6.203683527772523E+10,      /* I =  7 */
(PID.TID 0000.0001)                 6.757541173817516E+10,      /* I =  8 */
(PID.TID 0000.0001)                 7.256353271748119E+10,      /* I =  9 */
(PID.TID 0000.0001)                 7.699293007098555E+10,      /* I = 10 */
(PID.TID 0000.0001)                 8.084683449728902E+10,      /* I = 11 */
(PID.TID 0000.0001)                 8.410423102796223E+10,      /* I = 12 */
(PID.TID 0000.0001)                 8.674306976737517E+10,      /* I = 13 */
(PID.TID 0000.0001)                 8.874277443041928E+10,      /* I = 14 */
(PID.TID 0000.0001)                 9.008620045350865E+10,      /* I = 15 */
(PID.TID 0000.0001)                 9.076111290418457E+10,      /* I = 16 */
(PID.TID 0000.0001)                 9.076111290422060E+10,      /* I = 17 */
(PID.TID 0000.0001)                 9.008620045354469E+10,      /* I = 18 */
(PID.TID 0000.0001)                 8.874277443041928E+10,      /* I = 19 */
(PID.TID 0000.0001)                 8.674306976741121E+10,      /* I = 20 */
(PID.TID 0000.0001)                 8.410423102799828E+10,      /* I = 21 */
(PID.TID 0000.0001)                 8.084683449728902E+10,      /* I = 22 */
(PID.TID 0000.0001)                 7.699293007098555E+10,      /* I = 23 */
(PID.TID 0000.0001)                 7.256353271748119E+10,      /* I = 24 */
(PID.TID 0000.0001)                 6.757541173817516E+10,      /* I = 25 */
(PID.TID 0000.0001)                 6.203683527772523E+10,      /* I = 26 */
(PID.TID 0000.0001)                 5.594154126611156E+10,      /* I = 27 */
(PID.TID 0000.0001)                 4.925938996118163E+10,      /* I = 28 */
(PID.TID 0000.0001)                 4.192037169898667E+10,      /* I = 29 */
(PID.TID 0000.0001)                 3.378518544304265E+10,      /* I = 30 */
(PID.TID 0000.0001)                 2.459906945574446E+10,      /* I = 31 */
(PID.TID 0000.0001)                 1.401900702259215E+10,      /* I = 32 */
(PID.TID 0000.0001)                 1.401900702255611E+10,      /* I = 33 */
(PID.TID 0000.0001)                 2.459906945574446E+10,      /* I = 34 */
(PID.TID 0000.0001)                 3.378518544307869E+10,      /* I = 35 */
(PID.TID 0000.0001)                 4.192037169898667E+10,      /* I = 36 */
(PID.TID 0000.0001)                 4.925938996118163E+10,      /* I = 37 */
(PID.TID 0000.0001)                 5.594154126607553E+10,      /* I = 38 */
(PID.TID 0000.0001)                 6.203683527772523E+10,      /* I = 39 */
(PID.TID 0000.0001)                 6.757541173817516E+10,      /* I = 40 */
(PID.TID 0000.0001)                 7.256353271748119E+10,      /* I = 41 */
(PID.TID 0000.0001)                 7.699293007098555E+10,      /* I = 42 */
(PID.TID 0000.0001)                 8.084683449728902E+10,      /* I = 43 */
(PID.TID 0000.0001)                 8.410423102796223E+10,      /* I = 44 */
(PID.TID 0000.0001)                 8.674306976737517E+10,      /* I = 45 */
(PID.TID 0000.0001)                 8.874277443041928E+10,      /* I = 46 */
(PID.TID 0000.0001)                 9.008620045350865E+10,      /* I = 47 */
(PID.TID 0000.0001)                 9.076111290418457E+10,      /* I = 48 */
(PID.TID 0000.0001)                 9.076111290422060E+10,      /* I = 49 */
(PID.TID 0000.0001)                 9.008620045354469E+10,      /* I = 50 */
(PID.TID 0000.0001)                 8.874277443041928E+10,      /* I = 51 */
(PID.TID 0000.0001)                 8.674306976741121E+10,      /* I = 52 */
(PID.TID 0000.0001)                 8.410423102799828E+10,      /* I = 53 */
(PID.TID 0000.0001)                 8.084683449728902E+10,      /* I = 54 */
(PID.TID 0000.0001)                 7.699293007098555E+10,      /* I = 55 */
(PID.TID 0000.0001)                 7.256353271748119E+10,      /* I = 56 */
(PID.TID 0000.0001)                 6.757541173817516E+10,      /* I = 57 */
(PID.TID 0000.0001)                 6.203683527772523E+10,      /* I = 58 */
(PID.TID 0000.0001)                 5.594154126611156E+10,      /* I = 59 */
(PID.TID 0000.0001)                 4.925938996118163E+10,      /* I = 60 */
(PID.TID 0000.0001)                 4.192037169898667E+10,      /* I = 61 */
(PID.TID 0000.0001)                 3.378518544304265E+10,      /* I = 62 */
(PID.TID 0000.0001)                 2.459906945574446E+10,      /* I = 63 */
(PID.TID 0000.0001)                 1.401900702259215E+10,      /* I = 64 */
(PID.TID 0000.0001)                 1.401900702255611E+10,      /* I = 65 */
(PID.TID 0000.0001)                 2.459906945574446E+10,      /* I = 66 */
(PID.TID 0000.0001)                 3.378518544307869E+10,      /* I = 67 */
(PID.TID 0000.0001)                 4.192037169898667E+10,      /* I = 68 */
(PID.TID 0000.0001)                 4.925938996118163E+10,      /* I = 69 */
(PID.TID 0000.0001)                 5.594154126607553E+10,      /* I = 70 */
(PID.TID 0000.0001)                 6.203683527772523E+10,      /* I = 71 */
(PID.TID 0000.0001)                 6.757541173817516E+10,      /* I = 72 */
(PID.TID 0000.0001)                 7.256353271748119E+10,      /* I = 73 */
(PID.TID 0000.0001)                 7.699293007098555E+10,      /* I = 74 */
(PID.TID 0000.0001)                 8.084683449728902E+10,      /* I = 75 */
(PID.TID 0000.0001)                 8.410423102796223E+10,      /* I = 76 */
(PID.TID 0000.0001)                 8.674306976737517E+10,      /* I = 77 */
(PID.TID 0000.0001)                 8.874277443041928E+10,      /* I = 78 */
(PID.TID 0000.0001)                 9.008620045350865E+10,      /* I = 79 */
(PID.TID 0000.0001)                 9.076111290418457E+10,      /* I = 80 */
(PID.TID 0000.0001)                 9.076111290422060E+10,      /* I = 81 */
(PID.TID 0000.0001)                 9.008620045354469E+10,      /* I = 82 */
(PID.TID 0000.0001)                 8.874277443041928E+10,      /* I = 83 */
(PID.TID 0000.0001)                 8.674306976741121E+10,      /* I = 84 */
(PID.TID 0000.0001)                 8.410423102799828E+10,      /* I = 85 */
(PID.TID 0000.0001)                 8.084683449728902E+10,      /* I = 86 */
(PID.TID 0000.0001)                 7.699293007098555E+10,      /* I = 87 */
(PID.TID 0000.0001)                 7.256353271748119E+10,      /* I = 88 */
(PID.TID 0000.0001)                 6.757541173817516E+10,      /* I = 89 */
(PID.TID 0000.0001)                 6.203683527772523E+10,      /* I = 90 */
(PID.TID 0000.0001)                 5.594154126611156E+10,      /* I = 91 */
(PID.TID 0000.0001)                 4.925938996118163E+10,      /* I = 92 */
(PID.TID 0000.0001)                 4.192037169898667E+10,      /* I = 93 */
(PID.TID 0000.0001)                 3.378518544304265E+10,      /* I = 94 */
(PID.TID 0000.0001)                 2.459906945574446E+10,      /* I = 95 */
(PID.TID 0000.0001)                 1.401900702259215E+10,      /* I = 96 */
(PID.TID 0000.0001)                 1.401900702255611E+10,      /* I = 97 */
(PID.TID 0000.0001)                 2.459906945574446E+10,      /* I = 98 */
(PID.TID 0000.0001)                 3.378518544307869E+10,      /* I = 99 */
(PID.TID 0000.0001)                 4.192037169898667E+10,      /* I =100 */
(PID.TID 0000.0001)                 4.925938996118163E+10,      /* I =101 */
(PID.TID 0000.0001)                 5.594154126607553E+10,      /* I =102 */
(PID.TID 0000.0001)                 6.203683527772523E+10,      /* I =103 */
(PID.TID 0000.0001)                 6.757541173817516E+10,      /* I =104 */
(PID.TID 0000.0001)                 7.256353271748119E+10,      /* I =105 */
(PID.TID 0000.0001)                 7.699293007098555E+10,      /* I =106 */
(PID.TID 0000.0001)                 8.084683449728902E+10,      /* I =107 */
(PID.TID 0000.0001)                 8.410423102796223E+10,      /* I =108 */
(PID.TID 0000.0001)                 8.674306976737517E+10,      /* I =109 */
(PID.TID 0000.0001)                 8.874277443041928E+10,      /* I =110 */
(PID.TID 0000.0001)                 9.008620045350865E+10,      /* I =111 */
(PID.TID 0000.0001)                 9.076111290418457E+10,      /* I =112 */
(PID.TID 0000.0001)                 9.076111290422060E+10,      /* I =113 */
(PID.TID 0000.0001)                 9.008620045354469E+10,      /* I =114 */
(PID.TID 0000.0001)                 8.874277443041928E+10,      /* I =115 */
(PID.TID 0000.0001)                 8.674306976741121E+10,      /* I =116 */
(PID.TID 0000.0001)                 8.410423102799828E+10,      /* I =117 */
(PID.TID 0000.0001)                 8.084683449728902E+10,      /* I =118 */
(PID.TID 0000.0001)                 7.699293007098555E+10,      /* I =119 */
(PID.TID 0000.0001)                 7.256353271748119E+10,      /* I =120 */
(PID.TID 0000.0001)                 6.757541173817516E+10,      /* I =121 */
(PID.TID 0000.0001)                 6.203683527772523E+10,      /* I =122 */
(PID.TID 0000.0001)                 5.594154126611156E+10,      /* I =123 */
(PID.TID 0000.0001)                 4.925938996118163E+10,      /* I =124 */
(PID.TID 0000.0001)                 4.192037169898667E+10,      /* I =125 */
(PID.TID 0000.0001)                 3.378518544304265E+10,      /* I =126 */
(PID.TID 0000.0001)                 2.459906945574446E+10,      /* I =127 */
(PID.TID 0000.0001)                 1.401900702259215E+10,      /* I =128 */
(PID.TID 0000.0001)                 1.401900702255611E+10,      /* I =129 */
(PID.TID 0000.0001)                 2.459906945574446E+10,      /* I =130 */
(PID.TID 0000.0001)                 3.378518544307869E+10,      /* I =131 */
(PID.TID 0000.0001)                 4.192037169898667E+10,      /* I =132 */
(PID.TID 0000.0001)                 4.925938996118163E+10,      /* I =133 */
(PID.TID 0000.0001)                 5.594154126607553E+10,      /* I =134 */
(PID.TID 0000.0001)                 6.203683527772523E+10,      /* I =135 */
(PID.TID 0000.0001)                 6.757541173817516E+10,      /* I =136 */
(PID.TID 0000.0001)                 7.256353271748119E+10,      /* I =137 */
(PID.TID 0000.0001)                 7.699293007098555E+10,      /* I =138 */
(PID.TID 0000.0001)                 8.084683449728902E+10,      /* I =139 */
(PID.TID 0000.0001)                 8.410423102796223E+10,      /* I =140 */
(PID.TID 0000.0001)                 8.674306976737517E+10,      /* I =141 */
(PID.TID 0000.0001)                 8.874277443041928E+10,      /* I =142 */
(PID.TID 0000.0001)                 9.008620045350865E+10,      /* I =143 */
(PID.TID 0000.0001)                 9.076111290418457E+10,      /* I =144 */
(PID.TID 0000.0001)                 9.076111290422060E+10,      /* I =145 */
(PID.TID 0000.0001)                 9.008620045354469E+10,      /* I =146 */
(PID.TID 0000.0001)                 8.874277443041928E+10,      /* I =147 */
(PID.TID 0000.0001)                 8.674306976741121E+10,      /* I =148 */
(PID.TID 0000.0001)                 8.410423102799828E+10,      /* I =149 */
(PID.TID 0000.0001)                 8.084683449728902E+10,      /* I =150 */
(PID.TID 0000.0001)                 7.699293007098555E+10,      /* I =151 */
(PID.TID 0000.0001)                 7.256353271748119E+10,      /* I =152 */
(PID.TID 0000.0001)                 6.757541173817516E+10,      /* I =153 */
(PID.TID 0000.0001)                 6.203683527772523E+10,      /* I =154 */
(PID.TID 0000.0001)                 5.594154126611156E+10,      /* I =155 */
(PID.TID 0000.0001)                 4.925938996118163E+10,      /* I =156 */
(PID.TID 0000.0001)                 4.192037169898667E+10,      /* I =157 */
(PID.TID 0000.0001)                 3.378518544304265E+10,      /* I =158 */
(PID.TID 0000.0001)                 2.459906945574446E+10,      /* I =159 */
(PID.TID 0000.0001)                 1.401900702259215E+10,      /* I =160 */
(PID.TID 0000.0001)                 1.401900702255611E+10,      /* I =161 */
(PID.TID 0000.0001)                 2.459906945574446E+10,      /* I =162 */
(PID.TID 0000.0001)                 3.378518544307869E+10,      /* I =163 */
(PID.TID 0000.0001)                 4.192037169898667E+10,      /* I =164 */
(PID.TID 0000.0001)                 4.925938996118163E+10,      /* I =165 */
(PID.TID 0000.0001)                 5.594154126607553E+10,      /* I =166 */
(PID.TID 0000.0001)                 6.203683527772523E+10,      /* I =167 */
(PID.TID 0000.0001)                 6.757541173817516E+10,      /* I =168 */
(PID.TID 0000.0001)                 7.256353271748119E+10,      /* I =169 */
(PID.TID 0000.0001)                 7.699293007098555E+10,      /* I =170 */
(PID.TID 0000.0001)                 8.084683449728902E+10,      /* I =171 */
(PID.TID 0000.0001)                 8.410423102796223E+10,      /* I =172 */
(PID.TID 0000.0001)                 8.674306976737517E+10,      /* I =173 */
(PID.TID 0000.0001)                 8.874277443041928E+10,      /* I =174 */
(PID.TID 0000.0001)                 9.008620045350865E+10,      /* I =175 */
(PID.TID 0000.0001)                 9.076111290418457E+10,      /* I =176 */
(PID.TID 0000.0001)                 9.076111290422060E+10,      /* I =177 */
(PID.TID 0000.0001)                 9.008620045354469E+10,      /* I =178 */
(PID.TID 0000.0001)                 8.874277443041928E+10,      /* I =179 */
(PID.TID 0000.0001)                 8.674306976741121E+10,      /* I =180 */
(PID.TID 0000.0001)                 8.410423102799828E+10,      /* I =181 */
(PID.TID 0000.0001)                 8.084683449728902E+10,      /* I =182 */
(PID.TID 0000.0001)                 7.699293007098555E+10,      /* I =183 */
(PID.TID 0000.0001)                 7.256353271748119E+10,      /* I =184 */
(PID.TID 0000.0001)                 6.757541173817516E+10,      /* I =185 */
(PID.TID 0000.0001)                 6.203683527772523E+10,      /* I =186 */
(PID.TID 0000.0001)                 5.594154126611156E+10,      /* I =187 */
(PID.TID 0000.0001)                 4.925938996118163E+10,      /* I =188 */
(PID.TID 0000.0001)                 4.192037169898667E+10,      /* I =189 */
(PID.TID 0000.0001)                 3.378518544304265E+10,      /* I =190 */
(PID.TID 0000.0001)                 2.459906945574446E+10,      /* I =191 */
(PID.TID 0000.0001)                 1.401900702259215E+10       /* I =192 */
(PID.TID 0000.0001)     ;
(PID.TID 0000.0001) rA  =  /* rA (1,:,1,:) ( units: m^2 ) */
(PID.TID 0000.0001)                 1.401900702255611E+10,      /* J =  1 */
(PID.TID 0000.0001)                 2.459906945574446E+10,      /* J =  2 */
(PID.TID 0000.0001)                 3.378518544307869E+10,      /* J =  3 */
(PID.TID 0000.0001)                 4.192037169898667E+10,      /* J =  4 */
(PID.TID 0000.0001)                 4.925938996118163E+10,      /* J =  5 */
(PID.TID 0000.0001)                 5.594154126607553E+10,      /* J =  6 */
(PID.TID 0000.0001)                 6.203683527776127E+10,      /* J =  7 */
(PID.TID 0000.0001)                 6.757541173817516E+10,      /* J =  8 */
(PID.TID 0000.0001)                 7.256353271748119E+10,      /* J =  9 */
(PID.TID 0000.0001)                 7.699293007098555E+10,      /* J = 10 */
(PID.TID 0000.0001)                 8.084683449728902E+10,      /* J = 11 */
(PID.TID 0000.0001)                 8.410423102799828E+10,      /* J = 12 */
(PID.TID 0000.0001)                 8.674306976737517E+10,      /* J = 13 */
(PID.TID 0000.0001)                 8.874277443041928E+10,      /* J = 14 */
(PID.TID 0000.0001)                 9.008620045350865E+10,      /* J = 15 */
(PID.TID 0000.0001)                 9.076111290418457E+10,      /* J = 16 */
(PID.TID 0000.0001)                 9.076111290422060E+10,      /* J = 17 */
(PID.TID 0000.0001)                 9.008620045354469E+10,      /* J = 18 */
(PID.TID 0000.0001)                 8.874277443041928E+10,      /* J = 19 */
(PID.TID 0000.0001)                 8.674306976737517E+10,      /* J = 20 */
(PID.TID 0000.0001)                 8.410423102799828E+10,      /* J = 21 */
(PID.TID 0000.0001)                 8.084683449728902E+10,      /* J = 22 */
(PID.TID 0000.0001)                 7.699293007098555E+10,      /* J = 23 */
(PID.TID 0000.0001)                 7.256353271748119E+10,      /* J = 24 */
(PID.TID 0000.0001)                 6.757541173817516E+10,      /* J = 25 */
(PID.TID 0000.0001)                 6.203683527772523E+10,      /* J = 26 */
(PID.TID 0000.0001)                 5.594154126607553E+10,      /* J = 27 */
(PID.TID 0000.0001)                 4.925938996118163E+10,      /* J = 28 */
(PID.TID 0000.0001)                 4.192037169898667E+10,      /* J = 29 */
(PID.TID 0000.0001)                 3.378518544307869E+10,      /* J = 30 */
(PID.TID 0000.0001)                 2.459906945574446E+10,      /* J = 31 */
(PID.TID 0000.0001)                 1.401900702259215E+10       /* J = 32 */
(PID.TID 0000.0001)     ;
(PID.TID 0000.0001) rAw =  /* rAw(:,1,:,1) ( units: m^2 ) */
(PID.TID 0000.0001)                 1.216690346714270E+10,      /* I =  1 */
(PID.TID 0000.0001)                 1.974052138506315E+10,      /* I =  2 */
(PID.TID 0000.0001)                 2.943712825252015E+10,      /* I =  3 */
(PID.TID 0000.0001)                 3.801790263324359E+10,      /* I =  4 */
(PID.TID 0000.0001)                 4.571243814189866E+10,      /* I =  5 */
(PID.TID 0000.0001)                 5.269930713599979E+10,      /* I =  6 */
(PID.TID 0000.0001)                 5.907428494299063E+10,      /* I =  7 */
(PID.TID 0000.0001)                 6.488320895111514E+10,      /* I =  8 */
(PID.TID 0000.0001)                 7.014205907741882E+10,      /* I =  9 */
(PID.TID 0000.0001)                 7.484854821847499E+10,      /* I = 10 */
(PID.TID 0000.0001)                 7.898934631431560E+10,      /* I = 11 */
(PID.TID 0000.0001)                 8.254500894894537E+10,      /* I = 12 */
(PID.TID 0000.0001)                 8.549360686473492E+10,      /* I = 13 */
(PID.TID 0000.0001)                 8.781353403175085E+10,      /* I = 14 */
(PID.TID 0000.0001)                 8.948571540392021E+10,      /* I = 15 */
(PID.TID 0000.0001)                 9.049530583086168E+10,      /* I = 16 */
(PID.TID 0000.0001)                 9.083293515008307E+10,      /* I = 17 */
(PID.TID 0000.0001)                 9.049530583087070E+10,      /* I = 18 */
(PID.TID 0000.0001)                 8.948571540391121E+10,      /* I = 19 */
(PID.TID 0000.0001)                 8.781353403174185E+10,      /* I = 20 */
(PID.TID 0000.0001)                 8.549360686467184E+10,      /* I = 21 */
(PID.TID 0000.0001)                 8.254500894890933E+10,      /* I = 22 */
(PID.TID 0000.0001)                 7.898934631434262E+10,      /* I = 23 */
(PID.TID 0000.0001)                 7.484854821844795E+10,      /* I = 24 */
(PID.TID 0000.0001)                 7.014205907742783E+10,      /* I = 25 */
(PID.TID 0000.0001)                 6.488320895111514E+10,      /* I = 26 */
(PID.TID 0000.0001)                 5.907428494299063E+10,      /* I = 27 */
(PID.TID 0000.0001)                 5.269930713599078E+10,      /* I = 28 */
(PID.TID 0000.0001)                 4.571243814190767E+10,      /* I = 29 */
(PID.TID 0000.0001)                 3.801790263325260E+10,      /* I = 30 */
(PID.TID 0000.0001)                 2.943712825251114E+10,      /* I = 31 */
(PID.TID 0000.0001)                 1.974052138509018E+10,      /* I = 32 */
(PID.TID 0000.0001)                 1.216690346714270E+10,      /* I = 33 */
(PID.TID 0000.0001)                 1.974052138506315E+10,      /* I = 34 */
(PID.TID 0000.0001)                 2.943712825252015E+10,      /* I = 35 */
(PID.TID 0000.0001)                 3.801790263324359E+10,      /* I = 36 */
(PID.TID 0000.0001)                 4.571243814189866E+10,      /* I = 37 */
(PID.TID 0000.0001)                 5.269930713599979E+10,      /* I = 38 */
(PID.TID 0000.0001)                 5.907428494299063E+10,      /* I = 39 */
(PID.TID 0000.0001)                 6.488320895111514E+10,      /* I = 40 */
(PID.TID 0000.0001)                 7.014205907741882E+10,      /* I = 41 */
(PID.TID 0000.0001)                 7.484854821847499E+10,      /* I = 42 */
(PID.TID 0000.0001)                 7.898934631431560E+10,      /* I = 43 */
(PID.TID 0000.0001)                 8.254500894894537E+10,      /* I = 44 */
(PID.TID 0000.0001)                 8.549360686473492E+10,      /* I = 45 */
(PID.TID 0000.0001)                 8.781353403175085E+10,      /* I = 46 */
(PID.TID 0000.0001)                 8.948571540392021E+10,      /* I = 47 */
(PID.TID 0000.0001)                 9.049530583086168E+10,      /* I = 48 */
(PID.TID 0000.0001)                 9.083293515008307E+10,      /* I = 49 */
(PID.TID 0000.0001)                 9.049530583087070E+10,      /* I = 50 */
(PID.TID 0000.0001)                 8.948571540391121E+10,      /* I = 51 */
(PID.TID 0000.0001)                 8.781353403174185E+10,      /* I = 52 */
(PID.TID 0000.0001)                 8.549360686467184E+10,      /* I = 53 */
(PID.TID 0000.0001)                 8.254500894890933E+10,      /* I = 54 */
(PID.TID 0000.0001)                 7.898934631434262E+10,      /* I = 55 */
(PID.TID 0000.0001)                 7.484854821844795E+10,      /* I = 56 */
(PID.TID 0000.0001)                 7.014205907742783E+10,      /* I = 57 */
(PID.TID 0000.0001)                 6.488320895111514E+10,      /* I = 58 */
(PID.TID 0000.0001)                 5.907428494299063E+10,      /* I = 59 */
(PID.TID 0000.0001)                 5.269930713599078E+10,      /* I = 60 */
(PID.TID 0000.0001)                 4.571243814190767E+10,      /* I = 61 */
(PID.TID 0000.0001)                 3.801790263325260E+10,      /* I = 62 */
(PID.TID 0000.0001)                 2.943712825251114E+10,      /* I = 63 */
(PID.TID 0000.0001)                 1.974052138509018E+10,      /* I = 64 */
(PID.TID 0000.0001)                 1.216690346714270E+10,      /* I = 65 */
(PID.TID 0000.0001)                 1.974052138506315E+10,      /* I = 66 */
(PID.TID 0000.0001)                 2.943712825252015E+10,      /* I = 67 */
(PID.TID 0000.0001)                 3.801790263324359E+10,      /* I = 68 */
(PID.TID 0000.0001)                 4.571243814189866E+10,      /* I = 69 */
(PID.TID 0000.0001)                 5.269930713599979E+10,      /* I = 70 */
(PID.TID 0000.0001)                 5.907428494299063E+10,      /* I = 71 */
(PID.TID 0000.0001)                 6.488320895111514E+10,      /* I = 72 */
(PID.TID 0000.0001)                 7.014205907741882E+10,      /* I = 73 */
(PID.TID 0000.0001)                 7.484854821847499E+10,      /* I = 74 */
(PID.TID 0000.0001)                 7.898934631431560E+10,      /* I = 75 */
(PID.TID 0000.0001)                 8.254500894894537E+10,      /* I = 76 */
(PID.TID 0000.0001)                 8.549360686473492E+10,      /* I = 77 */
(PID.TID 0000.0001)                 8.781353403175085E+10,      /* I = 78 */
(PID.TID 0000.0001)                 8.948571540392021E+10,      /* I = 79 */
(PID.TID 0000.0001)                 9.049530583086168E+10,      /* I = 80 */
(PID.TID 0000.0001)                 9.083293515008307E+10,      /* I = 81 */
(PID.TID 0000.0001)                 9.049530583087070E+10,      /* I = 82 */
(PID.TID 0000.0001)                 8.948571540391121E+10,      /* I = 83 */
(PID.TID 0000.0001)                 8.781353403174185E+10,      /* I = 84 */
(PID.TID 0000.0001)                 8.549360686467184E+10,      /* I = 85 */
(PID.TID 0000.0001)                 8.254500894890933E+10,      /* I = 86 */
(PID.TID 0000.0001)                 7.898934631434262E+10,      /* I = 87 */
(PID.TID 0000.0001)                 7.484854821844795E+10,      /* I = 88 */
(PID.TID 0000.0001)                 7.014205907742783E+10,      /* I = 89 */
(PID.TID 0000.0001)                 6.488320895111514E+10,      /* I = 90 */
(PID.TID 0000.0001)                 5.907428494299063E+10,      /* I = 91 */
(PID.TID 0000.0001)                 5.269930713599078E+10,      /* I = 92 */
(PID.TID 0000.0001)                 4.571243814190767E+10,      /* I = 93 */
(PID.TID 0000.0001)                 3.801790263325260E+10,      /* I = 94 */
(PID.TID 0000.0001)                 2.943712825251114E+10,      /* I = 95 */
(PID.TID 0000.0001)                 1.974052138509018E+10,      /* I = 96 */
(PID.TID 0000.0001)                 1.216690346714270E+10,      /* I = 97 */
(PID.TID 0000.0001)                 1.974052138506315E+10,      /* I = 98 */
(PID.TID 0000.0001)                 2.943712825252015E+10,      /* I = 99 */
(PID.TID 0000.0001)                 3.801790263324359E+10,      /* I =100 */
(PID.TID 0000.0001)                 4.571243814189866E+10,      /* I =101 */
(PID.TID 0000.0001)                 5.269930713599979E+10,      /* I =102 */
(PID.TID 0000.0001)                 5.907428494299063E+10,      /* I =103 */
(PID.TID 0000.0001)                 6.488320895111514E+10,      /* I =104 */
(PID.TID 0000.0001)                 7.014205907741882E+10,      /* I =105 */
(PID.TID 0000.0001)                 7.484854821847499E+10,      /* I =106 */
(PID.TID 0000.0001)                 7.898934631431560E+10,      /* I =107 */
(PID.TID 0000.0001)                 8.254500894894537E+10,      /* I =108 */
(PID.TID 0000.0001)                 8.549360686473492E+10,      /* I =109 */
(PID.TID 0000.0001)                 8.781353403175085E+10,      /* I =110 */
(PID.TID 0000.0001)                 8.948571540392021E+10,      /* I =111 */
(PID.TID 0000.0001)                 9.049530583086168E+10,      /* I =112 */
(PID.TID 0000.0001)                 9.083293515008307E+10,      /* I =113 */
(PID.TID 0000.0001)                 9.049530583087070E+10,      /* I =114 */
(PID.TID 0000.0001)                 8.948571540391121E+10,      /* I =115 */
(PID.TID 0000.0001)                 8.781353403174185E+10,      /* I =116 */
(PID.TID 0000.0001)                 8.549360686467184E+10,      /* I =117 */
(PID.TID 0000.0001)                 8.254500894890933E+10,      /* I =118 */
(PID.TID 0000.0001)                 7.898934631434262E+10,      /* I =119 */
(PID.TID 0000.0001)                 7.484854821844795E+10,      /* I =120 */
(PID.TID 0000.0001)                 7.014205907742783E+10,      /* I =121 */
(PID.TID 0000.0001)                 6.488320895111514E+10,      /* I =122 */
(PID.TID 0000.0001)                 5.907428494299063E+10,      /* I =123 */
(PID.TID 0000.0001)                 5.269930713599078E+10,      /* I =124 */
(PID.TID 0000.0001)                 4.571243814190767E+10,      /* I =125 */
(PID.TID 0000.0001)                 3.801790263325260E+10,      /* I =126 */
(PID.TID 0000.0001)                 2.943712825251114E+10,      /* I =127 */
(PID.TID 0000.0001)                 1.974052138509018E+10,      /* I =128 */
(PID.TID 0000.0001)                 1.216690346714270E+10,      /* I =129 */
(PID.TID 0000.0001)                 1.974052138506315E+10,      /* I =130 */
(PID.TID 0000.0001)                 2.943712825252015E+10,      /* I =131 */
(PID.TID 0000.0001)                 3.801790263324359E+10,      /* I =132 */
(PID.TID 0000.0001)                 4.571243814189866E+10,      /* I =133 */
(PID.TID 0000.0001)                 5.269930713599979E+10,      /* I =134 */
(PID.TID 0000.0001)                 5.907428494299063E+10,      /* I =135 */
(PID.TID 0000.0001)                 6.488320895111514E+10,      /* I =136 */
(PID.TID 0000.0001)                 7.014205907741882E+10,      /* I =137 */
(PID.TID 0000.0001)                 7.484854821847499E+10,      /* I =138 */
(PID.TID 0000.0001)                 7.898934631431560E+10,      /* I =139 */
(PID.TID 0000.0001)                 8.254500894894537E+10,      /* I =140 */
(PID.TID 0000.0001)                 8.549360686473492E+10,      /* I =141 */
(PID.TID 0000.0001)                 8.781353403175085E+10,      /* I =142 */
(PID.TID 0000.0001)                 8.948571540392021E+10,      /* I =143 */
(PID.TID 0000.0001)                 9.049530583086168E+10,      /* I =144 */
(PID.TID 0000.0001)                 9.083293515008307E+10,      /* I =145 */
(PID.TID 0000.0001)                 9.049530583087070E+10,      /* I =146 */
(PID.TID 0000.0001)                 8.948571540391121E+10,      /* I =147 */
(PID.TID 0000.0001)                 8.781353403174185E+10,      /* I =148 */
(PID.TID 0000.0001)                 8.549360686467184E+10,      /* I =149 */
(PID.TID 0000.0001)                 8.254500894890933E+10,      /* I =150 */
(PID.TID 0000.0001)                 7.898934631434262E+10,      /* I =151 */
(PID.TID 0000.0001)                 7.484854821844795E+10,      /* I =152 */
(PID.TID 0000.0001)                 7.014205907742783E+10,      /* I =153 */
(PID.TID 0000.0001)                 6.488320895111514E+10,      /* I =154 */
(PID.TID 0000.0001)                 5.907428494299063E+10,      /* I =155 */
(PID.TID 0000.0001)                 5.269930713599078E+10,      /* I =156 */
(PID.TID 0000.0001)                 4.571243814190767E+10,      /* I =157 */
(PID.TID 0000.0001)                 3.801790263325260E+10,      /* I =158 */
(PID.TID 0000.0001)                 2.943712825251114E+10,      /* I =159 */
(PID.TID 0000.0001)                 1.974052138509018E+10,      /* I =160 */
(PID.TID 0000.0001)                 1.216690346714270E+10,      /* I =161 */
(PID.TID 0000.0001)                 1.974052138506315E+10,      /* I =162 */
(PID.TID 0000.0001)                 2.943712825252015E+10,      /* I =163 */
(PID.TID 0000.0001)                 3.801790263324359E+10,      /* I =164 */
(PID.TID 0000.0001)                 4.571243814189866E+10,      /* I =165 */
(PID.TID 0000.0001)                 5.269930713599979E+10,      /* I =166 */
(PID.TID 0000.0001)                 5.907428494299063E+10,      /* I =167 */
(PID.TID 0000.0001)                 6.488320895111514E+10,      /* I =168 */
(PID.TID 0000.0001)                 7.014205907741882E+10,      /* I =169 */
(PID.TID 0000.0001)                 7.484854821847499E+10,      /* I =170 */
(PID.TID 0000.0001)                 7.898934631431560E+10,      /* I =171 */
(PID.TID 0000.0001)                 8.254500894894537E+10,      /* I =172 */
(PID.TID 0000.0001)                 8.549360686473492E+10,      /* I =173 */
(PID.TID 0000.0001)                 8.781353403175085E+10,      /* I =174 */
(PID.TID 0000.0001)                 8.948571540392021E+10,      /* I =175 */
(PID.TID 0000.0001)                 9.049530583086168E+10,      /* I =176 */
(PID.TID 0000.0001)                 9.083293515008307E+10,      /* I =177 */
(PID.TID 0000.0001)                 9.049530583087070E+10,      /* I =178 */
(PID.TID 0000.0001)                 8.948571540391121E+10,      /* I =179 */
(PID.TID 0000.0001)                 8.781353403174185E+10,      /* I =180 */
(PID.TID 0000.0001)                 8.549360686467184E+10,      /* I =181 */
(PID.TID 0000.0001)                 8.254500894890933E+10,      /* I =182 */
(PID.TID 0000.0001)                 7.898934631434262E+10,      /* I =183 */
(PID.TID 0000.0001)                 7.484854821844795E+10,      /* I =184 */
(PID.TID 0000.0001)                 7.014205907742783E+10,      /* I =185 */
(PID.TID 0000.0001)                 6.488320895111514E+10,      /* I =186 */
(PID.TID 0000.0001)                 5.907428494299063E+10,      /* I =187 */
(PID.TID 0000.0001)                 5.269930713599078E+10,      /* I =188 */
(PID.TID 0000.0001)                 4.571243814190767E+10,      /* I =189 */
(PID.TID 0000.0001)                 3.801790263325260E+10,      /* I =190 */
(PID.TID 0000.0001)                 2.943712825251114E+10,      /* I =191 */
(PID.TID 0000.0001)                 1.974052138509018E+10       /* I =192 */
(PID.TID 0000.0001)     ;
(PID.TID 0000.0001) rAw =  /* rAw(1,:,1,:) ( units: m^2 ) */
(PID.TID 0000.0001)                 1.216690346714270E+10,      /* J =  1 */
(PID.TID 0000.0001)                 2.390126200743558E+10,      /* J =  2 */
(PID.TID 0000.0001)                 3.341968103208270E+10,      /* J =  3 */
(PID.TID 0000.0001)                 4.168532893152940E+10,      /* J =  4 */
(PID.TID 0000.0001)                 4.909074590409593E+10,      /* J =  5 */
(PID.TID 0000.0001)                 5.581203765722643E+10,      /* J =  6 */
(PID.TID 0000.0001)                 6.193257577506788E+10,      /* J =  7 */
(PID.TID 0000.0001)                 6.748840226738273E+10,      /* J =  8 */
(PID.TID 0000.0001)                 7.248875782324815E+10,      /* J =  9 */
(PID.TID 0000.0001)                 7.692702995909871E+10,      /* J = 10 */
(PID.TID 0000.0001)                 8.078743937057304E+10,      /* J = 11 */
(PID.TID 0000.0001)                 8.404959656062837E+10,      /* J = 12 */
(PID.TID 0000.0001)                 8.669186205742538E+10,      /* J = 13 */
(PID.TID 0000.0001)                 8.869393350723613E+10,      /* J = 14 */
(PID.TID 0000.0001)                 9.003884657168852E+10,      /* J = 15 */
(PID.TID 0000.0001)     2 @  9.071447638299399E+10,             /* J = 16: 17 */
(PID.TID 0000.0001)                 9.003884657168852E+10,      /* J = 18 */
(PID.TID 0000.0001)                 8.869393350723613E+10,      /* J = 19 */
(PID.TID 0000.0001)                 8.669186205742538E+10,      /* J = 20 */
(PID.TID 0000.0001)                 8.404959656062837E+10,      /* J = 21 */
(PID.TID 0000.0001)                 8.078743937057304E+10,      /* J = 22 */
(PID.TID 0000.0001)                 7.692702995909871E+10,      /* J = 23 */
(PID.TID 0000.0001)                 7.248875782324815E+10,      /* J = 24 */
(PID.TID 0000.0001)                 6.748840226738273E+10,      /* J = 25 */
(PID.TID 0000.0001)                 6.193257577506788E+10,      /* J = 26 */
(PID.TID 0000.0001)                 5.581203765722643E+10,      /* J = 27 */
(PID.TID 0000.0001)                 4.909074590409593E+10,      /* J = 28 */
(PID.TID 0000.0001)                 4.168532893152940E+10,      /* J = 29 */
(PID.TID 0000.0001)                 3.341968103208270E+10,      /* J = 30 */
(PID.TID 0000.0001)                 2.390126200743558E+10,      /* J = 31 */
(PID.TID 0000.0001)                 1.216690346714270E+10       /* J = 32 */
(PID.TID 0000.0001)     ;
(PID.TID 0000.0001) rAs =  /* rAs(:,1,:,1) ( units: m^2 ) */
(PID.TID 0000.0001)                 1.216690346714270E+10,      /* I =  1 */
(PID.TID 0000.0001)                 2.390126200743558E+10,      /* I =  2 */
(PID.TID 0000.0001)                 3.341968103208270E+10,      /* I =  3 */
(PID.TID 0000.0001)                 4.168532893152940E+10,      /* I =  4 */
(PID.TID 0000.0001)                 4.909074590409593E+10,      /* I =  5 */
(PID.TID 0000.0001)                 5.581203765722643E+10,      /* I =  6 */
(PID.TID 0000.0001)                 6.193257577506788E+10,      /* I =  7 */
(PID.TID 0000.0001)                 6.748840226738273E+10,      /* I =  8 */
(PID.TID 0000.0001)                 7.248875782324815E+10,      /* I =  9 */
(PID.TID 0000.0001)                 7.692702995909871E+10,      /* I = 10 */
(PID.TID 0000.0001)                 8.078743937057304E+10,      /* I = 11 */
(PID.TID 0000.0001)                 8.404959656062837E+10,      /* I = 12 */
(PID.TID 0000.0001)                 8.669186205742538E+10,      /* I = 13 */
(PID.TID 0000.0001)                 8.869393350723613E+10,      /* I = 14 */
(PID.TID 0000.0001)                 9.003884657168852E+10,      /* I = 15 */
(PID.TID 0000.0001)     2 @  9.071447638299399E+10,             /* I = 16: 17 */
(PID.TID 0000.0001)                 9.003884657168852E+10,      /* I = 18 */
(PID.TID 0000.0001)                 8.869393350723613E+10,      /* I = 19 */
(PID.TID 0000.0001)                 8.669186205742538E+10,      /* I = 20 */
(PID.TID 0000.0001)                 8.404959656062837E+10,      /* I = 21 */
(PID.TID 0000.0001)                 8.078743937057304E+10,      /* I = 22 */
(PID.TID 0000.0001)                 7.692702995909871E+10,      /* I = 23 */
(PID.TID 0000.0001)                 7.248875782324815E+10,      /* I = 24 */
(PID.TID 0000.0001)                 6.748840226738273E+10,      /* I = 25 */
(PID.TID 0000.0001)                 6.193257577506788E+10,      /* I = 26 */
(PID.TID 0000.0001)                 5.581203765722643E+10,      /* I = 27 */
(PID.TID 0000.0001)                 4.909074590409593E+10,      /* I = 28 */
(PID.TID 0000.0001)                 4.168532893152940E+10,      /* I = 29 */
(PID.TID 0000.0001)                 3.341968103208270E+10,      /* I = 30 */
(PID.TID 0000.0001)                 2.390126200743558E+10,      /* I = 31 */
(PID.TID 0000.0001)     2 @  1.216690346714270E+10,             /* I = 32: 33 */
(PID.TID 0000.0001)                 2.390126200743558E+10,      /* I = 34 */
(PID.TID 0000.0001)                 3.341968103208270E+10,      /* I = 35 */
(PID.TID 0000.0001)                 4.168532893152940E+10,      /* I = 36 */
(PID.TID 0000.0001)                 4.909074590409593E+10,      /* I = 37 */
(PID.TID 0000.0001)                 5.581203765722643E+10,      /* I = 38 */
(PID.TID 0000.0001)                 6.193257577506788E+10,      /* I = 39 */
(PID.TID 0000.0001)                 6.748840226738273E+10,      /* I = 40 */
(PID.TID 0000.0001)                 7.248875782324815E+10,      /* I = 41 */
(PID.TID 0000.0001)                 7.692702995909871E+10,      /* I = 42 */
(PID.TID 0000.0001)                 8.078743937057304E+10,      /* I = 43 */
(PID.TID 0000.0001)                 8.404959656062837E+10,      /* I = 44 */
(PID.TID 0000.0001)                 8.669186205742538E+10,      /* I = 45 */
(PID.TID 0000.0001)                 8.869393350723613E+10,      /* I = 46 */
(PID.TID 0000.0001)                 9.003884657168852E+10,      /* I = 47 */
(PID.TID 0000.0001)     2 @  9.071447638299399E+10,             /* I = 48: 49 */
(PID.TID 0000.0001)                 9.003884657168852E+10,      /* I = 50 */
(PID.TID 0000.0001)                 8.869393350723613E+10,      /* I = 51 */
(PID.TID 0000.0001)                 8.669186205742538E+10,      /* I = 52 */
(PID.TID 0000.0001)                 8.404959656062837E+10,      /* I = 53 */
(PID.TID 0000.0001)                 8.078743937057304E+10,      /* I = 54 */
(PID.TID 0000.0001)                 7.692702995909871E+10,      /* I = 55 */
(PID.TID 0000.0001)                 7.248875782324815E+10,      /* I = 56 */
(PID.TID 0000.0001)                 6.748840226738273E+10,      /* I = 57 */
(PID.TID 0000.0001)                 6.193257577506788E+10,      /* I = 58 */
(PID.TID 0000.0001)                 5.581203765722643E+10,      /* I = 59 */
(PID.TID 0000.0001)                 4.909074590409593E+10,      /* I = 60 */
(PID.TID 0000.0001)                 4.168532893152940E+10,      /* I = 61 */
(PID.TID 0000.0001)                 3.341968103208270E+10,      /* I = 62 */
(PID.TID 0000.0001)                 2.390126200743558E+10,      /* I = 63 */
(PID.TID 0000.0001)     2 @  1.216690346714270E+10,             /* I = 64: 65 */
(PID.TID 0000.0001)                 2.390126200743558E+10,      /* I = 66 */
(PID.TID 0000.0001)                 3.341968103208270E+10,      /* I = 67 */
(PID.TID 0000.0001)                 4.168532893152940E+10,      /* I = 68 */
(PID.TID 0000.0001)                 4.909074590409593E+10,      /* I = 69 */
(PID.TID 0000.0001)                 5.581203765722643E+10,      /* I = 70 */
(PID.TID 0000.0001)                 6.193257577506788E+10,      /* I = 71 */
(PID.TID 0000.0001)                 6.748840226738273E+10,      /* I = 72 */
(PID.TID 0000.0001)                 7.248875782324815E+10,      /* I = 73 */
(PID.TID 0000.0001)                 7.692702995909871E+10,      /* I = 74 */
(PID.TID 0000.0001)                 8.078743937057304E+10,      /* I = 75 */
(PID.TID 0000.0001)                 8.404959656062837E+10,      /* I = 76 */
(PID.TID 0000.0001)                 8.669186205742538E+10,      /* I = 77 */
(PID.TID 0000.0001)                 8.869393350723613E+10,      /* I = 78 */
(PID.TID 0000.0001)                 9.003884657168852E+10,      /* I = 79 */
(PID.TID 0000.0001)     2 @  9.071447638299399E+10,             /* I = 80: 81 */
(PID.TID 0000.0001)                 9.003884657168852E+10,      /* I = 82 */
(PID.TID 0000.0001)                 8.869393350723613E+10,      /* I = 83 */
(PID.TID 0000.0001)                 8.669186205742538E+10,      /* I = 84 */
(PID.TID 0000.0001)                 8.404959656062837E+10,      /* I = 85 */
(PID.TID 0000.0001)                 8.078743937057304E+10,      /* I = 86 */
(PID.TID 0000.0001)                 7.692702995909871E+10,      /* I = 87 */
(PID.TID 0000.0001)                 7.248875782324815E+10,      /* I = 88 */
(PID.TID 0000.0001)                 6.748840226738273E+10,      /* I = 89 */
(PID.TID 0000.0001)                 6.193257577506788E+10,      /* I = 90 */
(PID.TID 0000.0001)                 5.581203765722643E+10,      /* I = 91 */
(PID.TID 0000.0001)                 4.909074590409593E+10,      /* I = 92 */
(PID.TID 0000.0001)                 4.168532893152940E+10,      /* I = 93 */
(PID.TID 0000.0001)                 3.341968103208270E+10,      /* I = 94 */
(PID.TID 0000.0001)                 2.390126200743558E+10,      /* I = 95 */
(PID.TID 0000.0001)     2 @  1.216690346714270E+10,             /* I = 96: 97 */
(PID.TID 0000.0001)                 2.390126200743558E+10,      /* I = 98 */
(PID.TID 0000.0001)                 3.341968103208270E+10,      /* I = 99 */
(PID.TID 0000.0001)                 4.168532893152940E+10,      /* I =100 */
(PID.TID 0000.0001)                 4.909074590409593E+10,      /* I =101 */
(PID.TID 0000.0001)                 5.581203765722643E+10,      /* I =102 */
(PID.TID 0000.0001)                 6.193257577506788E+10,      /* I =103 */
(PID.TID 0000.0001)                 6.748840226738273E+10,      /* I =104 */
(PID.TID 0000.0001)                 7.248875782324815E+10,      /* I =105 */
(PID.TID 0000.0001)                 7.692702995909871E+10,      /* I =106 */
(PID.TID 0000.0001)                 8.078743937057304E+10,      /* I =107 */
(PID.TID 0000.0001)                 8.404959656062837E+10,      /* I =108 */
(PID.TID 0000.0001)                 8.669186205742538E+10,      /* I =109 */
(PID.TID 0000.0001)                 8.869393350723613E+10,      /* I =110 */
(PID.TID 0000.0001)                 9.003884657168852E+10,      /* I =111 */
(PID.TID 0000.0001)     2 @  9.071447638299399E+10,             /* I =112:113 */
(PID.TID 0000.0001)                 9.003884657168852E+10,      /* I =114 */
(PID.TID 0000.0001)                 8.869393350723613E+10,      /* I =115 */
(PID.TID 0000.0001)                 8.669186205742538E+10,      /* I =116 */
(PID.TID 0000.0001)                 8.404959656062837E+10,      /* I =117 */
(PID.TID 0000.0001)                 8.078743937057304E+10,      /* I =118 */
(PID.TID 0000.0001)                 7.692702995909871E+10,      /* I =119 */
(PID.TID 0000.0001)                 7.248875782324815E+10,      /* I =120 */
(PID.TID 0000.0001)                 6.748840226738273E+10,      /* I =121 */
(PID.TID 0000.0001)                 6.193257577506788E+10,      /* I =122 */
(PID.TID 0000.0001)                 5.581203765722643E+10,      /* I =123 */
(PID.TID 0000.0001)                 4.909074590409593E+10,      /* I =124 */
(PID.TID 0000.0001)                 4.168532893152940E+10,      /* I =125 */
(PID.TID 0000.0001)                 3.341968103208270E+10,      /* I =126 */
(PID.TID 0000.0001)                 2.390126200743558E+10,      /* I =127 */
(PID.TID 0000.0001)     2 @  1.216690346714270E+10,             /* I =128:129 */
(PID.TID 0000.0001)                 2.390126200743558E+10,      /* I =130 */
(PID.TID 0000.0001)                 3.341968103208270E+10,      /* I =131 */
(PID.TID 0000.0001)                 4.168532893152940E+10,      /* I =132 */
(PID.TID 0000.0001)                 4.909074590409593E+10,      /* I =133 */
(PID.TID 0000.0001)                 5.581203765722643E+10,      /* I =134 */
(PID.TID 0000.0001)                 6.193257577506788E+10,      /* I =135 */
(PID.TID 0000.0001)                 6.748840226738273E+10,      /* I =136 */
(PID.TID 0000.0001)                 7.248875782324815E+10,      /* I =137 */
(PID.TID 0000.0001)                 7.692702995909871E+10,      /* I =138 */
(PID.TID 0000.0001)                 8.078743937057304E+10,      /* I =139 */
(PID.TID 0000.0001)                 8.404959656062837E+10,      /* I =140 */
(PID.TID 0000.0001)                 8.669186205742538E+10,      /* I =141 */
(PID.TID 0000.0001)                 8.869393350723613E+10,      /* I =142 */
(PID.TID 0000.0001)                 9.003884657168852E+10,      /* I =143 */
(PID.TID 0000.0001)     2 @  9.071447638299399E+10,             /* I =144:145 */
(PID.TID 0000.0001)                 9.003884657168852E+10,      /* I =146 */
(PID.TID 0000.0001)                 8.869393350723613E+10,      /* I =147 */
(PID.TID 0000.0001)                 8.669186205742538E+10,      /* I =148 */
(PID.TID 0000.0001)                 8.404959656062837E+10,      /* I =149 */
(PID.TID 0000.0001)                 8.078743937057304E+10,      /* I =150 */
(PID.TID 0000.0001)                 7.692702995909871E+10,      /* I =151 */
(PID.TID 0000.0001)                 7.248875782324815E+10,      /* I =152 */
(PID.TID 0000.0001)                 6.748840226738273E+10,      /* I =153 */
(PID.TID 0000.0001)                 6.193257577506788E+10,      /* I =154 */
(PID.TID 0000.0001)                 5.581203765722643E+10,      /* I =155 */
(PID.TID 0000.0001)                 4.909074590409593E+10,      /* I =156 */
(PID.TID 0000.0001)                 4.168532893152940E+10,      /* I =157 */
(PID.TID 0000.0001)                 3.341968103208270E+10,      /* I =158 */
(PID.TID 0000.0001)                 2.390126200743558E+10,      /* I =159 */
(PID.TID 0000.0001)     2 @  1.216690346714270E+10,             /* I =160:161 */
(PID.TID 0000.0001)                 2.390126200743558E+10,      /* I =162 */
(PID.TID 0000.0001)                 3.341968103208270E+10,      /* I =163 */
(PID.TID 0000.0001)                 4.168532893152940E+10,      /* I =164 */
(PID.TID 0000.0001)                 4.909074590409593E+10,      /* I =165 */
(PID.TID 0000.0001)                 5.581203765722643E+10,      /* I =166 */
(PID.TID 0000.0001)                 6.193257577506788E+10,      /* I =167 */
(PID.TID 0000.0001)                 6.748840226738273E+10,      /* I =168 */
(PID.TID 0000.0001)                 7.248875782324815E+10,      /* I =169 */
(PID.TID 0000.0001)                 7.692702995909871E+10,      /* I =170 */
(PID.TID 0000.0001)                 8.078743937057304E+10,      /* I =171 */
(PID.TID 0000.0001)                 8.404959656062837E+10,      /* I =172 */
(PID.TID 0000.0001)                 8.669186205742538E+10,      /* I =173 */
(PID.TID 0000.0001)                 8.869393350723613E+10,      /* I =174 */
(PID.TID 0000.0001)                 9.003884657168852E+10,      /* I =175 */
(PID.TID 0000.0001)     2 @  9.071447638299399E+10,             /* I =176:177 */
(PID.TID 0000.0001)                 9.003884657168852E+10,      /* I =178 */
(PID.TID 0000.0001)                 8.869393350723613E+10,      /* I =179 */
(PID.TID 0000.0001)                 8.669186205742538E+10,      /* I =180 */
(PID.TID 0000.0001)                 8.404959656062837E+10,      /* I =181 */
(PID.TID 0000.0001)                 8.078743937057304E+10,      /* I =182 */
(PID.TID 0000.0001)                 7.692702995909871E+10,      /* I =183 */
(PID.TID 0000.0001)                 7.248875782324815E+10,      /* I =184 */
(PID.TID 0000.0001)                 6.748840226738273E+10,      /* I =185 */
(PID.TID 0000.0001)                 6.193257577506788E+10,      /* I =186 */
(PID.TID 0000.0001)                 5.581203765722643E+10,      /* I =187 */
(PID.TID 0000.0001)                 4.909074590409593E+10,      /* I =188 */
(PID.TID 0000.0001)                 4.168532893152940E+10,      /* I =189 */
(PID.TID 0000.0001)                 3.341968103208270E+10,      /* I =190 */
(PID.TID 0000.0001)                 2.390126200743558E+10,      /* I =191 */
(PID.TID 0000.0001)                 1.216690346714270E+10       /* I =192 */
(PID.TID 0000.0001)     ;
(PID.TID 0000.0001) rAs =  /* rAs(1,:,1,:) ( units: m^2 ) */
(PID.TID 0000.0001)                 1.216690346714270E+10,      /* J =  1 */
(PID.TID 0000.0001)                 1.974052138506315E+10,      /* J =  2 */
(PID.TID 0000.0001)                 2.943712825252015E+10,      /* J =  3 */
(PID.TID 0000.0001)                 3.801790263324359E+10,      /* J =  4 */
(PID.TID 0000.0001)                 4.571243814189866E+10,      /* J =  5 */
(PID.TID 0000.0001)                 5.269930713599979E+10,      /* J =  6 */
(PID.TID 0000.0001)                 5.907428494299063E+10,      /* J =  7 */
(PID.TID 0000.0001)                 6.488320895111514E+10,      /* J =  8 */
(PID.TID 0000.0001)                 7.014205907741882E+10,      /* J =  9 */
(PID.TID 0000.0001)                 7.484854821847499E+10,      /* J = 10 */
(PID.TID 0000.0001)                 7.898934631431560E+10,      /* J = 11 */
(PID.TID 0000.0001)                 8.254500894894537E+10,      /* J = 12 */
(PID.TID 0000.0001)                 8.549360686473492E+10,      /* J = 13 */
(PID.TID 0000.0001)                 8.781353403175085E+10,      /* J = 14 */
(PID.TID 0000.0001)                 8.948571540392021E+10,      /* J = 15 */
(PID.TID 0000.0001)                 9.049530583086168E+10,      /* J = 16 */
(PID.TID 0000.0001)                 9.083293515008307E+10,      /* J = 17 */
(PID.TID 0000.0001)                 9.049530583087070E+10,      /* J = 18 */
(PID.TID 0000.0001)                 8.948571540391121E+10,      /* J = 19 */
(PID.TID 0000.0001)                 8.781353403174185E+10,      /* J = 20 */
(PID.TID 0000.0001)                 8.549360686467184E+10,      /* J = 21 */
(PID.TID 0000.0001)                 8.254500894890933E+10,      /* J = 22 */
(PID.TID 0000.0001)                 7.898934631434262E+10,      /* J = 23 */
(PID.TID 0000.0001)                 7.484854821844795E+10,      /* J = 24 */
(PID.TID 0000.0001)                 7.014205907742783E+10,      /* J = 25 */
(PID.TID 0000.0001)                 6.488320895111514E+10,      /* J = 26 */
(PID.TID 0000.0001)                 5.907428494299063E+10,      /* J = 27 */
(PID.TID 0000.0001)                 5.269930713599078E+10,      /* J = 28 */
(PID.TID 0000.0001)                 4.571243814190767E+10,      /* J = 29 */
(PID.TID 0000.0001)                 3.801790263325260E+10,      /* J = 30 */
(PID.TID 0000.0001)                 2.943712825251114E+10,      /* J = 31 */
(PID.TID 0000.0001)                 1.974052138509018E+10       /* J = 32 */
(PID.TID 0000.0001)     ;
(PID.TID 0000.0001) globalArea = /* Integrated horizontal Area (m^2) */
(PID.TID 0000.0001)                 3.638867375081598E+14
(PID.TID 0000.0001)     ;
(PID.TID 0000.0001) // =======================================================
(PID.TID 0000.0001) // End of Model config. summary
(PID.TID 0000.0001) // =======================================================
(PID.TID 0000.0001) 
(PID.TID 0000.0001) == Packages configuration : Check & print summary ==
(PID.TID 0000.0001) 
(PID.TID 0000.0001) GAD_CHECK: #define ALLOW_GENERIC_ADVDIFF
(PID.TID 0000.0001) GMREDI_CHECK: #define GMREDI
(PID.TID 0000.0001) GM_AdvForm =  /* if FALSE => use SkewFlux Form */
(PID.TID 0000.0001)                   F
(PID.TID 0000.0001)     ;
(PID.TID 0000.0001) GM_InMomAsStress =  /* if TRUE => apply as Eddy Stress */
(PID.TID 0000.0001)                   F
(PID.TID 0000.0001)     ;
(PID.TID 0000.0001) GM_AdvSeparate = /* Calc Bolus & Euler Adv. separately */
(PID.TID 0000.0001)                   F
(PID.TID 0000.0001)     ;
(PID.TID 0000.0001) GM_ExtraDiag =  /* Tensor Extra Diag (line 1&2) non 0 */
(PID.TID 0000.0001)                   F
(PID.TID 0000.0001)     ;
(PID.TID 0000.0001) GM_isopycK =   /* Background Isopyc. Diffusivity ( m^2/s ) */
(PID.TID 0000.0001)                 1.000000000000000E+03
(PID.TID 0000.0001)     ;
(PID.TID 0000.0001)  GM_skewflx*K =   /* Background GM_SkewFlx Diffusivity ( m^2/s ) */
(PID.TID 0000.0001)                 1.000000000000000E+03
(PID.TID 0000.0001)     ;
(PID.TID 0000.0001)  GM_advec*K =   /* Backg. GM-Advec(=Bolus) Diffusivity ( m^2/s ) */
(PID.TID 0000.0001)                 0.000000000000000E+00
(PID.TID 0000.0001)     ;
(PID.TID 0000.0001)  GM_Visbeck_alpha =   /* Visbeck alpha coeff. ( ) */
(PID.TID 0000.0001)                 0.000000000000000E+00
(PID.TID 0000.0001)     ;
(PID.TID 0000.0001)  Tapering/Cliping : dm95
(PID.TID 0000.0001)  GM_Small_Number =  /* epsilon used in slope calc */
(PID.TID 0000.0001)                 9.999999999999999E-21
(PID.TID 0000.0001)     ;
(PID.TID 0000.0001)  GM_slopeSqCutoff =  /* Slope^2 cut-off value */
(PID.TID 0000.0001)                 1.000000000000000E+08
(PID.TID 0000.0001)     ;
(PID.TID 0000.0001) CTRL_CHECK: ctrl package
(PID.TID 0000.0001) COST_CHECK: cost package
(PID.TID 0000.0001) CTRL_CHECK: ctrl package
(PID.TID 0000.0001) // =======================================================
(PID.TID 0000.0001) // CONFIG_CHECK : Normal End
(PID.TID 0000.0001) // =======================================================
(PID.TID 0000.0001) 
(PID.TID 0000.0001)  MDS_READ_FIELD: opening global file: bathy_Hmin50.bin
(PID.TID 0000.0001) // =======================================================
(PID.TID 0000.0001) // Field Model R_low (ini_masks_etc) at iteration          1
(PID.TID 0000.0001) // CMIN =         -5.200000000000000E+03
(PID.TID 0000.0001) // CMAX =         -5.000000000000000E+01
(PID.TID 0000.0001) // CINT =          1.907407407407407E+02
(PID.TID 0000.0001) // SYMBOLS (CMIN->CMAX): -abcdefghijklmnopqrstuvwxyz+
(PID.TID 0000.0001) //                  0.0: .
(PID.TID 0000.0001) // RANGE I (Lo:Hi:Step):(  -3: 196:   1)
(PID.TID 0000.0001) // RANGE J (Lo:Hi:Step):(  36:  -3:  -1)
(PID.TID 0000.0001) // RANGE K (Lo:Hi:Step):(   1:   1:   1)
(PID.TID 0000.0001) // =======================================================
(PID.TID 0000.0001) K =   1
(PID.TID 0000.0001) //                I=6       I=16      I=26      I=36      I=38      I=48      I=58      I=68      I=70      I=80      I=90      I=100     I=102     I=112     I=122     I=132     I=134     I=144     I=154     I=164     I=166     I=176     I=186     I=196
(PID.TID 0000.0001) // |--J--|321012345|789012345|789012345|789012345|901234567|901234567|901234567|901234567|123456789|123456789|123456789|123456789|345678901|345678901|345678901|345678901|567890123|567890123|567890123|567890123|789012345|789012345|789012345|789012345|
(PID.TID 0000.0001) //     36 cbbc-ddcbcdehkhhmn..++..................................................okn.skko--a-fc----bba-cp.............tfeecccbbdeecccbbdeddedcdcccdddcddffggghiggfffdeeffijlihjlica---a--cgffel.+edfgeedflcbahgfllcbahgfllfhdffhkfffca-aady...llnabdoa--a
(PID.TID 0000.0001) //     35 dcac--cbbeefjkfefw+..........zpu........................................kqnzrqqk--b-da----bbbbfu..............fdddccaadcddccaadcdddcbbbbcdddcccdffffghgffffddefflligfiljfba---aafddehy...pwvlhfffcbagfccfcbagfcceeffffjlkjgaa---bfvheeln-aesaaab
(PID.TID 0000.0001) //     34 d--ba-abcehjnldcclz+........spps.......................................vkqn+xnnncabbcbba--aabfu+..............hcbaaaaaccbaaaaaccdccbaaabbddddccdffffghfeeeeedeffjiffefilhfcaaaacgceei.......zomggfcaecbbgfcaecbbccddefilihecbaacbaajfega-aesfeed
(PID.TID 0000.0001) //     33 --abbbccceiomkfdbbc+.......+s..........................................xsrxzz+z.fdcddb-----adu+...............hcbaa--accbaa--accddba--bbbddddccdfffhhgfeeddcceddhfeddfgikhfffdfgccffw........zohhgebbaaahgebbaaaaaccdfhlhfefdcccaabjefbaaafoosso
(PID.TID 0000.0001) //     32 --bddefhhkqqlgfaakqz..v.+..+.........................................++..u+....zigfdba----adu+................kdcaaa-acccaaa-accdcb---bbbcdddddefffggfeeedcccccbccbbdcdfgghhiihcbeiw.........+ynjgebaaaajgebaaaa-aacccfikkhecccbbbaaabaadfklnqpp
(PID.TID 0000.0001) //     31 abbcffijnpnqneaaat..umrr+s.z.........................................+++++.ztsvdlifeb--dfdfu+................+lkdca--abcdca--abcccb---bbbbddddeffflhfeeeecbbbbaaba-abbacbcdceffbbfw+..........++ujfbaaa-ujfbaaa----aacffiljgfffcca--adfikkiihhhf
(PID.TID 0000.0001) //     30 --adgillkkkifcadcx.ymmqzqikvnnps.....................................+++++wmegt-jlifcacdlqx+++...............mligea---abgea---abbbb---abaaddddeedkmeddefdbbbaaaabc---b--aaaaabaabm..............+viba---+viba-------acdefinmlgiieb-chnnnmlmlgffc
(PID.TID 0000.0001) //     29 --cfiljigfjd--efdozy...+ximpnnuz......................................+++yqddhp-iljhcbbchz+......++.........+mmhffc----affc----aaba------acdddcbcineddgdbaaa----cdd--a------aa-bfz...............+qe---a.+qe---aa---aedeegknmlgiigcdfhpokkimlfdb
(PID.TID 0000.0001) //     28 -abgkhfcccea-bdei........t............................................++zwgfcfk-gknhccbbhwwy.....+++........+njfeed-----eed-----aa-------abddcabcnfddegcaaa-----hlf------------dk+................+ja---..+ja------bffdddehfd--bedaacfhpnligiihd
(PID.TID 0000.0001) //     27 -acghfbaaaa-achmy......................+.......+++....................++vnbbbclefkpkeeecflmqxy....++........+lhfeecc----eecc------------aaadcbabcfhddccba-------zqd-----------irw.................++e---..++e-----mhmijddda--------ahhfiokhedegg
(PID.TID 0000.0001) //     26 -adhfca-----bfiv.......................+.......++sy...................+tq-fdbblcjknqiheddefhiksz++++........zkhfdccb----dccb------------aabdcaaaacfddbca-------a+xfa-abb-----vvv...................+wa--...+wa---mlmkijhc----------cjjffiheb-aad
(PID.TID 0000.0001) //     25 -achfa------ch+..................w.......w.......njo+................+x-----bcgidiqqojfefiiiijmy.++.........zkhfdbaa----dbaa-------daa---acccaaaacccca--------ac.+udaabbb----tei...................++qde...++qdeqnghiljcaaaaidaa----beedeeca--bb
(PID.TID 0000.0001) //     24 aaeifa--acbcei...................w.......w.......likn+.....++.....++znpa----bbdi-fnlmnjhinlksssw............qhfeca------ca--------addc--aeffaaaaaaccb-a----a--bd.++udbbaba---ven....................++xy....++xywnfgllcbbabegkecba----ddddcaacdc
(PID.TID 0000.0001) //     23 abfida-aabchjk...................zz......zz.....nhhijz....tqq.....+ujgzgd---abci-cegklkkknols..xuu..........zgfdba------ba--------bcd---affaaadffabbb-----aa-bcc.+.+ufb-----l.gx...........s.........++z.....++zzkfilfccccoz..ulkcd---bccnfddddd
(PID.TID 0000.0001) //     22 -afhfaa---bfgi....................zz..rn..zz..rnjffggm...nlmn+....+sffzya--aabcieaaffdfhimrmp...yuu.++.......zudba------ba--------adc---dda-adffe-aa--------aaac....+ufc-baaqvhh..........dcfeeh......++......++zggqvifefhz......zobbaccfwuffeee
(PID.TID 0000.0001) //     21 babcgca----abe.....................ysstl...ysstlgeeeeoz..ijklt+....lfjzzf---adfcfdaadcehllotq....yy+++zzs.....+zcba-----cba-------cdd--aaa----df------------aaac.....+upjdcy.vohq.......+idcdfeeefwz....efwz....+hhn.vklox.........gdccfjwrigffh
(PID.TID 0000.0001) //     20 fbbbcgfcaa-aae+.......................lc......lcgfdddhq.+hiilnz++.+oquxyz--adgkfdcaabcfmtooyxz......+yuiiy....++gb------gb--------ddcca-a-----acbaa------bbaaaab........ywxy.lulo.lv...kcdgddffefffilyx+fffilyx+fffk.+xyyy.........mgeimvskjklll
(PID.TID 0000.0001) //     19 zmfeccdghfeegcbt......................aa......aafifccgnrzgghjry.+++sr+lq.--edfkkoxtkblwnnsp.vv......skhggt...+++t-------t---------bdaf---------edd-------adlaaaa+..........vnhzy.tllqiedccdhggfggffiiggfgffiiggfcbdgy..yz..........xigqophijkkii
(PID.TID 0000.0001) //     18 ..wifedfkhfegbbcivlqfoz..............jaa.....jaacfihggokeeffgt..++++..hhlfdeddkez..qcz+.zwxtsttz..ysrkhot++++++zig------ig--------b--f---------egqqqaa----frb---+........+kkrhw.vqmlnieddcdehgggffgigedbffgigedbaaceiy.............zilrddefikkhh
(PID.TID 0000.0001) //     17 ..+wfeefikhgcbbccaaacgn.............icaa....icaaccfihfoedddeedy..++...nnqwgfeekeyy.z++..+zsjjllllljllpjos+++.+zhhi-----ehi-----e-----ea--------foqqoqqo--hlwgea-.........+nk+..xiioonhfefddegihhghigfdbaghigfdbaaabdgx..............nheddefiklhg
(PID.TID 0000.0001) //     16 ....wiheddeccdfhfbabdfl............jdbad...jdbaddddgifkccccdccd+.++..++ynvz.tkkq.mu....++zyslllllkhggkmpy++...ihhi-----ehi-----ea---feb-----a-acnoohfghknvmwnuca..........qhu..hhhkojgffgeefghihhiieedbahiieedbaaabcdy..............ygddeghiljgf
(PID.TID 0000.0001) //     15 ......ylea--acfihebcbbes..........sfcbbn..sfcbbngfffigcaaabdbcac+.+++++zgmpx...y.mm....++..zslwz.yhhhhnz+++...rhgc----abgc----ab----ige----acaaalllkddfiy..yswxb..........thk.xgghiligfghfefhhhhiiheedcdiiheedcdbbabdmz.............zfdeghikkifd
(PID.TID 0000.0001) //     14 ........c---acgkhdcc--di..........ofddch..ofddchohffikaaaaabaaa-aw+.+ysnggox++...qrv..........yzzzzrjil+++....qhgd-----agd-----a-----i---cccdeabkklldinqssy..xxv...........+y.uhghikihgfghefgihhhgeeeeedhgeeeeeddbaadhw.............nedeghjjhfed
(PID.TID 0000.0001) //     13 .......+b----cfkhec---afz.........nhfdff..nhfdffholghkaaaaaba-a---flkkuswyy++++y+zr...........zzzzz++ry++......yd-------d--------------aeecdeidfkkqnqlmqquukqqmf..............iihiijjhfefgefhjihiffgggffiffgggffecaabelx...........zjecehijhfecc
(PID.TID 0000.0001) //     12 .......ec----chjhec---ag..........skiqdd..skiqddeiiiifaaabae--a---dd--iu+++.+++sxq++..........+z+++++.+++....++.s-------s------------a-ceccdejhlllkqlkklssiccdee.............wjkkkjjjigeefffgjiiighiiihhighiiihhhdaabdffghtxx......mfccehjiffdb-
(PID.TID 0000.0001) //     11 ......pdca--achlheba--ai..........nkn.fd..nkn.fdemijidaaaabi-------a--q+....++.ziis...........+++++..........+yyza----b-za----b-----a--ccccddkhieekkossssfbbbbcd............njjijhhihijhgggggjjjjijkkkkjjijkkkkjjhcaacddeegpy.....xfdccdhjgfdda-
(PID.TID 0000.0001) //     10 ......wfdb--achlhea---an.........uos..dc.uos..dcemikkfdcaabi-------equ+.........mk...........................zyvuq----ccuq----cc----a---dcfhkopqjeissrnpfbbcccde..........zslihhigghgijjihhhhkllkkkkkkjkkkkkkkjkkkedccdeeeeipz..zwhccbcdhgfddcam
(PID.TID 0000.0001) //      9 ......vgec---bfikca--cjl+.......+nnv.+cc+nnv.+ccffhkkiddaadha-----as++..........pvz++........................zxuuk------uk------a---a----djmqrrnlllsoiddcccccdjf.........+zjijhfgfggffhjkkkiillljihhghgijihhghgihighdeeffgghimnnjgecbbcdgfeccbas
(PID.TID 0000.0001) //      8 .....zleca---afjfca--hdfz.......vkky.jcevkky.jceddefijffdddhb--a-afv............nn..ss.........................+yku-----yku--------------ejnpqqnninnritqdccchkmf+.......wihgghgeffffeefhijkjkljiigeeffefigeeffefffhjhhikkklljklmhffeeeggfdcbaay.
(PID.TID 0000.0001) //      7 ...+zohec--abcfkhecbchbdx.......qiht.faaqiht.faaaabdgijgfededcdcb-f+............nn...pz.........................+zu-----+zu--------------edefqgqddsz+......+yuddmm+....tiggfggfeeeefeeefiiiijkiihhedddddhheddddddddjjllliijhfkmmkkjjhijgdcba--q.
(PID.TID 0000.0001) //      6 ..+yomfddcaabefkifdchaadt......uqdeisc--qdeisc----dfefgifffkklldc--v............up...pp.........................v.x-----v.x---------a----fbbpqgzenx+........zdbcmllkhhfffffffgfeeeeeeeefhhhhijihhffddcbbhffddcbbbbdhhiihedddb-cfhhhjjjieca----+.
(PID.TID 0000.0001) //      5 ..+nhgffkghccfhkhffgdaackz....uoibcimlaaibcimlaaacfbddfjjhijeehf-a-c............zs...su.........................qk.yi---qk.yi-------gha-fjddqs+xkrz.........q-bchikdccdeeeeeeedddedddddgghhhhjhhgffcbbaagffcbbaaaaddfegecca----dfeefhfgdb-----+.
(PID.TID 0000.0001) //      4 .+ujhgfllfhdffhkfffca-aady...llnabdopfcbabdopfcbdgdbcdehlihgfddc--ms............................................okn.zd--okn.zd---eciiiicfkeeqy.ysz..........n-aafgdcbbdeddedcdcccdddcddffggghiggfffdbaa-fffdbaa---acdcccba--abvfedeffdcca----b+.
(PID.TID 0000.0001) //      3 +vjggfcceeffffjlkjgaa---bfvheeln-aesphfd-aesphfdhgabddeflihhgfecbaaayq+++++.....................................kqnz.vtpkqnz.vtpkllgdccfkkkkk..++..........+g---fecaaadcdddcbbbbcdddcccdffffghgffffdcaa-fffdcaa----abcaaaa-acxxmecdjmdbba----r+.
(PID.TID 0000.0001) //      2 qifeecbbccddefilihecbaacbaajfega-aesqhff-aesqhffiea-cdeflkkljifeddcba---bry+...................................vkqn+.sghkqn+.sghfcbcbbbdgfdek.++++.........+l---caaaaaccdccbaaabbddddccdffffghfeeeeecba-eeeecba------baaaa-euwxqdbcdkud-----sy+.
(PID.TID 0000.0001) //      1 ebbbbaaaaaccdfhlhfefdcccaabjefbaaafonhglaafonhglid--adfgkkkklkhffddca-----s++++................................xsrxz.tedsrxz.tedcbbbbaaadddet.++++.........+l------a-accddba--bbbddddccdfffhhgfeeddccba-eddccba-------aaaabgns.qcbcchyzqngll++..
(PID.TID 0000.0001) //      0 -aaaaaaa-aacccfikkhecccbbbaaabaadfkllilmdfkllilmgebaadfijjiiikjhffdcba-----lllgn.............................++..u+..zmd.u+..zmdfbd---a-aeef.xx+..........+++s-------accdcb---bbbcdddddefffggfeeedcccbbaedcccbba----aa--alrwwy.kcbccc+...++++...
(PID.TID 0000.0001) //     -1 --aaaaa----aacffiljgfffcca--adfikkiikimikkiikimiiheccfurkiffhijjigfecb-----l----.............................+++++.z+.wq++.z+.wqgbf-------dgzpoy+........+ys+yrb--aa-abcccb---bbbbddddeffflhfeeeecbbcbbaecbbcbbaa----a--bdflm.yuibbcc.......+...
(PID.TID 0000.0001) //     -2 --aaa-------acdefinmlgiieb-chnnnmlmlfklkmlmlfklklkhednwwsheeghhijjgfdca----g---a.............................+++++wmu++y++wmu++ywn--------fwvmgy+........+r-.+++-abc--abbbb---abaaddddeedkmeddefdbbbdcbadbbbdcbaa-------ba-hv.susfbcc.......+...
(PID.TID 0000.0001) //     -3 a--a---aa---aedeegknmlgiigcdfhpokkimdkmkkkimdkmknoiedcfjvpddegghhhhgfdcbaa-n---a..............................+++yqd.++++yqd.+++zvq--dafz.lqnggw+........+b-....abcc---aaba------acdddcbcineddgdbaaaeedbbaaaeedbaa----------nysqssfcd...........
(PID.TID 0000.0001) // =======================================================
(PID.TID 0000.0001) // END OF FIELD                                          =
(PID.TID 0000.0001) // =======================================================
(PID.TID 0000.0001) 
(PID.TID 0000.0001) // =======================================================
(PID.TID 0000.0001) // Field Model Ro_surf (ini_masks_etc) at iteration          1
(PID.TID 0000.0001) // CMIN =         -7.105427357601002E-15
(PID.TID 0000.0001) // CMAX =         -7.105427357601002E-15
(PID.TID 0000.0001) // CINT =          0.000000000000000E+00
(PID.TID 0000.0001) // SYMBOLS (CMIN->CMAX): -abcdefghijklmnopqrstuvwxyz+
(PID.TID 0000.0001) //                  0.0: .
(PID.TID 0000.0001) // RANGE I (Lo:Hi:Step):(  -3: 196:   1)
(PID.TID 0000.0001) // RANGE J (Lo:Hi:Step):(  36:  -3:  -1)
(PID.TID 0000.0001) // RANGE K (Lo:Hi:Step):(   1:   1:   1)
(PID.TID 0000.0001) // =======================================================
(PID.TID 0000.0001) // =======================================================
(PID.TID 0000.0001) // END OF FIELD                                          =
(PID.TID 0000.0001) // =======================================================
(PID.TID 0000.0001) 
(PID.TID 0000.0001) // =======================================================
(PID.TID 0000.0001) // Field hFacC at iteration          1
(PID.TID 0000.0001) // CMIN =          1.000000000000000E+00
(PID.TID 0000.0001) // CMAX =          1.000000000000000E+00
(PID.TID 0000.0001) // CINT =          0.000000000000000E+00
(PID.TID 0000.0001) // SYMBOLS (CMIN->CMAX): -abcdefghijklmnopqrstuvwxyz+
(PID.TID 0000.0001) //                  0.0: .
(PID.TID 0000.0001) // RANGE I (Lo:Hi:Step):(  -3: 196:   1)
(PID.TID 0000.0001) // RANGE J (Lo:Hi:Step):(  36:  -3:  -1)
(PID.TID 0000.0001) // RANGE K (Lo:Hi:Step):(   1:   1:   1)
(PID.TID 0000.0001) // =======================================================
(PID.TID 0000.0001) // =======================================================
(PID.TID 0000.0001) // END OF FIELD                                          =
(PID.TID 0000.0001) // =======================================================
(PID.TID 0000.0001) 
(PID.TID 0000.0001) // =======================================================
(PID.TID 0000.0001) // Field hFacW at iteration          1
(PID.TID 0000.0001) // CMIN =          1.000000000000000E+00
(PID.TID 0000.0001) // CMAX =          1.000000000000000E+00
(PID.TID 0000.0001) // CINT =          0.000000000000000E+00
(PID.TID 0000.0001) // SYMBOLS (CMIN->CMAX): -abcdefghijklmnopqrstuvwxyz+
(PID.TID 0000.0001) //                  0.0: .
(PID.TID 0000.0001) // RANGE I (Lo:Hi:Step):(  -3: 196:   1)
(PID.TID 0000.0001) // RANGE J (Lo:Hi:Step):(  36:  -3:  -1)
(PID.TID 0000.0001) // RANGE K (Lo:Hi:Step):(   1:   1:   1)
(PID.TID 0000.0001) // =======================================================
(PID.TID 0000.0001) // =======================================================
(PID.TID 0000.0001) // END OF FIELD                                          =
(PID.TID 0000.0001) // =======================================================
(PID.TID 0000.0001) 
(PID.TID 0000.0001) // =======================================================
(PID.TID 0000.0001) // Field hFacS at iteration          1
(PID.TID 0000.0001) // CMIN =          1.000000000000000E+00
(PID.TID 0000.0001) // CMAX =          1.000000000000000E+00
(PID.TID 0000.0001) // CINT =          0.000000000000000E+00
(PID.TID 0000.0001) // SYMBOLS (CMIN->CMAX): -abcdefghijklmnopqrstuvwxyz+
(PID.TID 0000.0001) //                  0.0: .
(PID.TID 0000.0001) // RANGE I (Lo:Hi:Step):(  -3: 196:   1)
(PID.TID 0000.0001) // RANGE J (Lo:Hi:Step):(  36:  -3:  -1)
(PID.TID 0000.0001) // RANGE K (Lo:Hi:Step):(   1:   1:   1)
(PID.TID 0000.0001) // =======================================================
(PID.TID 0000.0001) // =======================================================
(PID.TID 0000.0001) // END OF FIELD                                          =
(PID.TID 0000.0001) // =======================================================
(PID.TID 0000.0001) 
(PID.TID 0000.0001) %MON fCori_max                    =   1.4535016908525E-04
(PID.TID 0000.0001) %MON fCori_min                    =  -1.4535016908525E-04
(PID.TID 0000.0001) %MON fCori_mean                   =   0.0000000000000E+00
(PID.TID 0000.0001) %MON fCori_sd                     =   8.3972192788621E-05
(PID.TID 0000.0001) %MON fCoriG_max                   =   1.4544410433286E-04
(PID.TID 0000.0001) %MON fCoriG_min                   =  -1.4544410433286E-04
(PID.TID 0000.0001) %MON fCoriG_mean                  =   0.0000000000000E+00
(PID.TID 0000.0001) %MON fCoriG_sd                    =   8.3972192788621E-05
(PID.TID 0000.0001) %MON fCoriCos_max                 =   1.4540341538469E-04
(PID.TID 0000.0001) %MON fCoriCos_min                 =   5.2264550201501E-06
(PID.TID 0000.0001) %MON fCoriCos_mean                =   1.1482595466044E-04
(PID.TID 0000.0001) %MON fCoriCos_sd                  =   3.0292878037194E-05
(PID.TID 0000.0001) INI_CG2D: CG2D normalisation factor =  1.9156564154949553E-04
(PID.TID 0000.0001) INI_CG2D: cg2dTolerance = 5.809016360175293E-07 (Area=3.6388673751E+14)
(PID.TID 0000.0001) 
(PID.TID 0000.0001)  MDS_READ_META: opening file: pickup.0000072000.meta
(PID.TID 0000.0001)  nRecords = 123 ; filePrec =  64 ; fileIter =     72000
(PID.TID 0000.0001)     nDims =   2 , dims:
(PID.TID 0000.0001)    1: 192   1 192
(PID.TID 0000.0001)    2:  32   1  32
(PID.TID 0000.0001)     nFlds =  11 , nFl3D =   8 , fields:
(PID.TID 0000.0001)  >Uvel    < >GuNm1   < >Vvel    < >GvNm1   < >Theta   < >GtNm1   < >Salt    < >GsNm1   < >EtaN    < >dEtaHdt < >EtaH    <
(PID.TID 0000.0001)   nTimRec =   0 , timeList:
(PID.TID 0000.0001) READ_MFLDS_3D_RL: read field: "Uvel    ", #   1 in fldList, rec=   1
(PID.TID 0000.0001)  MDS_READ_FIELD: opening global file: pickup.0000072000
(PID.TID 0000.0001) READ_MFLDS_3D_RL: read field: "Vvel    ", #   3 in fldList, rec=   3
(PID.TID 0000.0001)  MDS_READ_FIELD: opening global file: pickup.0000072000
(PID.TID 0000.0001) READ_MFLDS_3D_RL: read field: "Theta   ", #   5 in fldList, rec=   5
(PID.TID 0000.0001)  MDS_READ_FIELD: opening global file: pickup.0000072000
(PID.TID 0000.0001) READ_MFLDS_3D_RL: read field: "Salt    ", #   7 in fldList, rec=   7
(PID.TID 0000.0001)  MDS_READ_FIELD: opening global file: pickup.0000072000
(PID.TID 0000.0001) READ_MFLDS_3D_RL: read field: "GuNm1   ", #   2 in fldList, rec=   2
(PID.TID 0000.0001)  MDS_READ_FIELD: opening global file: pickup.0000072000
(PID.TID 0000.0001) READ_MFLDS_3D_RL: read field: "GvNm1   ", #   4 in fldList, rec=   4
(PID.TID 0000.0001)  MDS_READ_FIELD: opening global file: pickup.0000072000
(PID.TID 0000.0001) READ_MFLDS_3D_RL: read field: "EtaN    ", #   9 in fldList, rec= 121
(PID.TID 0000.0001)  MDS_READ_FIELD: opening global file: pickup.0000072000
(PID.TID 0000.0001) READ_MFLDS_CHECK: - normal end ; reset MFLDS file-name: pickup.0000072000
(PID.TID 0000.0001)  MDS_READ_FIELD: opening global file: trenberth_taux.bin
(PID.TID 0000.0001)  MDS_READ_FIELD: opening global file: trenberth_tauy.bin
(PID.TID 0000.0001)  MDS_READ_FIELD: opening global file: shiQnet_cs32.bin
(PID.TID 0000.0001)  MDS_READ_FIELD: opening global file: shiEmPR_cs32.bin
(PID.TID 0000.0001)  MDS_READ_FIELD: opening global file: lev_surfT_cs_12m.bin
(PID.TID 0000.0001)  MDS_READ_FIELD: opening global file: lev_surfS_cs_12m.bin
(PID.TID 0000.0001)  MDS_READ_FIELD: opening file: xx_theta.0000000000.001.001.data
(PID.TID 0000.0001)  MDS_READ_FIELD: opening file: xx_theta.0000000000.002.001.data
(PID.TID 0000.0001)  MDS_READ_FIELD: opening file: xx_theta.0000000000.003.001.data
(PID.TID 0000.0001)  MDS_READ_FIELD: opening file: xx_theta.0000000000.004.001.data
(PID.TID 0000.0001)  MDS_READ_FIELD: opening file: xx_theta.0000000000.005.001.data
(PID.TID 0000.0001)  MDS_READ_FIELD: opening file: xx_theta.0000000000.006.001.data
(PID.TID 0000.0001)  MDS_READ_FIELD: opening file: xx_salt.0000000000.001.001.data
(PID.TID 0000.0001)  MDS_READ_FIELD: opening file: xx_salt.0000000000.002.001.data
(PID.TID 0000.0001)  MDS_READ_FIELD: opening file: xx_salt.0000000000.003.001.data
(PID.TID 0000.0001)  MDS_READ_FIELD: opening file: xx_salt.0000000000.004.001.data
(PID.TID 0000.0001)  MDS_READ_FIELD: opening file: xx_salt.0000000000.005.001.data
(PID.TID 0000.0001)  MDS_READ_FIELD: opening file: xx_salt.0000000000.006.001.data
(PID.TID 0000.0001)  MDS_READ_FIELD: opening file: xx_diffkr.0000000000.001.001.data
(PID.TID 0000.0001)  MDS_READ_FIELD: opening file: xx_diffkr.0000000000.002.001.data
(PID.TID 0000.0001)  MDS_READ_FIELD: opening file: xx_diffkr.0000000000.003.001.data
(PID.TID 0000.0001)  MDS_READ_FIELD: opening file: xx_diffkr.0000000000.004.001.data
(PID.TID 0000.0001)  MDS_READ_FIELD: opening file: xx_diffkr.0000000000.005.001.data
(PID.TID 0000.0001)  MDS_READ_FIELD: opening file: xx_diffkr.0000000000.006.001.data
(PID.TID 0000.0001) // =======================================================
(PID.TID 0000.0001) // Begin MONITOR dynamic field statistics
(PID.TID 0000.0001) // =======================================================
(PID.TID 0000.0001) %MON time_tsnumber                =                 72000
(PID.TID 0000.0001) %MON time_secondsf                =   6.2208000000000E+09
(PID.TID 0000.0001) %MON dynstat_eta_max              =   9.2249308874653E-01
(PID.TID 0000.0001) %MON dynstat_eta_min              =  -1.6181619580030E+00
(PID.TID 0000.0001) %MON dynstat_eta_mean             =   1.4427566214562E-14
(PID.TID 0000.0001) %MON dynstat_eta_sd               =   5.9907976973986E-01
(PID.TID 0000.0001) %MON dynstat_eta_del2             =   1.1252664732722E-02
(PID.TID 0000.0001) %MON dynstat_uvel_max             =   1.8639442347386E-01
(PID.TID 0000.0001) %MON dynstat_uvel_min             =  -2.8803502100767E-01
(PID.TID 0000.0001) %MON dynstat_uvel_mean            =  -4.8903388680748E-04
(PID.TID 0000.0001) %MON dynstat_uvel_sd              =   1.2021590711450E-02
(PID.TID 0000.0001) %MON dynstat_uvel_del2            =   1.5675476577319E-03
(PID.TID 0000.0001) %MON dynstat_vvel_max             =   1.7346247050018E-01
(PID.TID 0000.0001) %MON dynstat_vvel_min             =  -2.2519444280963E-01
(PID.TID 0000.0001) %MON dynstat_vvel_mean            =  -4.0382876392900E-04
(PID.TID 0000.0001) %MON dynstat_vvel_sd              =   1.2638279102880E-02
(PID.TID 0000.0001) %MON dynstat_vvel_del2            =   1.5945023955724E-03
(PID.TID 0000.0001) %MON dynstat_wvel_max             =   1.0318718393244E-04
(PID.TID 0000.0001) %MON dynstat_wvel_min             =  -2.0420736500850E-04
(PID.TID 0000.0001) %MON dynstat_wvel_mean            =  -2.6689343104021E-22
(PID.TID 0000.0001) %MON dynstat_wvel_sd              =   3.8381177925063E-06
(PID.TID 0000.0001) %MON dynstat_wvel_del2            =   8.3920091540915E-07
(PID.TID 0000.0001) %MON dynstat_theta_max            =   3.0925958904704E+01
(PID.TID 0000.0001) %MON dynstat_theta_min            =  -2.0000000000000E+00
(PID.TID 0000.0001) %MON dynstat_theta_mean           =   3.9089039038798E+00
(PID.TID 0000.0001) %MON dynstat_theta_sd             =   4.5708533424413E+00
(PID.TID 0000.0001) %MON dynstat_theta_del2           =   8.7675206489062E-02
(PID.TID 0000.0001) %MON dynstat_salt_max             =   4.1386265990462E+01
(PID.TID 0000.0001) %MON dynstat_salt_min             =   1.8383410676806E+01
(PID.TID 0000.0001) %MON dynstat_salt_mean            =   3.4772067306802E+01
(PID.TID 0000.0001) %MON dynstat_salt_sd              =   5.3152106676595E-01
(PID.TID 0000.0001) %MON dynstat_salt_del2            =   1.8670410580355E-02
(PID.TID 0000.0001) %MON extforcing_qnet_max          =   4.6211611868841E+02
(PID.TID 0000.0001) %MON extforcing_qnet_min          =  -2.0410376912710E+02
(PID.TID 0000.0001) %MON extforcing_qnet_mean         =  -1.2329247921290E+01
(PID.TID 0000.0001) %MON extforcing_qnet_sd           =   1.1327998988989E+02
(PID.TID 0000.0001) %MON extforcing_qnet_del2         =   5.3775063971043E+00
(PID.TID 0000.0001) %MON extforcing_qsw_max           =   0.0000000000000E+00
(PID.TID 0000.0001) %MON extforcing_qsw_min           =   0.0000000000000E+00
(PID.TID 0000.0001) %MON extforcing_qsw_mean          =   0.0000000000000E+00
(PID.TID 0000.0001) %MON extforcing_qsw_sd            =   0.0000000000000E+00
(PID.TID 0000.0001) %MON extforcing_qsw_del2          =   0.0000000000000E+00
(PID.TID 0000.0001) %MON extforcing_empmr_max         =   7.6494447208479E-05
(PID.TID 0000.0001) %MON extforcing_empmr_min         =  -1.5362614137596E-04
(PID.TID 0000.0001) %MON extforcing_empmr_mean        =   4.1932798010144E-22
(PID.TID 0000.0001) %MON extforcing_empmr_sd          =   2.4051723601802E-05
(PID.TID 0000.0001) %MON extforcing_empmr_del2        =   1.2835223797615E-06
(PID.TID 0000.0001) %MON advcfl_uvel_max              =   8.1692195603793E-02
(PID.TID 0000.0001) %MON advcfl_vvel_max              =   7.5609847114589E-02
(PID.TID 0000.0001) %MON advcfl_wvel_max              =   6.6579306931072E-02
(PID.TID 0000.0001) %MON advcfl_W_hf_max              =   7.3514651403059E-02
(PID.TID 0000.0001) %MON pe_b_mean                    =   4.7811655460464E-04
(PID.TID 0000.0001) %MON ke_max                       =   4.0700605717495E-02
(PID.TID 0000.0001) %MON ke_mean                      =   1.4067955783282E-04
(PID.TID 0000.0001) %MON ke_vol                       =   1.3398024453628E+18
(PID.TID 0000.0001) %MON vort_r_min                   =  -1.1843904755479E-06
(PID.TID 0000.0001) %MON vort_r_max                   =   1.2148454936551E-06
(PID.TID 0000.0001) %MON vort_a_mean                  =  -2.0493733748264E-05
(PID.TID 0000.0001) %MON vort_a_sd                    =   7.5053947910691E-05
(PID.TID 0000.0001) %MON vort_p_mean                  =  -2.4715826612701E-05
(PID.TID 0000.0001) %MON vort_p_sd                    =   1.2775671598912E-04
(PID.TID 0000.0001) %MON surfExpan_theta_mean         =   3.7930044391615E-08
(PID.TID 0000.0001) %MON surfExpan_salt_mean          =   1.4579525088720E-08
(PID.TID 0000.0001) // =======================================================
(PID.TID 0000.0001) // End MONITOR dynamic field statistics
(PID.TID 0000.0001) // =======================================================
S/R EXTERNAL_FIELDS_LOAD: Reading new data:   12    1     72000  6.220800000000E+09
(PID.TID 0000.0001)  MDS_READ_FIELD: opening global file: trenberth_taux.bin
(PID.TID 0000.0001)  MDS_READ_FIELD: opening global file: trenberth_taux.bin
(PID.TID 0000.0001)  MDS_READ_FIELD: opening global file: trenberth_tauy.bin
(PID.TID 0000.0001)  MDS_READ_FIELD: opening global file: trenberth_tauy.bin
(PID.TID 0000.0001)  MDS_READ_FIELD: opening global file: shiQnet_cs32.bin
(PID.TID 0000.0001)  MDS_READ_FIELD: opening global file: shiQnet_cs32.bin
(PID.TID 0000.0001)  MDS_READ_FIELD: opening global file: shiEmPR_cs32.bin
(PID.TID 0000.0001)  MDS_READ_FIELD: opening global file: shiEmPR_cs32.bin
(PID.TID 0000.0001)  MDS_READ_FIELD: opening global file: lev_surfT_cs_12m.bin
(PID.TID 0000.0001)  MDS_READ_FIELD: opening global file: lev_surfT_cs_12m.bin
(PID.TID 0000.0001)  MDS_READ_FIELD: opening global file: lev_surfS_cs_12m.bin
(PID.TID 0000.0001)  MDS_READ_FIELD: opening global file: lev_surfS_cs_12m.bin
(PID.TID 0000.0001)  MDS_READ_FIELD: opening file: xx_tauu.0000000000.001.001.data
(PID.TID 0000.0001)  MDS_READ_FIELD: opening file: xx_tauu.0000000000.002.001.data
(PID.TID 0000.0001)  MDS_READ_FIELD: opening file: xx_tauu.0000000000.003.001.data
(PID.TID 0000.0001)  MDS_READ_FIELD: opening file: xx_tauu.0000000000.004.001.data
(PID.TID 0000.0001)  MDS_READ_FIELD: opening file: xx_tauu.0000000000.005.001.data
(PID.TID 0000.0001)  MDS_READ_FIELD: opening file: xx_tauu.0000000000.006.001.data
(PID.TID 0000.0001)  MDS_READ_FIELD: opening file: xx_tauv.0000000000.001.001.data
(PID.TID 0000.0001)  MDS_READ_FIELD: opening file: xx_tauv.0000000000.002.001.data
(PID.TID 0000.0001)  MDS_READ_FIELD: opening file: xx_tauv.0000000000.003.001.data
(PID.TID 0000.0001)  MDS_READ_FIELD: opening file: xx_tauv.0000000000.004.001.data
(PID.TID 0000.0001)  MDS_READ_FIELD: opening file: xx_tauv.0000000000.005.001.data
(PID.TID 0000.0001)  MDS_READ_FIELD: opening file: xx_tauv.0000000000.006.001.data
(PID.TID 0000.0001)  MDS_READ_FIELD: opening file: xx_sfl.0000000000.001.001.data
(PID.TID 0000.0001)  MDS_READ_FIELD: opening file: xx_sfl.0000000000.002.001.data
(PID.TID 0000.0001)  MDS_READ_FIELD: opening file: xx_sfl.0000000000.003.001.data
(PID.TID 0000.0001)  MDS_READ_FIELD: opening file: xx_sfl.0000000000.004.001.data
(PID.TID 0000.0001)  MDS_READ_FIELD: opening file: xx_sfl.0000000000.005.001.data
(PID.TID 0000.0001)  MDS_READ_FIELD: opening file: xx_sfl.0000000000.006.001.data
(PID.TID 0000.0001)  MDS_READ_FIELD: opening file: xx_hfl.0000000000.001.001.data
(PID.TID 0000.0001)  MDS_READ_FIELD: opening file: xx_hfl.0000000000.002.001.data
(PID.TID 0000.0001)  MDS_READ_FIELD: opening file: xx_hfl.0000000000.003.001.data
(PID.TID 0000.0001)  MDS_READ_FIELD: opening file: xx_hfl.0000000000.004.001.data
(PID.TID 0000.0001)  MDS_READ_FIELD: opening file: xx_hfl.0000000000.005.001.data
(PID.TID 0000.0001)  MDS_READ_FIELD: opening file: xx_hfl.0000000000.006.001.data
 cg2d: Sum(rhs),rhsMax =  -9.60653778747655E-12  4.28505602916984E+00
(PID.TID 0000.0001)                    cg2d_init_res =    2.33716292339255E-01
(PID.TID 0000.0001)                       cg2d_iters =    64
(PID.TID 0000.0001)                         cg2d_res =    5.38761467494275E-07
(PID.TID 0000.0001) // =======================================================
(PID.TID 0000.0001) // Begin MONITOR dynamic field statistics
(PID.TID 0000.0001) // =======================================================
(PID.TID 0000.0001) %MON time_tsnumber                =                 72001
(PID.TID 0000.0001) %MON time_secondsf                =   6.2208864000000E+09
(PID.TID 0000.0001) %MON dynstat_eta_max              =   9.1984235012816E-01
(PID.TID 0000.0001) %MON dynstat_eta_min              =  -1.6166716522137E+00
(PID.TID 0000.0001) %MON dynstat_eta_mean             =   6.2615110009304E-09
(PID.TID 0000.0001) %MON dynstat_eta_sd               =   5.9878716103702E-01
(PID.TID 0000.0001) %MON dynstat_eta_del2             =   1.1225189667312E-02
(PID.TID 0000.0001) %MON dynstat_uvel_max             =   1.8672809290747E-01
(PID.TID 0000.0001) %MON dynstat_uvel_min             =  -2.8776809803202E-01
(PID.TID 0000.0001) %MON dynstat_uvel_mean            =  -4.8865458678062E-04
(PID.TID 0000.0001) %MON dynstat_uvel_sd              =   1.2021409389457E-02
(PID.TID 0000.0001) %MON dynstat_uvel_del2            =   1.5674573046285E-03
(PID.TID 0000.0001) %MON dynstat_vvel_max             =   1.7374563313680E-01
(PID.TID 0000.0001) %MON dynstat_vvel_min             =  -2.2517793279469E-01
(PID.TID 0000.0001) %MON dynstat_vvel_mean            =  -4.0463218595849E-04
(PID.TID 0000.0001) %MON dynstat_vvel_sd              =   1.2640883236150E-02
(PID.TID 0000.0001) %MON dynstat_vvel_del2            =   1.5938807841618E-03
(PID.TID 0000.0001) %MON dynstat_wvel_max             =   1.0328920721691E-04
(PID.TID 0000.0001) %MON dynstat_wvel_min             =  -2.0451038298667E-04
(PID.TID 0000.0001) %MON dynstat_wvel_mean            =   2.3208124438279E-23
(PID.TID 0000.0001) %MON dynstat_wvel_sd              =   3.8358216833384E-06
(PID.TID 0000.0001) %MON dynstat_wvel_del2            =   8.3879114008513E-07
(PID.TID 0000.0001) %MON dynstat_theta_max            =   3.0937502791370E+01
(PID.TID 0000.0001) %MON dynstat_theta_min            =  -2.0035996860778E+00
(PID.TID 0000.0001) %MON dynstat_theta_mean           =   3.9089626281593E+00
(PID.TID 0000.0001) %MON dynstat_theta_sd             =   4.5708107163214E+00
(PID.TID 0000.0001) %MON dynstat_theta_del2           =   8.7287199233384E-02
(PID.TID 0000.0001) %MON dynstat_salt_max             =   4.1386320827085E+01
(PID.TID 0000.0001) %MON dynstat_salt_min             =   1.8383868562724E+01
(PID.TID 0000.0001) %MON dynstat_salt_mean            =   3.4772067520291E+01
(PID.TID 0000.0001) %MON dynstat_salt_sd              =   5.3150434521672E-01
(PID.TID 0000.0001) %MON dynstat_salt_del2            =   1.8574059661203E-02
(PID.TID 0000.0001) %MON extforcing_qnet_max          =   4.5344826813507E+02
(PID.TID 0000.0001) %MON extforcing_qnet_min          =  -2.1502574251756E+02
(PID.TID 0000.0001) %MON extforcing_qnet_mean         =  -1.2145822391644E+01
(PID.TID 0000.0001) %MON extforcing_qnet_sd           =   1.1565376981455E+02
(PID.TID 0000.0001) %MON extforcing_qnet_del2         =   5.1057787979107E+00
(PID.TID 0000.0001) %MON extforcing_qsw_max           =   0.0000000000000E+00
(PID.TID 0000.0001) %MON extforcing_qsw_min           =   0.0000000000000E+00
(PID.TID 0000.0001) %MON extforcing_qsw_mean          =   0.0000000000000E+00
(PID.TID 0000.0001) %MON extforcing_qsw_sd            =   0.0000000000000E+00
(PID.TID 0000.0001) %MON extforcing_qsw_del2          =   0.0000000000000E+00
(PID.TID 0000.0001) %MON extforcing_empmr_max         =   7.6494447208479E-05
(PID.TID 0000.0001) %MON extforcing_empmr_min         =  -1.5362614137596E-04
(PID.TID 0000.0001) %MON extforcing_empmr_mean        =   4.1932798010144E-22
(PID.TID 0000.0001) %MON extforcing_empmr_sd          =   2.4051723601802E-05
(PID.TID 0000.0001) %MON extforcing_empmr_del2        =   1.2835223797615E-06
(PID.TID 0000.0001) %MON advcfl_uvel_max              =   8.1616491184722E-02
(PID.TID 0000.0001) %MON advcfl_vvel_max              =   7.5733273718637E-02
(PID.TID 0000.0001) %MON advcfl_wvel_max              =   6.6678102226596E-02
(PID.TID 0000.0001) %MON advcfl_W_hf_max              =   7.3623737875200E-02
(PID.TID 0000.0001) %MON pe_b_mean                    =   4.7764961545577E-04
(PID.TID 0000.0001) %MON ke_max                       =   4.0598951771932E-02
(PID.TID 0000.0001) %MON ke_mean                      =   1.4070821797253E-04
(PID.TID 0000.0001) %MON ke_vol                       =   1.3398024453628E+18
(PID.TID 0000.0001) %MON vort_r_min                   =  -1.1881719216033E-06
(PID.TID 0000.0001) %MON vort_r_max                   =   1.2160275475542E-06
(PID.TID 0000.0001) %MON vort_a_mean                  =  -2.0493733748264E-05
(PID.TID 0000.0001) %MON vort_a_sd                    =   7.5053947689168E-05
(PID.TID 0000.0001) %MON vort_p_mean                  =  -2.4715826612701E-05
(PID.TID 0000.0001) %MON vort_p_sd                    =   1.2775671432651E-04
(PID.TID 0000.0001) %MON surfExpan_theta_mean         =  -6.7497145918390E-09
(PID.TID 0000.0001) %MON surfExpan_salt_mean          =   6.3468624398895E-09
(PID.TID 0000.0001) // =======================================================
(PID.TID 0000.0001) // End MONITOR dynamic field statistics
(PID.TID 0000.0001) // =======================================================
 cg2d: Sum(rhs),rhsMax =  -4.20986370386345E-06  4.27911284982484E+00
(PID.TID 0000.0001)                    cg2d_init_res =    2.02386167386311E-01
(PID.TID 0000.0001)                       cg2d_iters =    63
(PID.TID 0000.0001)                         cg2d_res =    5.51456736124144E-07
(PID.TID 0000.0001) // =======================================================
(PID.TID 0000.0001) // Begin MONITOR dynamic field statistics
(PID.TID 0000.0001) // =======================================================
(PID.TID 0000.0001) %MON time_tsnumber                =                 72002
(PID.TID 0000.0001) %MON time_secondsf                =   6.2209728000000E+09
(PID.TID 0000.0001) %MON dynstat_eta_max              =   9.1691816217625E-01
(PID.TID 0000.0001) %MON dynstat_eta_min              =  -1.6147982270147E+00
(PID.TID 0000.0001) %MON dynstat_eta_mean             =   1.2076088180876E-08
(PID.TID 0000.0001) %MON dynstat_eta_sd               =   5.9828629645762E-01
(PID.TID 0000.0001) %MON dynstat_eta_del2             =   1.1202620250535E-02
(PID.TID 0000.0001) %MON dynstat_uvel_max             =   1.8703762979843E-01
(PID.TID 0000.0001) %MON dynstat_uvel_min             =  -2.8746383362512E-01
(PID.TID 0000.0001) %MON dynstat_uvel_mean            =  -4.8816332170005E-04
(PID.TID 0000.0001) %MON dynstat_uvel_sd              =   1.2022062884557E-02
(PID.TID 0000.0001) %MON dynstat_uvel_del2            =   1.5674495249463E-03
(PID.TID 0000.0001) %MON dynstat_vvel_max             =   1.7400811701243E-01
(PID.TID 0000.0001) %MON dynstat_vvel_min             =  -2.2515152087278E-01
(PID.TID 0000.0001) %MON dynstat_vvel_mean            =  -4.0590984411957E-04
(PID.TID 0000.0001) %MON dynstat_vvel_sd              =   1.2644695718087E-02
(PID.TID 0000.0001) %MON dynstat_vvel_del2            =   1.5931959963076E-03
(PID.TID 0000.0001) %MON dynstat_wvel_max             =   1.0351786459997E-04
(PID.TID 0000.0001) %MON dynstat_wvel_min             =  -2.0483840730742E-04
(PID.TID 0000.0001) %MON dynstat_wvel_mean            =  -6.3822342205267E-23
(PID.TID 0000.0001) %MON dynstat_wvel_sd              =   3.8340849919339E-06
(PID.TID 0000.0001) %MON dynstat_wvel_del2            =   8.4094457946911E-07
(PID.TID 0000.0001) %MON dynstat_theta_max            =   3.0948591075515E+01
(PID.TID 0000.0001) %MON dynstat_theta_min            =  -2.0075056711604E+00
(PID.TID 0000.0001) %MON dynstat_theta_mean           =   3.9090220617547E+00
(PID.TID 0000.0001) %MON dynstat_theta_sd             =   4.5707766175792E+00
(PID.TID 0000.0001) %MON dynstat_theta_del2           =   8.7002566798190E-02
(PID.TID 0000.0001) %MON dynstat_salt_max             =   4.1386366114100E+01
(PID.TID 0000.0001) %MON dynstat_salt_min             =   1.8384332203612E+01
(PID.TID 0000.0001) %MON dynstat_salt_mean            =   3.4772067847224E+01
(PID.TID 0000.0001) %MON dynstat_salt_sd              =   5.3148669567010E-01
(PID.TID 0000.0001) %MON dynstat_salt_del2            =   1.8496108819382E-02
(PID.TID 0000.0001) %MON extforcing_qnet_max          =   4.5335380716717E+02
(PID.TID 0000.0001) %MON extforcing_qnet_min          =  -2.1405338853096E+02
(PID.TID 0000.0001) %MON extforcing_qnet_mean         =  -1.2158050760287E+01
(PID.TID 0000.0001) %MON extforcing_qnet_sd           =   1.1544877109799E+02
(PID.TID 0000.0001) %MON extforcing_qnet_del2         =   5.1115713537206E+00
(PID.TID 0000.0001) %MON extforcing_qsw_max           =   0.0000000000000E+00
(PID.TID 0000.0001) %MON extforcing_qsw_min           =   0.0000000000000E+00
(PID.TID 0000.0001) %MON extforcing_qsw_mean          =   0.0000000000000E+00
(PID.TID 0000.0001) %MON extforcing_qsw_sd            =   0.0000000000000E+00
(PID.TID 0000.0001) %MON extforcing_qsw_del2          =   0.0000000000000E+00
(PID.TID 0000.0001) %MON extforcing_empmr_max         =   7.6494447208479E-05
(PID.TID 0000.0001) %MON extforcing_empmr_min         =  -1.5362614137596E-04
(PID.TID 0000.0001) %MON extforcing_empmr_mean        =   4.1932798010144E-22
(PID.TID 0000.0001) %MON extforcing_empmr_sd          =   2.4051723601802E-05
(PID.TID 0000.0001) %MON extforcing_empmr_del2        =   1.2835223797615E-06
(PID.TID 0000.0001) %MON advcfl_uvel_max              =   8.1530196027428E-02
(PID.TID 0000.0001) %MON advcfl_vvel_max              =   7.5847686742093E-02
(PID.TID 0000.0001) %MON advcfl_wvel_max              =   6.6785050533438E-02
(PID.TID 0000.0001) %MON advcfl_W_hf_max              =   7.3741826630671E-02
(PID.TID 0000.0001) %MON pe_b_mean                    =   4.7685087516112E-04
(PID.TID 0000.0001) %MON ke_max                       =   4.0491605567478E-02
(PID.TID 0000.0001) %MON ke_mean                      =   1.4076041272021E-04
(PID.TID 0000.0001) %MON ke_vol                       =   1.3398024453628E+18
(PID.TID 0000.0001) %MON vort_r_min                   =  -1.1923255140679E-06
(PID.TID 0000.0001) %MON vort_r_max                   =   1.2175863298017E-06
(PID.TID 0000.0001) %MON vort_a_mean                  =  -2.0493733748264E-05
(PID.TID 0000.0001) %MON vort_a_sd                    =   7.5053947464275E-05
(PID.TID 0000.0001) %MON vort_p_mean                  =  -2.4715826612701E-05
(PID.TID 0000.0001) %MON vort_p_sd                    =   1.2775671434225E-04
(PID.TID 0000.0001) %MON surfExpan_theta_mean         =  -3.1461962814341E-08
(PID.TID 0000.0001) %MON surfExpan_salt_mean          =   2.1477546658001E-09
(PID.TID 0000.0001) // =======================================================
(PID.TID 0000.0001) // End MONITOR dynamic field statistics
(PID.TID 0000.0001) // =======================================================
 cg2d: Sum(rhs),rhsMax =  -8.11923538890369E-06  4.27329379391091E+00
(PID.TID 0000.0001)                    cg2d_init_res =    2.03314481792743E-01
(PID.TID 0000.0001)                       cg2d_iters =    64
(PID.TID 0000.0001)                         cg2d_res =    4.99744980496447E-07
(PID.TID 0000.0001) // =======================================================
(PID.TID 0000.0001) // Begin MONITOR dynamic field statistics
(PID.TID 0000.0001) // =======================================================
(PID.TID 0000.0001) %MON time_tsnumber                =                 72003
(PID.TID 0000.0001) %MON time_secondsf                =   6.2210592000000E+09
(PID.TID 0000.0001) %MON dynstat_eta_max              =   9.1435623565656E-01
(PID.TID 0000.0001) %MON dynstat_eta_min              =  -1.6133451396720E+00
(PID.TID 0000.0001) %MON dynstat_eta_mean             =   1.7665852385884E-08
(PID.TID 0000.0001) %MON dynstat_eta_sd               =   5.9778359553199E-01
(PID.TID 0000.0001) %MON dynstat_eta_del2             =   1.1186032765368E-02
(PID.TID 0000.0001) %MON dynstat_uvel_max             =   1.8730893661627E-01
(PID.TID 0000.0001) %MON dynstat_uvel_min             =  -2.8712592153168E-01
(PID.TID 0000.0001) %MON dynstat_uvel_mean            =  -4.8769746917720E-04
(PID.TID 0000.0001) %MON dynstat_uvel_sd              =   1.2023124267881E-02
(PID.TID 0000.0001) %MON dynstat_uvel_del2            =   1.5674944345738E-03
(PID.TID 0000.0001) %MON dynstat_vvel_max             =   1.7423797947557E-01
(PID.TID 0000.0001) %MON dynstat_vvel_min             =  -2.2511514461100E-01
(PID.TID 0000.0001) %MON dynstat_vvel_mean            =  -4.0723287322334E-04
(PID.TID 0000.0001) %MON dynstat_vvel_sd              =   1.2649033016161E-02
(PID.TID 0000.0001) %MON dynstat_vvel_del2            =   1.5925365932319E-03
(PID.TID 0000.0001) %MON dynstat_wvel_max             =   1.0381674701808E-04
(PID.TID 0000.0001) %MON dynstat_wvel_min             =  -2.0508978700313E-04
(PID.TID 0000.0001) %MON dynstat_wvel_mean            =  -1.4795179329403E-22
(PID.TID 0000.0001) %MON dynstat_wvel_sd              =   3.8330057030959E-06
(PID.TID 0000.0001) %MON dynstat_wvel_del2            =   8.4440915289632E-07
(PID.TID 0000.0001) %MON dynstat_theta_max            =   3.0959197958473E+01
(PID.TID 0000.0001) %MON dynstat_theta_min            =  -2.0117133723722E+00
(PID.TID 0000.0001) %MON dynstat_theta_mean           =   3.9090818235625E+00
(PID.TID 0000.0001) %MON dynstat_theta_sd             =   4.5707503599583E+00
(PID.TID 0000.0001) %MON dynstat_theta_del2           =   8.6703707423862E-02
(PID.TID 0000.0001) %MON dynstat_salt_max             =   4.1386408920125E+01
(PID.TID 0000.0001) %MON dynstat_salt_min             =   1.8384801689351E+01
(PID.TID 0000.0001) %MON dynstat_salt_mean            =   3.4772068217313E+01
(PID.TID 0000.0001) %MON dynstat_salt_sd              =   5.3146837614914E-01
(PID.TID 0000.0001) %MON dynstat_salt_del2            =   1.8426042385497E-02
(PID.TID 0000.0001) %MON extforcing_qnet_max          =   4.5325934619927E+02
(PID.TID 0000.0001) %MON extforcing_qnet_min          =  -2.1308103454435E+02
(PID.TID 0000.0001) %MON extforcing_qnet_mean         =  -1.2170279128930E+01
(PID.TID 0000.0001) %MON extforcing_qnet_sd           =   1.1525031618572E+02
(PID.TID 0000.0001) %MON extforcing_qnet_del2         =   5.1194495540515E+00
(PID.TID 0000.0001) %MON extforcing_qsw_max           =   0.0000000000000E+00
(PID.TID 0000.0001) %MON extforcing_qsw_min           =   0.0000000000000E+00
(PID.TID 0000.0001) %MON extforcing_qsw_mean          =   0.0000000000000E+00
(PID.TID 0000.0001) %MON extforcing_qsw_sd            =   0.0000000000000E+00
(PID.TID 0000.0001) %MON extforcing_qsw_del2          =   0.0000000000000E+00
(PID.TID 0000.0001) %MON extforcing_empmr_max         =   7.6494447208479E-05
(PID.TID 0000.0001) %MON extforcing_empmr_min         =  -1.5362614137596E-04
(PID.TID 0000.0001) %MON extforcing_empmr_mean        =   4.1932798010144E-22
(PID.TID 0000.0001) %MON extforcing_empmr_sd          =   2.4051723601802E-05
(PID.TID 0000.0001) %MON extforcing_empmr_del2        =   1.2835223797615E-06
(PID.TID 0000.0001) %MON advcfl_uvel_max              =   8.1434357747981E-02
(PID.TID 0000.0001) %MON advcfl_vvel_max              =   7.5947880551425E-02
(PID.TID 0000.0001) %MON advcfl_wvel_max              =   6.6867009800264E-02
(PID.TID 0000.0001) %MON advcfl_W_hf_max              =   7.3832323321125E-02
(PID.TID 0000.0001) %MON pe_b_mean                    =   4.7604987848112E-04
(PID.TID 0000.0001) %MON ke_max                       =   4.0379135771324E-02
(PID.TID 0000.0001) %MON ke_mean                      =   1.4082331884280E-04
(PID.TID 0000.0001) %MON ke_vol                       =   1.3398024453628E+18
(PID.TID 0000.0001) %MON vort_r_min                   =  -1.1967636110855E-06
(PID.TID 0000.0001) %MON vort_r_max                   =   1.2196546932973E-06
(PID.TID 0000.0001) %MON vort_a_mean                  =  -2.0493733748264E-05
(PID.TID 0000.0001) %MON vort_a_sd                    =   7.5053947247238E-05
(PID.TID 0000.0001) %MON vort_p_mean                  =  -2.4715826612701E-05
(PID.TID 0000.0001) %MON vort_p_sd                    =   1.2775671531875E-04
(PID.TID 0000.0001) %MON surfExpan_theta_mean         =  -3.7871789888908E-08
(PID.TID 0000.0001) %MON surfExpan_salt_mean          =   8.7768267240938E-10
(PID.TID 0000.0001) // =======================================================
(PID.TID 0000.0001) // End MONITOR dynamic field statistics
(PID.TID 0000.0001) // =======================================================
 cg2d: Sum(rhs),rhsMax =  -1.18774561315149E-05  4.26739301203686E+00
(PID.TID 0000.0001)                    cg2d_init_res =    2.00695093692672E-01
(PID.TID 0000.0001)                       cg2d_iters =    64
(PID.TID 0000.0001)                         cg2d_res =    5.22399237294668E-07
(PID.TID 0000.0001) // =======================================================
(PID.TID 0000.0001) // Begin MONITOR dynamic field statistics
(PID.TID 0000.0001) // =======================================================
(PID.TID 0000.0001) %MON time_tsnumber                =                 72004
(PID.TID 0000.0001) %MON time_secondsf                =   6.2211456000000E+09
(PID.TID 0000.0001) %MON dynstat_eta_max              =   9.1217298970685E-01
(PID.TID 0000.0001) %MON dynstat_eta_min              =  -1.6124065827246E+00
(PID.TID 0000.0001) %MON dynstat_eta_mean             =   2.2704195367425E-08
(PID.TID 0000.0001) %MON dynstat_eta_sd               =   5.9736618129995E-01
(PID.TID 0000.0001) %MON dynstat_eta_del2             =   1.1171918081248E-02
(PID.TID 0000.0001) %MON dynstat_uvel_max             =   1.8753647304661E-01
(PID.TID 0000.0001) %MON dynstat_uvel_min             =  -2.8676062439677E-01
(PID.TID 0000.0001) %MON dynstat_uvel_mean            =  -4.8742209530886E-04
(PID.TID 0000.0001) %MON dynstat_uvel_sd              =   1.2024557987799E-02
(PID.TID 0000.0001) %MON dynstat_uvel_del2            =   1.5675255467244E-03
(PID.TID 0000.0001) %MON dynstat_vvel_max             =   1.7443205272775E-01
(PID.TID 0000.0001) %MON dynstat_vvel_min             =  -2.2506956570904E-01
(PID.TID 0000.0001) %MON dynstat_vvel_mean            =  -4.0833572644721E-04
(PID.TID 0000.0001) %MON dynstat_vvel_sd              =   1.2653776944278E-02
(PID.TID 0000.0001) %MON dynstat_vvel_del2            =   1.5919416220967E-03
(PID.TID 0000.0001) %MON dynstat_wvel_max             =   1.0418866855270E-04
(PID.TID 0000.0001) %MON dynstat_wvel_min             =  -2.0528316612911E-04
(PID.TID 0000.0001) %MON dynstat_wvel_mean            =  -2.6109139993064E-23
(PID.TID 0000.0001) %MON dynstat_wvel_sd              =   3.8325596957516E-06
(PID.TID 0000.0001) %MON dynstat_wvel_del2            =   8.4840065990839E-07
(PID.TID 0000.0001) %MON dynstat_theta_max            =   3.0969325844380E+01
(PID.TID 0000.0001) %MON dynstat_theta_min            =  -2.0161880349874E+00
(PID.TID 0000.0001) %MON dynstat_theta_mean           =   3.9091418443232E+00
(PID.TID 0000.0001) %MON dynstat_theta_sd             =   4.5707312246730E+00
(PID.TID 0000.0001) %MON dynstat_theta_del2           =   8.6483194458655E-02
(PID.TID 0000.0001) %MON dynstat_salt_max             =   4.1386453380611E+01
(PID.TID 0000.0001) %MON dynstat_salt_min             =   1.8385276975479E+01
(PID.TID 0000.0001) %MON dynstat_salt_mean            =   3.4772068608803E+01
(PID.TID 0000.0001) %MON dynstat_salt_sd              =   5.3144990592916E-01
(PID.TID 0000.0001) %MON dynstat_salt_del2            =   1.8375534059574E-02
(PID.TID 0000.0001) %MON extforcing_qnet_max          =   4.5316488523137E+02
(PID.TID 0000.0001) %MON extforcing_qnet_min          =  -2.1210868055774E+02
(PID.TID 0000.0001) %MON extforcing_qnet_mean         =  -1.2182507497573E+01
(PID.TID 0000.0001) %MON extforcing_qnet_sd           =   1.1505843893838E+02
(PID.TID 0000.0001) %MON extforcing_qnet_del2         =   5.1293808993812E+00
(PID.TID 0000.0001) %MON extforcing_qsw_max           =   0.0000000000000E+00
(PID.TID 0000.0001) %MON extforcing_qsw_min           =   0.0000000000000E+00
(PID.TID 0000.0001) %MON extforcing_qsw_mean          =   0.0000000000000E+00
(PID.TID 0000.0001) %MON extforcing_qsw_sd            =   0.0000000000000E+00
(PID.TID 0000.0001) %MON extforcing_qsw_del2          =   0.0000000000000E+00
(PID.TID 0000.0001) %MON extforcing_empmr_max         =   7.6494447208479E-05
(PID.TID 0000.0001) %MON extforcing_empmr_min         =  -1.5362614137596E-04
(PID.TID 0000.0001) %MON extforcing_empmr_mean        =   4.1932798010144E-22
(PID.TID 0000.0001) %MON extforcing_empmr_sd          =   2.4051723601802E-05
(PID.TID 0000.0001) %MON extforcing_empmr_del2        =   1.2835223797615E-06
(PID.TID 0000.0001) %MON advcfl_uvel_max              =   8.1330752551312E-02
(PID.TID 0000.0001) %MON advcfl_vvel_max              =   7.6032474347908E-02
(PID.TID 0000.0001) %MON advcfl_wvel_max              =   6.6930058692660E-02
(PID.TID 0000.0001) %MON advcfl_W_hf_max              =   7.3901939806479E-02
(PID.TID 0000.0001) %MON pe_b_mean                    =   4.7538528808643E-04
(PID.TID 0000.0001) %MON ke_max                       =   4.0262786547424E-02
(PID.TID 0000.0001) %MON ke_mean                      =   1.4089513669326E-04
(PID.TID 0000.0001) %MON ke_vol                       =   1.3398024453628E+18
(PID.TID 0000.0001) %MON vort_r_min                   =  -1.2014528745910E-06
(PID.TID 0000.0001) %MON vort_r_max                   =   1.2221369348200E-06
(PID.TID 0000.0001) %MON vort_a_mean                  =  -2.0493733748264E-05
(PID.TID 0000.0001) %MON vort_a_sd                    =   7.5053947068371E-05
(PID.TID 0000.0001) %MON vort_p_mean                  =  -2.4715826612701E-05
(PID.TID 0000.0001) %MON vort_p_sd                    =   1.2775671731935E-04
(PID.TID 0000.0001) %MON surfExpan_theta_mean         =  -3.3841403102173E-08
(PID.TID 0000.0001) %MON surfExpan_salt_mean          =   6.4535256577069E-10
(PID.TID 0000.0001) // =======================================================
(PID.TID 0000.0001) // End MONITOR dynamic field statistics
(PID.TID 0000.0001) // =======================================================
 cg2d: Sum(rhs),rhsMax =  -1.52649351150558E-05  4.26144702497578E+00
(PID.TID 0000.0001)                    cg2d_init_res =    2.07709557536587E-01
(PID.TID 0000.0001)                       cg2d_iters =    64
(PID.TID 0000.0001)                         cg2d_res =    5.20974559258372E-07
(PID.TID 0000.0001) // =======================================================
(PID.TID 0000.0001) // Begin MONITOR dynamic field statistics
(PID.TID 0000.0001) // =======================================================
(PID.TID 0000.0001) %MON time_tsnumber                =                 72005
(PID.TID 0000.0001) %MON time_secondsf                =   6.2212320000000E+09
(PID.TID 0000.0001) %MON dynstat_eta_max              =   9.1023002692627E-01
(PID.TID 0000.0001) %MON dynstat_eta_min              =  -1.6117922868952E+00
(PID.TID 0000.0001) %MON dynstat_eta_mean             =   2.6767379560739E-08
(PID.TID 0000.0001) %MON dynstat_eta_sd               =   5.9705071197636E-01
(PID.TID 0000.0001) %MON dynstat_eta_del2             =   1.1157625974562E-02
(PID.TID 0000.0001) %MON dynstat_uvel_max             =   1.8771626255579E-01
(PID.TID 0000.0001) %MON dynstat_uvel_min             =  -2.8637194129682E-01
(PID.TID 0000.0001) %MON dynstat_uvel_mean            =  -4.8739363372566E-04
(PID.TID 0000.0001) %MON dynstat_uvel_sd              =   1.2026346867086E-02
(PID.TID 0000.0001) %MON dynstat_uvel_del2            =   1.5675771448019E-03
(PID.TID 0000.0001) %MON dynstat_vvel_max             =   1.7458585964282E-01
(PID.TID 0000.0001) %MON dynstat_vvel_min             =  -2.2501526646227E-01
(PID.TID 0000.0001) %MON dynstat_vvel_mean            =  -4.0913090333722E-04
(PID.TID 0000.0001) %MON dynstat_vvel_sd              =   1.2658843681641E-02
(PID.TID 0000.0001) %MON dynstat_vvel_del2            =   1.5913650207973E-03
(PID.TID 0000.0001) %MON dynstat_wvel_max             =   1.0463166543943E-04
(PID.TID 0000.0001) %MON dynstat_wvel_min             =  -2.0541425041597E-04
(PID.TID 0000.0001) %MON dynstat_wvel_mean            =   1.8276397995145E-22
(PID.TID 0000.0001) %MON dynstat_wvel_sd              =   3.8324848534349E-06
(PID.TID 0000.0001) %MON dynstat_wvel_del2            =   8.5232037664838E-07
(PID.TID 0000.0001) %MON dynstat_theta_max            =   3.0978995148162E+01
(PID.TID 0000.0001) %MON dynstat_theta_min            =  -2.0209013931460E+00
(PID.TID 0000.0001) %MON dynstat_theta_mean           =   3.9092018832242E+00
(PID.TID 0000.0001) %MON dynstat_theta_sd             =   4.5707226163045E+00
(PID.TID 0000.0001) %MON dynstat_theta_del2           =   8.6199570261620E-02
(PID.TID 0000.0001) %MON dynstat_salt_max             =   4.1386500374765E+01
(PID.TID 0000.0001) %MON dynstat_salt_min             =   1.8385757959847E+01
(PID.TID 0000.0001) %MON dynstat_salt_mean            =   3.4772069016338E+01
(PID.TID 0000.0001) %MON dynstat_salt_sd              =   5.3143344029641E-01
(PID.TID 0000.0001) %MON dynstat_salt_del2            =   1.8295606835322E-02
(PID.TID 0000.0001) %MON extforcing_qnet_max          =   4.5307042426348E+02
(PID.TID 0000.0001) %MON extforcing_qnet_min          =  -2.1113632657113E+02
(PID.TID 0000.0001) %MON extforcing_qnet_mean         =  -1.2194735866216E+01
(PID.TID 0000.0001) %MON extforcing_qnet_sd           =   1.1487317231679E+02
(PID.TID 0000.0001) %MON extforcing_qnet_del2         =   5.1410592208337E+00
(PID.TID 0000.0001) %MON extforcing_qsw_max           =   0.0000000000000E+00
(PID.TID 0000.0001) %MON extforcing_qsw_min           =   0.0000000000000E+00
(PID.TID 0000.0001) %MON extforcing_qsw_mean          =   0.0000000000000E+00
(PID.TID 0000.0001) %MON extforcing_qsw_sd            =   0.0000000000000E+00
(PID.TID 0000.0001) %MON extforcing_qsw_del2          =   0.0000000000000E+00
(PID.TID 0000.0001) %MON extforcing_empmr_max         =   7.6494447208479E-05
(PID.TID 0000.0001) %MON extforcing_empmr_min         =  -1.5362614137596E-04
(PID.TID 0000.0001) %MON extforcing_empmr_mean        =   4.1932798010144E-22
(PID.TID 0000.0001) %MON extforcing_empmr_sd          =   2.4051723601802E-05
(PID.TID 0000.0001) %MON extforcing_empmr_del2        =   1.2835223797615E-06
(PID.TID 0000.0001) %MON advcfl_uvel_max              =   8.1220514651358E-02
(PID.TID 0000.0001) %MON advcfl_vvel_max              =   7.6099516615319E-02
(PID.TID 0000.0001) %MON advcfl_wvel_max              =   6.6972797116755E-02
(PID.TID 0000.0001) %MON advcfl_W_hf_max              =   7.3949130149750E-02
(PID.TID 0000.0001) %MON pe_b_mean                    =   4.7488331833823E-04
(PID.TID 0000.0001) %MON ke_max                       =   4.0143190607568E-02
(PID.TID 0000.0001) %MON ke_mean                      =   1.4097468984418E-04
(PID.TID 0000.0001) %MON ke_vol                       =   1.3398024453628E+18
(PID.TID 0000.0001) %MON vort_r_min                   =  -1.2063517805448E-06
(PID.TID 0000.0001) %MON vort_r_max                   =   1.2249370357222E-06
(PID.TID 0000.0001) %MON vort_a_mean                  =  -2.0493733748264E-05
(PID.TID 0000.0001) %MON vort_a_sd                    =   7.5053946942946E-05
(PID.TID 0000.0001) %MON vort_p_mean                  =  -2.4715826612701E-05
(PID.TID 0000.0001) %MON vort_p_sd                    =   1.2775672026088E-04
(PID.TID 0000.0001) %MON surfExpan_theta_mean         =  -2.6013830422495E-08
(PID.TID 0000.0001) %MON surfExpan_salt_mean          =   5.0197415022055E-10
(PID.TID 0000.0001) // =======================================================
(PID.TID 0000.0001) // End MONITOR dynamic field statistics
(PID.TID 0000.0001) // =======================================================
 cg2d: Sum(rhs),rhsMax =  -1.79967760232103E-05  4.25555457822616E+00
(PID.TID 0000.0001)                    cg2d_init_res =    1.86491686113195E-01
(PID.TID 0000.0001)                       cg2d_iters =    63
(PID.TID 0000.0001)                         cg2d_res =    5.67462582365576E-07
(PID.TID 0000.0001) // =======================================================
(PID.TID 0000.0001) // Begin MONITOR dynamic field statistics
(PID.TID 0000.0001) // =======================================================
(PID.TID 0000.0001) %MON time_tsnumber                =                 72006
(PID.TID 0000.0001) %MON time_secondsf                =   6.2213184000000E+09
(PID.TID 0000.0001) %MON dynstat_eta_max              =   9.0845045288869E-01
(PID.TID 0000.0001) %MON dynstat_eta_min              =  -1.6113279348471E+00
(PID.TID 0000.0001) %MON dynstat_eta_mean             =   3.0938618832591E-08
(PID.TID 0000.0001) %MON dynstat_eta_sd               =   5.9682415938868E-01
(PID.TID 0000.0001) %MON dynstat_eta_del2             =   1.1143391452590E-02
(PID.TID 0000.0001) %MON dynstat_uvel_max             =   1.8784547153369E-01
(PID.TID 0000.0001) %MON dynstat_uvel_min             =  -2.8596251766810E-01
(PID.TID 0000.0001) %MON dynstat_uvel_mean            =  -4.8755443614818E-04
(PID.TID 0000.0001) %MON dynstat_uvel_sd              =   1.2028490757553E-02
(PID.TID 0000.0001) %MON dynstat_uvel_del2            =   1.5675171607708E-03
(PID.TID 0000.0001) %MON dynstat_vvel_max             =   1.7469606185267E-01
(PID.TID 0000.0001) %MON dynstat_vvel_min             =  -2.2495266776693E-01
(PID.TID 0000.0001) %MON dynstat_vvel_mean            =  -4.0965656781930E-04
(PID.TID 0000.0001) %MON dynstat_vvel_sd              =   1.2664134838362E-02
(PID.TID 0000.0001) %MON dynstat_vvel_del2            =   1.5908402662085E-03
(PID.TID 0000.0001) %MON dynstat_wvel_max             =   1.0513194514123E-04
(PID.TID 0000.0001) %MON dynstat_wvel_min             =  -2.0547861843496E-04
(PID.TID 0000.0001) %MON dynstat_wvel_mean            =  -2.3208124438279E-23
(PID.TID 0000.0001) %MON dynstat_wvel_sd              =   3.8325627803410E-06
(PID.TID 0000.0001) %MON dynstat_wvel_del2            =   8.5588439243119E-07
(PID.TID 0000.0001) %MON dynstat_theta_max            =   3.0988236219256E+01
(PID.TID 0000.0001) %MON dynstat_theta_min            =  -2.0258285331493E+00
(PID.TID 0000.0001) %MON dynstat_theta_mean           =   3.9092620132553E+00
(PID.TID 0000.0001) %MON dynstat_theta_sd             =   4.5707207251303E+00
(PID.TID 0000.0001) %MON dynstat_theta_del2           =   8.5954425878909E-02
(PID.TID 0000.0001) %MON dynstat_salt_max             =   4.1386547352621E+01
(PID.TID 0000.0001) %MON dynstat_salt_min             =   1.8386244538925E+01
(PID.TID 0000.0001) %MON dynstat_salt_mean            =   3.4772069445625E+01
(PID.TID 0000.0001) %MON dynstat_salt_sd              =   5.3141679857730E-01
(PID.TID 0000.0001) %MON dynstat_salt_del2            =   1.8223788562379E-02
(PID.TID 0000.0001) %MON extforcing_qnet_max          =   4.5297596329558E+02
(PID.TID 0000.0001) %MON extforcing_qnet_min          =  -2.1016397258453E+02
(PID.TID 0000.0001) %MON extforcing_qnet_mean         =  -1.2206964234860E+01
(PID.TID 0000.0001) %MON extforcing_qnet_sd           =   1.1469454835547E+02
(PID.TID 0000.0001) %MON extforcing_qnet_del2         =   5.1545071276621E+00
(PID.TID 0000.0001) %MON extforcing_qsw_max           =   0.0000000000000E+00
(PID.TID 0000.0001) %MON extforcing_qsw_min           =   0.0000000000000E+00
(PID.TID 0000.0001) %MON extforcing_qsw_mean          =   0.0000000000000E+00
(PID.TID 0000.0001) %MON extforcing_qsw_sd            =   0.0000000000000E+00
(PID.TID 0000.0001) %MON extforcing_qsw_del2          =   0.0000000000000E+00
(PID.TID 0000.0001) %MON extforcing_empmr_max         =   7.6494447208479E-05
(PID.TID 0000.0001) %MON extforcing_empmr_min         =  -1.5362614137596E-04
(PID.TID 0000.0001) %MON extforcing_empmr_mean        =   4.1932798010144E-22
(PID.TID 0000.0001) %MON extforcing_empmr_sd          =   2.4051723601802E-05
(PID.TID 0000.0001) %MON extforcing_empmr_del2        =   1.2835223797615E-06
(PID.TID 0000.0001) %MON advcfl_uvel_max              =   8.1104394344026E-02
(PID.TID 0000.0001) %MON advcfl_vvel_max              =   7.6147552206043E-02
(PID.TID 0000.0001) %MON advcfl_wvel_max              =   6.6993783519928E-02
(PID.TID 0000.0001) %MON advcfl_W_hf_max              =   7.3972302636587E-02
(PID.TID 0000.0001) %MON pe_b_mean                    =   4.7452299506739E-04
(PID.TID 0000.0001) %MON ke_max                       =   4.0020616134532E-02
(PID.TID 0000.0001) %MON ke_mean                      =   1.4106081472448E-04
(PID.TID 0000.0001) %MON ke_vol                       =   1.3398024453628E+18
(PID.TID 0000.0001) %MON vort_r_min                   =  -1.2114153765851E-06
(PID.TID 0000.0001) %MON vort_r_max                   =   1.2279862940551E-06
(PID.TID 0000.0001) %MON vort_a_mean                  =  -2.0493733748264E-05
(PID.TID 0000.0001) %MON vort_a_sd                    =   7.5053946870202E-05
(PID.TID 0000.0001) %MON vort_p_mean                  =  -2.4715826612701E-05
(PID.TID 0000.0001) %MON vort_p_sd                    =   1.2775672402349E-04
(PID.TID 0000.0001) %MON surfExpan_theta_mean         =  -1.8557232850027E-08
(PID.TID 0000.0001) %MON surfExpan_salt_mean          =   1.7341213807430E-10
(PID.TID 0000.0001) // =======================================================
(PID.TID 0000.0001) // End MONITOR dynamic field statistics
(PID.TID 0000.0001) // =======================================================
 cg2d: Sum(rhs),rhsMax =  -2.08012666007562E-05  4.24977590159288E+00
(PID.TID 0000.0001)                    cg2d_init_res =    1.80990788123802E-01
(PID.TID 0000.0001)                       cg2d_iters =    63
(PID.TID 0000.0001)                         cg2d_res =    5.12523814066819E-07
(PID.TID 0000.0001) // =======================================================
(PID.TID 0000.0001) // Begin MONITOR dynamic field statistics
(PID.TID 0000.0001) // =======================================================
(PID.TID 0000.0001) %MON time_tsnumber                =                 72007
(PID.TID 0000.0001) %MON time_secondsf                =   6.2214048000000E+09
(PID.TID 0000.0001) %MON dynstat_eta_max              =   9.0682970944775E-01
(PID.TID 0000.0001) %MON dynstat_eta_min              =  -1.6109332703430E+00
(PID.TID 0000.0001) %MON dynstat_eta_mean             =   3.4252447273434E-08
(PID.TID 0000.0001) %MON dynstat_eta_sd               =   5.9666789124202E-01
(PID.TID 0000.0001) %MON dynstat_eta_del2             =   1.1128573349869E-02
(PID.TID 0000.0001) %MON dynstat_uvel_max             =   1.8792208912376E-01
(PID.TID 0000.0001) %MON dynstat_uvel_min             =  -2.8553438897431E-01
(PID.TID 0000.0001) %MON dynstat_uvel_mean            =  -4.8777380374452E-04
(PID.TID 0000.0001) %MON dynstat_uvel_sd              =   1.2030988196671E-02
(PID.TID 0000.0001) %MON dynstat_uvel_del2            =   1.5673803462662E-03
(PID.TID 0000.0001) %MON dynstat_vvel_max             =   1.7476065475846E-01
(PID.TID 0000.0001) %MON dynstat_vvel_min             =  -2.2488237417653E-01
(PID.TID 0000.0001) %MON dynstat_vvel_mean            =  -4.1000591331951E-04
(PID.TID 0000.0001) %MON dynstat_vvel_sd              =   1.2669542424330E-02
(PID.TID 0000.0001) %MON dynstat_vvel_del2            =   1.5903625919483E-03
(PID.TID 0000.0001) %MON dynstat_wvel_max             =   1.0567829162854E-04
(PID.TID 0000.0001) %MON dynstat_wvel_min             =  -2.0547507819146E-04
(PID.TID 0000.0001) %MON dynstat_wvel_mean            =   1.9581854994798E-23
(PID.TID 0000.0001) %MON dynstat_wvel_sd              =   3.8326385347160E-06
(PID.TID 0000.0001) %MON dynstat_wvel_del2            =   8.5872778768992E-07
(PID.TID 0000.0001) %MON dynstat_theta_max            =   3.0997080320893E+01
(PID.TID 0000.0001) %MON dynstat_theta_min            =  -2.0309459616515E+00
(PID.TID 0000.0001) %MON dynstat_theta_mean           =   3.9093222375076E+00
(PID.TID 0000.0001) %MON dynstat_theta_sd             =   4.5707256460454E+00
(PID.TID 0000.0001) %MON dynstat_theta_del2           =   8.5714838216123E-02
(PID.TID 0000.0001) %MON dynstat_salt_max             =   4.1386588752113E+01
(PID.TID 0000.0001) %MON dynstat_salt_min             =   1.8386736626966E+01
(PID.TID 0000.0001) %MON dynstat_salt_mean            =   3.4772069899237E+01
(PID.TID 0000.0001) %MON dynstat_salt_sd              =   5.3139973390363E-01
(PID.TID 0000.0001) %MON dynstat_salt_del2            =   1.8155702548221E-02
(PID.TID 0000.0001) %MON extforcing_qnet_max          =   4.5288150232768E+02
(PID.TID 0000.0001) %MON extforcing_qnet_min          =  -2.0919161859792E+02
(PID.TID 0000.0001) %MON extforcing_qnet_mean         =  -1.2219192603503E+01
(PID.TID 0000.0001) %MON extforcing_qnet_sd           =   1.1452259813662E+02
(PID.TID 0000.0001) %MON extforcing_qnet_del2         =   5.1695089074038E+00
(PID.TID 0000.0001) %MON extforcing_qsw_max           =   0.0000000000000E+00
(PID.TID 0000.0001) %MON extforcing_qsw_min           =   0.0000000000000E+00
(PID.TID 0000.0001) %MON extforcing_qsw_mean          =   0.0000000000000E+00
(PID.TID 0000.0001) %MON extforcing_qsw_sd            =   0.0000000000000E+00
(PID.TID 0000.0001) %MON extforcing_qsw_del2          =   0.0000000000000E+00
(PID.TID 0000.0001) %MON extforcing_empmr_max         =   7.6494447208479E-05
(PID.TID 0000.0001) %MON extforcing_empmr_min         =  -1.5362614137596E-04
(PID.TID 0000.0001) %MON extforcing_empmr_mean        =   4.1932798010144E-22
(PID.TID 0000.0001) %MON extforcing_empmr_sd          =   2.4051723601802E-05
(PID.TID 0000.0001) %MON extforcing_empmr_del2        =   1.2835223797615E-06
(PID.TID 0000.0001) %MON advcfl_uvel_max              =   8.0982968925428E-02
(PID.TID 0000.0001) %MON advcfl_vvel_max              =   7.6175707343676E-02
(PID.TID 0000.0001) %MON advcfl_wvel_max              =   6.6992629266953E-02
(PID.TID 0000.0001) %MON advcfl_W_hf_max              =   7.3971028148927E-02
(PID.TID 0000.0001) %MON pe_b_mean                    =   4.7427453622068E-04
(PID.TID 0000.0001) %MON ke_max                       =   3.9895183355469E-02
(PID.TID 0000.0001) %MON ke_mean                      =   1.4115220753633E-04
(PID.TID 0000.0001) %MON ke_vol                       =   1.3398024453628E+18
(PID.TID 0000.0001) %MON vort_r_min                   =  -1.2166005022195E-06
(PID.TID 0000.0001) %MON vort_r_max                   =   1.2312266088332E-06
(PID.TID 0000.0001) %MON vort_a_mean                  =  -2.0493733748264E-05
(PID.TID 0000.0001) %MON vort_a_sd                    =   7.5053946841048E-05
(PID.TID 0000.0001) %MON vort_p_mean                  =  -2.4715826612701E-05
(PID.TID 0000.0001) %MON vort_p_sd                    =   1.2775672847651E-04
(PID.TID 0000.0001) %MON surfExpan_theta_mean         =  -1.3176552177032E-08
(PID.TID 0000.0001) %MON surfExpan_salt_mean          =  -3.1342494755473E-10
(PID.TID 0000.0001) // =======================================================
(PID.TID 0000.0001) // End MONITOR dynamic field statistics
(PID.TID 0000.0001) // =======================================================
 cg2d: Sum(rhs),rhsMax =  -2.30292858418579E-05  4.24417316638580E+00
(PID.TID 0000.0001)                    cg2d_init_res =    1.77040851236487E-01
(PID.TID 0000.0001)                       cg2d_iters =    62
(PID.TID 0000.0001)                         cg2d_res =    5.32402797617379E-07
(PID.TID 0000.0001) // =======================================================
(PID.TID 0000.0001) // Begin MONITOR dynamic field statistics
(PID.TID 0000.0001) // =======================================================
(PID.TID 0000.0001) %MON time_tsnumber                =                 72008
(PID.TID 0000.0001) %MON time_secondsf                =   6.2214912000000E+09
(PID.TID 0000.0001) %MON dynstat_eta_max              =   9.0531899866771E-01
(PID.TID 0000.0001) %MON dynstat_eta_min              =  -1.6105889820936E+00
(PID.TID 0000.0001) %MON dynstat_eta_mean             =   3.7814978980077E-08
(PID.TID 0000.0001) %MON dynstat_eta_sd               =   5.9656443737016E-01
(PID.TID 0000.0001) %MON dynstat_eta_del2             =   1.1113801292664E-02
(PID.TID 0000.0001) %MON dynstat_uvel_max             =   1.8794475696267E-01
(PID.TID 0000.0001) %MON dynstat_uvel_min             =  -2.8508918929121E-01
(PID.TID 0000.0001) %MON dynstat_uvel_mean            =  -4.8791297112088E-04
(PID.TID 0000.0001) %MON dynstat_uvel_sd              =   1.2033826750547E-02
(PID.TID 0000.0001) %MON dynstat_uvel_del2            =   1.5670801534921E-03
(PID.TID 0000.0001) %MON dynstat_vvel_max             =   1.7477881701120E-01
(PID.TID 0000.0001) %MON dynstat_vvel_min             =  -2.2480516484296E-01
(PID.TID 0000.0001) %MON dynstat_vvel_mean            =  -4.1026851996250E-04
(PID.TID 0000.0001) %MON dynstat_vvel_sd              =   1.2674957809736E-02
(PID.TID 0000.0001) %MON dynstat_vvel_del2            =   1.5899517068162E-03
(PID.TID 0000.0001) %MON dynstat_wvel_max             =   1.0627670939246E-04
(PID.TID 0000.0001) %MON dynstat_wvel_min             =  -2.0543893261541E-04
(PID.TID 0000.0001) %MON dynstat_wvel_mean            =  -1.1894163774618E-22
(PID.TID 0000.0001) %MON dynstat_wvel_sd              =   3.8327154651614E-06
(PID.TID 0000.0001) %MON dynstat_wvel_del2            =   8.6101254307347E-07
(PID.TID 0000.0001) %MON dynstat_theta_max            =   3.1005555302547E+01
(PID.TID 0000.0001) %MON dynstat_theta_min            =  -2.0362314241505E+00
(PID.TID 0000.0001) %MON dynstat_theta_mean           =   3.9093827130028E+00
(PID.TID 0000.0001) %MON dynstat_theta_sd             =   4.5707383080362E+00
(PID.TID 0000.0001) %MON dynstat_theta_del2           =   8.5498634160846E-02
(PID.TID 0000.0001) %MON dynstat_salt_max             =   4.1386617281064E+01
(PID.TID 0000.0001) %MON dynstat_salt_min             =   1.8387234159670E+01
(PID.TID 0000.0001) %MON dynstat_salt_mean            =   3.4772070382183E+01
(PID.TID 0000.0001) %MON dynstat_salt_sd              =   5.3138286725885E-01
(PID.TID 0000.0001) %MON dynstat_salt_del2            =   1.8087798266120E-02
(PID.TID 0000.0001) %MON extforcing_qnet_max          =   4.5278704135979E+02
(PID.TID 0000.0001) %MON extforcing_qnet_min          =  -2.0821926461131E+02
(PID.TID 0000.0001) %MON extforcing_qnet_mean         =  -1.2231420972146E+01
(PID.TID 0000.0001) %MON extforcing_qnet_sd           =   1.1435735176461E+02
(PID.TID 0000.0001) %MON extforcing_qnet_del2         =   5.1860981905024E+00
(PID.TID 0000.0001) %MON extforcing_qsw_max           =   0.0000000000000E+00
(PID.TID 0000.0001) %MON extforcing_qsw_min           =   0.0000000000000E+00
(PID.TID 0000.0001) %MON extforcing_qsw_mean          =   0.0000000000000E+00
(PID.TID 0000.0001) %MON extforcing_qsw_sd            =   0.0000000000000E+00
(PID.TID 0000.0001) %MON extforcing_qsw_del2          =   0.0000000000000E+00
(PID.TID 0000.0001) %MON extforcing_empmr_max         =   7.6494447208479E-05
(PID.TID 0000.0001) %MON extforcing_empmr_min         =  -1.5362614137596E-04
(PID.TID 0000.0001) %MON extforcing_empmr_mean        =   0.0000000000000E+00
(PID.TID 0000.0001) %MON extforcing_empmr_sd          =   2.4051723601802E-05
(PID.TID 0000.0001) %MON extforcing_empmr_del2        =   1.2835223797615E-06
(PID.TID 0000.0001) %MON advcfl_uvel_max              =   8.0856701850447E-02
(PID.TID 0000.0001) %MON advcfl_vvel_max              =   7.6183624013770E-02
(PID.TID 0000.0001) %MON advcfl_wvel_max              =   6.6980844445174E-02
(PID.TID 0000.0001) %MON advcfl_W_hf_max              =   7.3958015741546E-02
(PID.TID 0000.0001) %MON pe_b_mean                    =   4.7411008532872E-04
(PID.TID 0000.0001) %MON ke_max                       =   3.9766928620770E-02
(PID.TID 0000.0001) %MON ke_mean                      =   1.4124742910720E-04
(PID.TID 0000.0001) %MON ke_vol                       =   1.3398024453628E+18
(PID.TID 0000.0001) %MON vort_r_min                   =  -1.2218677302475E-06
(PID.TID 0000.0001) %MON vort_r_max                   =   1.2346009491452E-06
(PID.TID 0000.0001) %MON vort_a_mean                  =  -2.0493733748264E-05
(PID.TID 0000.0001) %MON vort_a_sd                    =   7.5053946842385E-05
(PID.TID 0000.0001) %MON vort_p_mean                  =  -2.4715826612701E-05
(PID.TID 0000.0001) %MON vort_p_sd                    =   1.2775673347104E-04
(PID.TID 0000.0001) %MON surfExpan_theta_mean         =  -1.0166664248549E-08
(PID.TID 0000.0001) %MON surfExpan_salt_mean          =  -8.7268199845414E-10
(PID.TID 0000.0001) // =======================================================
(PID.TID 0000.0001) // End MONITOR dynamic field statistics
(PID.TID 0000.0001) // =======================================================
 cg2d: Sum(rhs),rhsMax =  -2.54245174744483E-05  4.23881440178515E+00
(PID.TID 0000.0001)                    cg2d_init_res =    1.73090881426474E-01
(PID.TID 0000.0001)                       cg2d_iters =    62
(PID.TID 0000.0001)                         cg2d_res =    4.80955621222246E-07
(PID.TID 0000.0001) // =======================================================
(PID.TID 0000.0001) // Begin MONITOR dynamic field statistics
(PID.TID 0000.0001) // =======================================================
(PID.TID 0000.0001) %MON time_tsnumber                =                 72009
(PID.TID 0000.0001) %MON time_secondsf                =   6.2215776000000E+09
(PID.TID 0000.0001) %MON dynstat_eta_max              =   9.0390971623526E-01
(PID.TID 0000.0001) %MON dynstat_eta_min              =  -1.6102883838624E+00
(PID.TID 0000.0001) %MON dynstat_eta_mean             =   4.0143250644502E-08
(PID.TID 0000.0001) %MON dynstat_eta_sd               =   5.9649928245416E-01
(PID.TID 0000.0001) %MON dynstat_eta_del2             =   1.1099626795943E-02
(PID.TID 0000.0001) %MON dynstat_uvel_max             =   1.8791278665791E-01
(PID.TID 0000.0001) %MON dynstat_uvel_min             =  -2.8462823020551E-01
(PID.TID 0000.0001) %MON dynstat_uvel_mean            =  -4.8786746660782E-04
(PID.TID 0000.0001) %MON dynstat_uvel_sd              =   1.2036978178680E-02
(PID.TID 0000.0001) %MON dynstat_uvel_del2            =   1.5666402446634E-03
(PID.TID 0000.0001) %MON dynstat_vvel_max             =   1.7475065465562E-01
(PID.TID 0000.0001) %MON dynstat_vvel_min             =  -2.2472184942427E-01
(PID.TID 0000.0001) %MON dynstat_vvel_mean            =  -4.1050187311193E-04
(PID.TID 0000.0001) %MON dynstat_vvel_sd              =   1.2680275305051E-02
(PID.TID 0000.0001) %MON dynstat_vvel_del2            =   1.5895184007791E-03
(PID.TID 0000.0001) %MON dynstat_wvel_max             =   1.0689877305239E-04
(PID.TID 0000.0001) %MON dynstat_wvel_min             =  -2.0533455868943E-04
(PID.TID 0000.0001) %MON dynstat_wvel_mean            =   6.9987000259185E-23
(PID.TID 0000.0001) %MON dynstat_wvel_sd              =   3.8326412582248E-06
(PID.TID 0000.0001) %MON dynstat_wvel_del2            =   8.6281002726881E-07
(PID.TID 0000.0001) %MON dynstat_theta_max            =   3.1013685464311E+01
(PID.TID 0000.0001) %MON dynstat_theta_min            =  -2.0416639373360E+00
(PID.TID 0000.0001) %MON dynstat_theta_mean           =   3.9094434241437E+00
(PID.TID 0000.0001) %MON dynstat_theta_sd             =   4.5707569818781E+00
(PID.TID 0000.0001) %MON dynstat_theta_del2           =   8.5317523080233E-02
(PID.TID 0000.0001) %MON dynstat_salt_max             =   4.1386625625816E+01
(PID.TID 0000.0001) %MON dynstat_salt_min             =   1.8387737091731E+01
(PID.TID 0000.0001) %MON dynstat_salt_mean            =   3.4772070893043E+01
(PID.TID 0000.0001) %MON dynstat_salt_sd              =   5.3136567019934E-01
(PID.TID 0000.0001) %MON dynstat_salt_del2            =   1.8037088807682E-02
(PID.TID 0000.0001) %MON extforcing_qnet_max          =   4.5269258039189E+02
(PID.TID 0000.0001) %MON extforcing_qnet_min          =  -2.0724691062470E+02
(PID.TID 0000.0001) %MON extforcing_qnet_mean         =  -1.2243649340789E+01
(PID.TID 0000.0001) %MON extforcing_qnet_sd           =   1.1419883834096E+02
(PID.TID 0000.0001) %MON extforcing_qnet_del2         =   5.2043145100996E+00
(PID.TID 0000.0001) %MON extforcing_qsw_max           =   0.0000000000000E+00
(PID.TID 0000.0001) %MON extforcing_qsw_min           =   0.0000000000000E+00
(PID.TID 0000.0001) %MON extforcing_qsw_mean          =   0.0000000000000E+00
(PID.TID 0000.0001) %MON extforcing_qsw_sd            =   0.0000000000000E+00
(PID.TID 0000.0001) %MON extforcing_qsw_del2          =   0.0000000000000E+00
(PID.TID 0000.0001) %MON extforcing_empmr_max         =   7.6494447208479E-05
(PID.TID 0000.0001) %MON extforcing_empmr_min         =  -1.5362614137596E-04
(PID.TID 0000.0001) %MON extforcing_empmr_mean        =   0.0000000000000E+00
(PID.TID 0000.0001) %MON extforcing_empmr_sd          =   2.4051723601802E-05
(PID.TID 0000.0001) %MON extforcing_empmr_del2        =   1.2835223797615E-06
(PID.TID 0000.0001) %MON advcfl_uvel_max              =   8.0725965109955E-02
(PID.TID 0000.0001) %MON advcfl_vvel_max              =   7.6171348439731E-02
(PID.TID 0000.0001) %MON advcfl_wvel_max              =   6.6946814606668E-02
(PID.TID 0000.0001) %MON advcfl_W_hf_max              =   7.3920441128196E-02
(PID.TID 0000.0001) %MON pe_b_mean                    =   4.7400652932047E-04
(PID.TID 0000.0001) %MON ke_max                       =   3.9635836068835E-02
(PID.TID 0000.0001) %MON ke_mean                      =   1.4134490131809E-04
(PID.TID 0000.0001) %MON ke_vol                       =   1.3398024453628E+18
(PID.TID 0000.0001) %MON vort_r_min                   =  -1.2271811831416E-06
(PID.TID 0000.0001) %MON vort_r_max                   =   1.2380524535309E-06
(PID.TID 0000.0001) %MON vort_a_mean                  =  -2.0493733748264E-05
(PID.TID 0000.0001) %MON vort_a_sd                    =   7.5053946862280E-05
(PID.TID 0000.0001) %MON vort_p_mean                  =  -2.4715826612701E-05
(PID.TID 0000.0001) %MON vort_p_sd                    =   1.2775673886923E-04
(PID.TID 0000.0001) %MON surfExpan_theta_mean         =  -9.0727296473644E-09
(PID.TID 0000.0001) %MON surfExpan_salt_mean          =  -1.4271236418217E-09
(PID.TID 0000.0001) // =======================================================
(PID.TID 0000.0001) // End MONITOR dynamic field statistics
(PID.TID 0000.0001) // =======================================================
 cg2d: Sum(rhs),rhsMax =  -2.69899075817648E-05  4.23376857927863E+00
(PID.TID 0000.0001)                    cg2d_init_res =    1.71413915027207E-01
(PID.TID 0000.0001)                       cg2d_iters =    61
(PID.TID 0000.0001)                         cg2d_res =    5.69351529357181E-07
(PID.TID 0000.0001) // =======================================================
(PID.TID 0000.0001) // Begin MONITOR dynamic field statistics
(PID.TID 0000.0001) // =======================================================
(PID.TID 0000.0001) %MON time_tsnumber                =                 72010
(PID.TID 0000.0001) %MON time_secondsf                =   6.2216640000000E+09
(PID.TID 0000.0001) %MON dynstat_eta_max              =   9.0259090674223E-01
(PID.TID 0000.0001) %MON dynstat_eta_min              =  -1.6100191307066E+00
(PID.TID 0000.0001) %MON dynstat_eta_mean             =   4.2990338331990E-08
(PID.TID 0000.0001) %MON dynstat_eta_sd               =   5.9646099273226E-01
(PID.TID 0000.0001) %MON dynstat_eta_del2             =   1.1086425241027E-02
(PID.TID 0000.0001) %MON dynstat_uvel_max             =   1.8782622697015E-01
(PID.TID 0000.0001) %MON dynstat_uvel_min             =  -2.8415259468222E-01
(PID.TID 0000.0001) %MON dynstat_uvel_mean            =  -4.8759164972286E-04
(PID.TID 0000.0001) %MON dynstat_uvel_sd              =   1.2040399056989E-02
(PID.TID 0000.0001) %MON dynstat_uvel_del2            =   1.5661211312458E-03
(PID.TID 0000.0001) %MON dynstat_vvel_max             =   1.7467707588405E-01
(PID.TID 0000.0001) %MON dynstat_vvel_min             =  -2.2463314715168E-01
(PID.TID 0000.0001) %MON dynstat_vvel_mean            =  -4.1072490566176E-04
(PID.TID 0000.0001) %MON dynstat_vvel_sd              =   1.2685398944740E-02
(PID.TID 0000.0001) %MON dynstat_vvel_del2            =   1.5890571063924E-03
(PID.TID 0000.0001) %MON dynstat_wvel_max             =   1.0753294806182E-04
(PID.TID 0000.0001) %MON dynstat_wvel_min             =  -2.0516924306532E-04
(PID.TID 0000.0001) %MON dynstat_wvel_mean            =   8.7393093587894E-23
(PID.TID 0000.0001) %MON dynstat_wvel_sd              =   3.8323850770843E-06
(PID.TID 0000.0001) %MON dynstat_wvel_del2            =   8.6424474483368E-07
(PID.TID 0000.0001) %MON dynstat_theta_max            =   3.1021492790033E+01
(PID.TID 0000.0001) %MON dynstat_theta_min            =  -2.0472230714655E+00
(PID.TID 0000.0001) %MON dynstat_theta_mean           =   3.9095043759527E+00
(PID.TID 0000.0001) %MON dynstat_theta_sd             =   4.5707834399644E+00
(PID.TID 0000.0001) %MON dynstat_theta_del2           =   8.5117826209687E-02
(PID.TID 0000.0001) %MON dynstat_salt_max             =   4.1386607868755E+01
(PID.TID 0000.0001) %MON dynstat_salt_min             =   1.8388245392883E+01
(PID.TID 0000.0001) %MON dynstat_salt_mean            =   3.4772071429366E+01
(PID.TID 0000.0001) %MON dynstat_salt_sd              =   5.3134840885644E-01
(PID.TID 0000.0001) %MON dynstat_salt_del2            =   1.7973010659346E-02
(PID.TID 0000.0001) %MON extforcing_qnet_max          =   4.5259811942399E+02
(PID.TID 0000.0001) %MON extforcing_qnet_min          =  -2.0627455663810E+02
(PID.TID 0000.0001) %MON extforcing_qnet_mean         =  -1.2255877709432E+01
(PID.TID 0000.0001) %MON extforcing_qnet_sd           =   1.1404708593992E+02
(PID.TID 0000.0001) %MON extforcing_qnet_del2         =   5.2241850533735E+00
(PID.TID 0000.0001) %MON extforcing_qsw_max           =   0.0000000000000E+00
(PID.TID 0000.0001) %MON extforcing_qsw_min           =   0.0000000000000E+00
(PID.TID 0000.0001) %MON extforcing_qsw_mean          =   0.0000000000000E+00
(PID.TID 0000.0001) %MON extforcing_qsw_sd            =   0.0000000000000E+00
(PID.TID 0000.0001) %MON extforcing_qsw_del2          =   0.0000000000000E+00
(PID.TID 0000.0001) %MON extforcing_empmr_max         =   7.6494447208479E-05
(PID.TID 0000.0001) %MON extforcing_empmr_min         =  -1.5362614137596E-04
(PID.TID 0000.0001) %MON extforcing_empmr_mean        =   4.1932798010144E-22
(PID.TID 0000.0001) %MON extforcing_empmr_sd          =   2.4051723601802E-05
(PID.TID 0000.0001) %MON extforcing_empmr_del2        =   1.2835223797615E-06
(PID.TID 0000.0001) %MON advcfl_uvel_max              =   8.0591065853367E-02
(PID.TID 0000.0001) %MON advcfl_vvel_max              =   7.6139276489799E-02
(PID.TID 0000.0001) %MON advcfl_wvel_max              =   6.6892915474881E-02
(PID.TID 0000.0001) %MON advcfl_W_hf_max              =   7.3860927503515E-02
(PID.TID 0000.0001) %MON pe_b_mean                    =   4.7394567762726E-04
(PID.TID 0000.0001) %MON ke_max                       =   3.9501872545834E-02
(PID.TID 0000.0001) %MON ke_mean                      =   1.4144300216795E-04
(PID.TID 0000.0001) %MON ke_vol                       =   1.3398024453628E+18
(PID.TID 0000.0001) %MON vort_r_min                   =  -1.2325076410741E-06
(PID.TID 0000.0001) %MON vort_r_max                   =   1.2415262882706E-06
(PID.TID 0000.0001) %MON vort_a_mean                  =  -2.0493733748264E-05
(PID.TID 0000.0001) %MON vort_a_sd                    =   7.5053946891745E-05
(PID.TID 0000.0001) %MON vort_p_mean                  =  -2.4715826612701E-05
(PID.TID 0000.0001) %MON vort_p_sd                    =   1.2775674453367E-04
(PID.TID 0000.0001) %MON surfExpan_theta_mean         =  -9.1199030414684E-09
(PID.TID 0000.0001) %MON surfExpan_salt_mean          =  -1.9151883236633E-09
(PID.TID 0000.0001) // =======================================================
(PID.TID 0000.0001) // End MONITOR dynamic field statistics
(PID.TID 0000.0001) // =======================================================
 cg2d: Sum(rhs),rhsMax =  -2.89041178689331E-05  4.22909356257641E+00
(PID.TID 0000.0001)                    cg2d_init_res =    1.67520229856565E-01
(PID.TID 0000.0001)                       cg2d_iters =    61
(PID.TID 0000.0001)                         cg2d_res =    5.22593000446645E-07
(PID.TID 0000.0001) // =======================================================
(PID.TID 0000.0001) // Begin MONITOR dynamic field statistics
(PID.TID 0000.0001) // =======================================================
(PID.TID 0000.0001) %MON time_tsnumber                =                 72011
(PID.TID 0000.0001) %MON time_secondsf                =   6.2217504000000E+09
(PID.TID 0000.0001) %MON dynstat_eta_max              =   9.0134358154933E-01
(PID.TID 0000.0001) %MON dynstat_eta_min              =  -1.6097629741551E+00
(PID.TID 0000.0001) %MON dynstat_eta_mean             =   4.6992859198713E-08
(PID.TID 0000.0001) %MON dynstat_eta_sd               =   5.9644098187609E-01
(PID.TID 0000.0001) %MON dynstat_eta_del2             =   1.1074625968483E-02
(PID.TID 0000.0001) %MON dynstat_uvel_max             =   1.8768590911765E-01
(PID.TID 0000.0001) %MON dynstat_uvel_min             =  -2.8366322699119E-01
(PID.TID 0000.0001) %MON dynstat_uvel_mean            =  -4.8709960709782E-04
(PID.TID 0000.0001) %MON dynstat_uvel_sd              =   1.2044035051795E-02
(PID.TID 0000.0001) %MON dynstat_uvel_del2            =   1.5656001710562E-03
(PID.TID 0000.0001) %MON dynstat_vvel_max             =   1.7455950609936E-01
(PID.TID 0000.0001) %MON dynstat_vvel_min             =  -2.2453964542414E-01
(PID.TID 0000.0001) %MON dynstat_vvel_mean            =  -4.1092670681538E-04
(PID.TID 0000.0001) %MON dynstat_vvel_sd              =   1.2690241494256E-02
(PID.TID 0000.0001) %MON dynstat_vvel_del2            =   1.5887845113909E-03
(PID.TID 0000.0001) %MON dynstat_wvel_max             =   1.0816575519129E-04
(PID.TID 0000.0001) %MON dynstat_wvel_min             =  -2.0494310994181E-04
(PID.TID 0000.0001) %MON dynstat_wvel_mean            =   4.0160934086553E-23
(PID.TID 0000.0001) %MON dynstat_wvel_sd              =   3.8319481642873E-06
(PID.TID 0000.0001) %MON dynstat_wvel_del2            =   8.6540650994425E-07
(PID.TID 0000.0001) %MON dynstat_theta_max            =   3.1028997875190E+01
(PID.TID 0000.0001) %MON dynstat_theta_min            =  -2.0528892247608E+00
(PID.TID 0000.0001) %MON dynstat_theta_mean           =   3.9095656936947E+00
(PID.TID 0000.0001) %MON dynstat_theta_sd             =   4.5708171705812E+00
(PID.TID 0000.0001) %MON dynstat_theta_del2           =   8.4914543606948E-02
(PID.TID 0000.0001) %MON dynstat_salt_max             =   4.1386561362347E+01
(PID.TID 0000.0001) %MON dynstat_salt_min             =   1.8388759044365E+01
(PID.TID 0000.0001) %MON dynstat_salt_mean            =   3.4772071991829E+01
(PID.TID 0000.0001) %MON dynstat_salt_sd              =   5.3133130775097E-01
(PID.TID 0000.0001) %MON dynstat_salt_del2            =   1.7912460653898E-02
(PID.TID 0000.0001) %MON extforcing_qnet_max          =   4.5250365845610E+02
(PID.TID 0000.0001) %MON extforcing_qnet_min          =  -2.0572520854632E+02
(PID.TID 0000.0001) %MON extforcing_qnet_mean         =  -1.2268106078075E+01
(PID.TID 0000.0001) %MON extforcing_qnet_sd           =   1.1390212158476E+02
(PID.TID 0000.0001) %MON extforcing_qnet_del2         =   5.2461338922339E+00
(PID.TID 0000.0001) %MON extforcing_qsw_max           =   0.0000000000000E+00
(PID.TID 0000.0001) %MON extforcing_qsw_min           =   0.0000000000000E+00
(PID.TID 0000.0001) %MON extforcing_qsw_mean          =   0.0000000000000E+00
(PID.TID 0000.0001) %MON extforcing_qsw_sd            =   0.0000000000000E+00
(PID.TID 0000.0001) %MON extforcing_qsw_del2          =   0.0000000000000E+00
(PID.TID 0000.0001) %MON extforcing_empmr_max         =   7.6494447208479E-05
(PID.TID 0000.0001) %MON extforcing_empmr_min         =  -1.5362614137596E-04
(PID.TID 0000.0001) %MON extforcing_empmr_mean        =   4.1932798010144E-22
(PID.TID 0000.0001) %MON extforcing_empmr_sd          =   2.4051723601802E-05
(PID.TID 0000.0001) %MON extforcing_empmr_del2        =   1.2835223797615E-06
(PID.TID 0000.0001) %MON advcfl_uvel_max              =   8.0452271893530E-02
(PID.TID 0000.0001) %MON advcfl_vvel_max              =   7.6088029476998E-02
(PID.TID 0000.0001) %MON advcfl_wvel_max              =   6.6819187543293E-02
(PID.TID 0000.0001) %MON advcfl_W_hf_max              =   7.3779519579053E-02
(PID.TID 0000.0001) %MON pe_b_mean                    =   4.7391387705754E-04
(PID.TID 0000.0001) %MON ke_max                       =   3.9365018432769E-02
(PID.TID 0000.0001) %MON ke_mean                      =   1.4154010521176E-04
(PID.TID 0000.0001) %MON ke_vol                       =   1.3398024453628E+18
(PID.TID 0000.0001) %MON vort_r_min                   =  -1.2378158054264E-06
(PID.TID 0000.0001) %MON vort_r_max                   =   1.2449699006260E-06
(PID.TID 0000.0001) %MON vort_a_mean                  =  -2.0493733748264E-05
(PID.TID 0000.0001) %MON vort_a_sd                    =   7.5053946924857E-05
(PID.TID 0000.0001) %MON vort_p_mean                  =  -2.4715826612701E-05
(PID.TID 0000.0001) %MON vort_p_sd                    =   1.2775675035331E-04
(PID.TID 0000.0001) %MON surfExpan_theta_mean         =  -9.6133493668561E-09
(PID.TID 0000.0001) %MON surfExpan_salt_mean          =  -2.2968966337202E-09
(PID.TID 0000.0001) // =======================================================
(PID.TID 0000.0001) // End MONITOR dynamic field statistics
(PID.TID 0000.0001) // =======================================================
 cg2d: Sum(rhs),rhsMax =  -3.15951720608609E-05  4.22483241644141E+00
(PID.TID 0000.0001)                    cg2d_init_res =    1.65224149420476E-01
(PID.TID 0000.0001)                       cg2d_iters =    61
(PID.TID 0000.0001)                         cg2d_res =    4.73511091932928E-07
(PID.TID 0000.0001) // =======================================================
(PID.TID 0000.0001) // Begin MONITOR dynamic field statistics
(PID.TID 0000.0001) // =======================================================
(PID.TID 0000.0001) %MON time_tsnumber                =                 72012
(PID.TID 0000.0001) %MON time_secondsf                =   6.2218368000000E+09
(PID.TID 0000.0001) %MON dynstat_eta_max              =   9.0015388369561E-01
(PID.TID 0000.0001) %MON dynstat_eta_min              =  -1.6095022901313E+00
(PID.TID 0000.0001) %MON dynstat_eta_mean             =   5.2312199753016E-08
(PID.TID 0000.0001) %MON dynstat_eta_sd               =   5.9643345928137E-01
(PID.TID 0000.0001) %MON dynstat_eta_del2             =   1.1063939466546E-02
(PID.TID 0000.0001) %MON dynstat_uvel_max             =   1.8749345647624E-01
(PID.TID 0000.0001) %MON dynstat_uvel_min             =  -2.8316099029137E-01
(PID.TID 0000.0001) %MON dynstat_uvel_mean            =  -4.8644549241209E-04
(PID.TID 0000.0001) %MON dynstat_uvel_sd              =   1.2047819523031E-02
(PID.TID 0000.0001) %MON dynstat_uvel_del2            =   1.5649714195535E-03
(PID.TID 0000.0001) %MON dynstat_vvel_max             =   1.7439968604964E-01
(PID.TID 0000.0001) %MON dynstat_vvel_min             =  -2.2444181159114E-01
(PID.TID 0000.0001) %MON dynstat_vvel_mean            =  -4.1107987256913E-04
(PID.TID 0000.0001) %MON dynstat_vvel_sd              =   1.2694726602215E-02
(PID.TID 0000.0001) %MON dynstat_vvel_del2            =   1.5884892733177E-03
(PID.TID 0000.0001) %MON dynstat_wvel_max             =   1.0878460141422E-04
(PID.TID 0000.0001) %MON dynstat_wvel_min             =  -2.0465783163326E-04
(PID.TID 0000.0001) %MON dynstat_wvel_mean            =   2.5565199576542E-23
(PID.TID 0000.0001) %MON dynstat_wvel_sd              =   3.8313266881873E-06
(PID.TID 0000.0001) %MON dynstat_wvel_del2            =   8.6633434691460E-07
(PID.TID 0000.0001) %MON dynstat_theta_max            =   3.1036220229838E+01
(PID.TID 0000.0001) %MON dynstat_theta_min            =  -2.0586434800901E+00
(PID.TID 0000.0001) %MON dynstat_theta_mean           =   3.9096272567425E+00
(PID.TID 0000.0001) %MON dynstat_theta_sd             =   4.5708579185173E+00
(PID.TID 0000.0001) %MON dynstat_theta_del2           =   8.4681914790796E-02
(PID.TID 0000.0001) %MON dynstat_salt_max             =   4.1386486346789E+01
(PID.TID 0000.0001) %MON dynstat_salt_min             =   1.8389278037481E+01
(PID.TID 0000.0001) %MON dynstat_salt_mean            =   3.4772072575632E+01
(PID.TID 0000.0001) %MON dynstat_salt_sd              =   5.3131410372107E-01
(PID.TID 0000.0001) %MON dynstat_salt_del2            =   1.7843274456341E-02
(PID.TID 0000.0001) %MON extforcing_qnet_max          =   4.5240919748820E+02
(PID.TID 0000.0001) %MON extforcing_qnet_min          =  -2.0540092066247E+02
(PID.TID 0000.0001) %MON extforcing_qnet_mean         =  -1.2280334446718E+01
(PID.TID 0000.0001) %MON extforcing_qnet_sd           =   1.1376397122458E+02
(PID.TID 0000.0001) %MON extforcing_qnet_del2         =   5.2699141835676E+00
(PID.TID 0000.0001) %MON extforcing_qsw_max           =   0.0000000000000E+00
(PID.TID 0000.0001) %MON extforcing_qsw_min           =   0.0000000000000E+00
(PID.TID 0000.0001) %MON extforcing_qsw_mean          =   0.0000000000000E+00
(PID.TID 0000.0001) %MON extforcing_qsw_sd            =   0.0000000000000E+00
(PID.TID 0000.0001) %MON extforcing_qsw_del2          =   0.0000000000000E+00
(PID.TID 0000.0001) %MON extforcing_empmr_max         =   7.6494447208479E-05
(PID.TID 0000.0001) %MON extforcing_empmr_min         =  -1.5362614137596E-04
(PID.TID 0000.0001) %MON extforcing_empmr_mean        =   4.1932798010144E-22
(PID.TID 0000.0001) %MON extforcing_empmr_sd          =   2.4051723601802E-05
(PID.TID 0000.0001) %MON extforcing_empmr_del2        =   1.2835223797615E-06
(PID.TID 0000.0001) %MON advcfl_uvel_max              =   8.0309828038692E-02
(PID.TID 0000.0001) %MON advcfl_vvel_max              =   7.6018366168907E-02
(PID.TID 0000.0001) %MON advcfl_wvel_max              =   6.6726176049486E-02
(PID.TID 0000.0001) %MON advcfl_W_hf_max              =   7.3676819387974E-02
(PID.TID 0000.0001) %MON pe_b_mean                    =   4.7390192268265E-04
(PID.TID 0000.0001) %MON ke_max                       =   3.9225285620484E-02
(PID.TID 0000.0001) %MON ke_mean                      =   1.4163458566984E-04
(PID.TID 0000.0001) %MON ke_vol                       =   1.3398024453628E+18
(PID.TID 0000.0001) %MON vort_r_min                   =  -1.2430758287033E-06
(PID.TID 0000.0001) %MON vort_r_max                   =   1.2483332006955E-06
(PID.TID 0000.0001) %MON vort_a_mean                  =  -2.0493733748264E-05
(PID.TID 0000.0001) %MON vort_a_sd                    =   7.5053946957778E-05
(PID.TID 0000.0001) %MON vort_p_mean                  =  -2.4715826612701E-05
(PID.TID 0000.0001) %MON vort_p_sd                    =   1.2775675622023E-04
(PID.TID 0000.0001) %MON surfExpan_theta_mean         =  -1.0045139907064E-08
(PID.TID 0000.0001) %MON surfExpan_salt_mean          =  -2.5604380979169E-09
(PID.TID 0000.0001) // =======================================================
(PID.TID 0000.0001) // End MONITOR dynamic field statistics
(PID.TID 0000.0001) // =======================================================
 cg2d: Sum(rhs),rhsMax =  -3.51715771103045E-05  4.22101139277260E+00
(PID.TID 0000.0001)                    cg2d_init_res =    1.64321634792661E-01
(PID.TID 0000.0001)                       cg2d_iters =    60
(PID.TID 0000.0001)                         cg2d_res =    5.59515598262267E-07
(PID.TID 0000.0001) // =======================================================
(PID.TID 0000.0001) // Begin MONITOR dynamic field statistics
(PID.TID 0000.0001) // =======================================================
(PID.TID 0000.0001) %MON time_tsnumber                =                 72013
(PID.TID 0000.0001) %MON time_secondsf                =   6.2219232000000E+09
(PID.TID 0000.0001) %MON dynstat_eta_max              =   8.9901655906188E-01
(PID.TID 0000.0001) %MON dynstat_eta_min              =  -1.6092244834968E+00
(PID.TID 0000.0001) %MON dynstat_eta_mean             =   5.8612272917811E-08
(PID.TID 0000.0001) %MON dynstat_eta_sd               =   5.9643457654750E-01
(PID.TID 0000.0001) %MON dynstat_eta_del2             =   1.1054155832534E-02
(PID.TID 0000.0001) %MON dynstat_uvel_max             =   1.8725126335603E-01
(PID.TID 0000.0001) %MON dynstat_uvel_min             =  -2.8264668410065E-01
(PID.TID 0000.0001) %MON dynstat_uvel_mean            =  -4.8570403611827E-04
(PID.TID 0000.0001) %MON dynstat_uvel_sd              =   1.2051675754683E-02
(PID.TID 0000.0001) %MON dynstat_uvel_del2            =   1.5642835798466E-03
(PID.TID 0000.0001) %MON dynstat_vvel_max             =   1.7419953653442E-01
(PID.TID 0000.0001) %MON dynstat_vvel_min             =  -2.2434004035730E-01
(PID.TID 0000.0001) %MON dynstat_vvel_mean            =  -4.1115388197576E-04
(PID.TID 0000.0001) %MON dynstat_vvel_sd              =   1.2698790466901E-02
(PID.TID 0000.0001) %MON dynstat_vvel_del2            =   1.5882156742707E-03
(PID.TID 0000.0001) %MON dynstat_wvel_max             =   1.0937678985627E-04
(PID.TID 0000.0001) %MON dynstat_wvel_min             =  -2.0431577932005E-04
(PID.TID 0000.0001) %MON dynstat_wvel_mean            =   5.4847325332651E-23
(PID.TID 0000.0001) %MON dynstat_wvel_sd              =   3.8305387916789E-06
(PID.TID 0000.0001) %MON dynstat_wvel_del2            =   8.6705973663904E-07
(PID.TID 0000.0001) %MON dynstat_theta_max            =   3.1043178206067E+01
(PID.TID 0000.0001) %MON dynstat_theta_min            =  -2.0644674628685E+00
(PID.TID 0000.0001) %MON dynstat_theta_mean           =   3.9096890726132E+00
(PID.TID 0000.0001) %MON dynstat_theta_sd             =   4.5709015030203E+00
(PID.TID 0000.0001) %MON dynstat_theta_del2           =   8.4464388385335E-02
(PID.TID 0000.0001) %MON dynstat_salt_max             =   4.1386385342615E+01
(PID.TID 0000.0001) %MON dynstat_salt_min             =   1.8389802374659E+01
(PID.TID 0000.0001) %MON dynstat_salt_mean            =   3.4772073177813E+01
(PID.TID 0000.0001) %MON dynstat_salt_sd              =   5.3129547621734E-01
(PID.TID 0000.0001) %MON dynstat_salt_del2            =   1.7792467897055E-02
(PID.TID 0000.0001) %MON extforcing_qnet_max          =   4.5231473652030E+02
(PID.TID 0000.0001) %MON extforcing_qnet_min          =  -2.0507663277863E+02
(PID.TID 0000.0001) %MON extforcing_qnet_mean         =  -1.2292562815361E+01
(PID.TID 0000.0001) %MON extforcing_qnet_sd           =   1.1363265971198E+02
(PID.TID 0000.0001) %MON extforcing_qnet_del2         =   5.2946368290482E+00
(PID.TID 0000.0001) %MON extforcing_qsw_max           =   0.0000000000000E+00
(PID.TID 0000.0001) %MON extforcing_qsw_min           =   0.0000000000000E+00
(PID.TID 0000.0001) %MON extforcing_qsw_mean          =   0.0000000000000E+00
(PID.TID 0000.0001) %MON extforcing_qsw_sd            =   0.0000000000000E+00
(PID.TID 0000.0001) %MON extforcing_qsw_del2          =   0.0000000000000E+00
(PID.TID 0000.0001) %MON extforcing_empmr_max         =   7.6494447208479E-05
(PID.TID 0000.0001) %MON extforcing_empmr_min         =  -1.5362614137596E-04
(PID.TID 0000.0001) %MON extforcing_empmr_mean        =   4.1932798010144E-22
(PID.TID 0000.0001) %MON extforcing_empmr_sd          =   2.4051723601802E-05
(PID.TID 0000.0001) %MON extforcing_empmr_del2        =   1.2835223797615E-06
(PID.TID 0000.0001) %MON advcfl_uvel_max              =   8.0163961047289E-02
(PID.TID 0000.0001) %MON advcfl_vvel_max              =   7.5931123814973E-02
(PID.TID 0000.0001) %MON advcfl_wvel_max              =   6.6614654087745E-02
(PID.TID 0000.0001) %MON advcfl_W_hf_max              =   7.3553680555218E-02
(PID.TID 0000.0001) %MON pe_b_mean                    =   4.7390369815335E-04
(PID.TID 0000.0001) %MON ke_max                       =   3.9082720730001E-02
(PID.TID 0000.0001) %MON ke_mean                      =   1.4172486122390E-04
(PID.TID 0000.0001) %MON ke_vol                       =   1.3398024453628E+18
(PID.TID 0000.0001) %MON vort_r_min                   =  -1.2482592364369E-06
(PID.TID 0000.0001) %MON vort_r_max                   =   1.2515686200288E-06
(PID.TID 0000.0001) %MON vort_a_mean                  =  -2.0493733748264E-05
(PID.TID 0000.0001) %MON vort_a_sd                    =   7.5053946987439E-05
(PID.TID 0000.0001) %MON vort_p_mean                  =  -2.4715826612701E-05
(PID.TID 0000.0001) %MON vort_p_sd                    =   1.2775676202952E-04
(PID.TID 0000.0001) %MON surfExpan_theta_mean         =  -1.0173786743782E-08
(PID.TID 0000.0001) %MON surfExpan_salt_mean          =  -2.7073368479267E-09
(PID.TID 0000.0001) // =======================================================
(PID.TID 0000.0001) // End MONITOR dynamic field statistics
(PID.TID 0000.0001) // =======================================================
 cg2d: Sum(rhs),rhsMax =  -3.94073671259321E-05  4.21764141185755E+00
(PID.TID 0000.0001)                    cg2d_init_res =    1.65282837765674E-01
(PID.TID 0000.0001)                       cg2d_iters =    60
(PID.TID 0000.0001)                         cg2d_res =    5.53920296953752E-07
(PID.TID 0000.0001) // =======================================================
(PID.TID 0000.0001) // Begin MONITOR dynamic field statistics
(PID.TID 0000.0001) // =======================================================
(PID.TID 0000.0001) %MON time_tsnumber                =                 72014
(PID.TID 0000.0001) %MON time_secondsf                =   6.2220096000000E+09
(PID.TID 0000.0001) %MON dynstat_eta_max              =   8.9792442730077E-01
(PID.TID 0000.0001) %MON dynstat_eta_min              =  -1.6089220273407E+00
(PID.TID 0000.0001) %MON dynstat_eta_mean             =   6.2778996553805E-08
(PID.TID 0000.0001) %MON dynstat_eta_sd               =   5.9644228917641E-01
(PID.TID 0000.0001) %MON dynstat_eta_del2             =   1.1045876499958E-02
(PID.TID 0000.0001) %MON dynstat_uvel_max             =   1.8696244776927E-01
(PID.TID 0000.0001) %MON dynstat_uvel_min             =  -2.8212103444625E-01
(PID.TID 0000.0001) %MON dynstat_uvel_mean            =  -4.8494457369696E-04
(PID.TID 0000.0001) %MON dynstat_uvel_sd              =   1.2055520852158E-02
(PID.TID 0000.0001) %MON dynstat_uvel_del2            =   1.5636768884734E-03
(PID.TID 0000.0001) %MON dynstat_vvel_max             =   1.7396097129673E-01
(PID.TID 0000.0001) %MON dynstat_vvel_min             =  -2.2423469157382E-01
(PID.TID 0000.0001) %MON dynstat_vvel_mean            =  -4.1112506062294E-04
(PID.TID 0000.0001) %MON dynstat_vvel_sd              =   1.2702383924192E-02
(PID.TID 0000.0001) %MON dynstat_vvel_del2            =   1.5879691533123E-03
(PID.TID 0000.0001) %MON dynstat_wvel_max             =   1.0993065699872E-04
(PID.TID 0000.0001) %MON dynstat_wvel_min             =  -2.0391929254834E-04
(PID.TID 0000.0001) %MON dynstat_wvel_mean            =   6.7629925120922E-23
(PID.TID 0000.0001) %MON dynstat_wvel_sd              =   3.8296338822160E-06
(PID.TID 0000.0001) %MON dynstat_wvel_del2            =   8.6758718906210E-07
(PID.TID 0000.0001) %MON dynstat_theta_max            =   3.1049888598127E+01
(PID.TID 0000.0001) %MON dynstat_theta_min            =  -2.0703432693190E+00
(PID.TID 0000.0001) %MON dynstat_theta_mean           =   3.9097511271203E+00
(PID.TID 0000.0001) %MON dynstat_theta_sd             =   4.5709551926663E+00
(PID.TID 0000.0001) %MON dynstat_theta_del2           =   8.4297356499968E-02
(PID.TID 0000.0001) %MON dynstat_salt_max             =   4.1386262264884E+01
(PID.TID 0000.0001) %MON dynstat_salt_min             =   1.8390332072576E+01
(PID.TID 0000.0001) %MON dynstat_salt_mean            =   3.4772073796854E+01
(PID.TID 0000.0001) %MON dynstat_salt_sd              =   5.3127768304980E-01
(PID.TID 0000.0001) %MON dynstat_salt_del2            =   1.7732353239544E-02
(PID.TID 0000.0001) %MON extforcing_qnet_max          =   4.5222027555240E+02
(PID.TID 0000.0001) %MON extforcing_qnet_min          =  -2.0475234489479E+02
(PID.TID 0000.0001) %MON extforcing_qnet_mean         =  -1.2304791184004E+01
(PID.TID 0000.0001) %MON extforcing_qnet_sd           =   1.1350821078146E+02
(PID.TID 0000.0001) %MON extforcing_qnet_del2         =   5.3204507921485E+00
(PID.TID 0000.0001) %MON extforcing_qsw_max           =   0.0000000000000E+00
(PID.TID 0000.0001) %MON extforcing_qsw_min           =   0.0000000000000E+00
(PID.TID 0000.0001) %MON extforcing_qsw_mean          =   0.0000000000000E+00
(PID.TID 0000.0001) %MON extforcing_qsw_sd            =   0.0000000000000E+00
(PID.TID 0000.0001) %MON extforcing_qsw_del2          =   0.0000000000000E+00
(PID.TID 0000.0001) %MON extforcing_empmr_max         =   7.6494447208479E-05
(PID.TID 0000.0001) %MON extforcing_empmr_min         =  -1.5362614137596E-04
(PID.TID 0000.0001) %MON extforcing_empmr_mean        =   4.1932798010144E-22
(PID.TID 0000.0001) %MON extforcing_empmr_sd          =   2.4051723601802E-05
(PID.TID 0000.0001) %MON extforcing_empmr_del2        =   1.2835223797615E-06
(PID.TID 0000.0001) %MON advcfl_uvel_max              =   8.0014876834419E-02
(PID.TID 0000.0001) %MON advcfl_vvel_max              =   7.5827136588819E-02
(PID.TID 0000.0001) %MON advcfl_wvel_max              =   6.6485384438401E-02
(PID.TID 0000.0001) %MON advcfl_W_hf_max              =   7.3410945317401E-02
(PID.TID 0000.0001) %MON pe_b_mean                    =   4.7391595454201E-04
(PID.TID 0000.0001) %MON ke_max                       =   3.8937398432770E-02
(PID.TID 0000.0001) %MON ke_mean                      =   1.4180945228345E-04
(PID.TID 0000.0001) %MON ke_vol                       =   1.3398024453628E+18
(PID.TID 0000.0001) %MON vort_r_min                   =  -1.2533390526166E-06
(PID.TID 0000.0001) %MON vort_r_max                   =   1.2546304083700E-06
(PID.TID 0000.0001) %MON vort_a_mean                  =  -2.0493733748264E-05
(PID.TID 0000.0001) %MON vort_a_sd                    =   7.5053947011384E-05
(PID.TID 0000.0001) %MON vort_p_mean                  =  -2.4715826612701E-05
(PID.TID 0000.0001) %MON vort_p_sd                    =   1.2775676768270E-04
(PID.TID 0000.0001) %MON surfExpan_theta_mean         =  -9.8829429645731E-09
(PID.TID 0000.0001) %MON surfExpan_salt_mean          =  -2.7489416391230E-09
(PID.TID 0000.0001) // =======================================================
(PID.TID 0000.0001) // End MONITOR dynamic field statistics
(PID.TID 0000.0001) // =======================================================
 cg2d: Sum(rhs),rhsMax =  -4.22088209575122E-05  4.21471931535038E+00
(PID.TID 0000.0001)                    cg2d_init_res =    1.62606420700724E-01
(PID.TID 0000.0001)                       cg2d_iters =    61
(PID.TID 0000.0001)                         cg2d_res =    4.72791057430419E-07
(PID.TID 0000.0001) // =======================================================
(PID.TID 0000.0001) // Begin MONITOR dynamic field statistics
(PID.TID 0000.0001) // =======================================================
(PID.TID 0000.0001) %MON time_tsnumber                =                 72015
(PID.TID 0000.0001) %MON time_secondsf                =   6.2220960000000E+09
(PID.TID 0000.0001) %MON dynstat_eta_max              =   8.9688619393275E-01
(PID.TID 0000.0001) %MON dynstat_eta_min              =  -1.6085914335997E+00
(PID.TID 0000.0001) %MON dynstat_eta_mean             =   6.3566864152287E-08
(PID.TID 0000.0001) %MON dynstat_eta_sd               =   5.9645520583588E-01
(PID.TID 0000.0001) %MON dynstat_eta_del2             =   1.1038024789038E-02
(PID.TID 0000.0001) %MON dynstat_uvel_max             =   1.8663078263074E-01
(PID.TID 0000.0001) %MON dynstat_uvel_min             =  -2.8158468616477E-01
(PID.TID 0000.0001) %MON dynstat_uvel_mean            =  -4.8420295446929E-04
(PID.TID 0000.0001) %MON dynstat_uvel_sd              =   1.2059265091791E-02
(PID.TID 0000.0001) %MON dynstat_uvel_del2            =   1.5631709852325E-03
(PID.TID 0000.0001) %MON dynstat_vvel_max             =   1.7368583364884E-01
(PID.TID 0000.0001) %MON dynstat_vvel_min             =  -2.2412609890211E-01
(PID.TID 0000.0001) %MON dynstat_vvel_mean            =  -4.1097928920653E-04
(PID.TID 0000.0001) %MON dynstat_vvel_sd              =   1.2705469122845E-02
(PID.TID 0000.0001) %MON dynstat_vvel_del2            =   1.5877220616340E-03
(PID.TID 0000.0001) %MON dynstat_wvel_max             =   1.1043942041612E-04
(PID.TID 0000.0001) %MON dynstat_wvel_min             =  -2.0347484023708E-04
(PID.TID 0000.0001) %MON dynstat_wvel_mean            =  -6.5363506718747E-23
(PID.TID 0000.0001) %MON dynstat_wvel_sd              =   3.8286338675304E-06
(PID.TID 0000.0001) %MON dynstat_wvel_del2            =   8.6796184096614E-07
(PID.TID 0000.0001) %MON dynstat_theta_max            =   3.1056366276496E+01
(PID.TID 0000.0001) %MON dynstat_theta_min            =  -2.0762534308516E+00
(PID.TID 0000.0001) %MON dynstat_theta_mean           =   3.9098134058907E+00
(PID.TID 0000.0001) %MON dynstat_theta_sd             =   4.5710140351545E+00
(PID.TID 0000.0001) %MON dynstat_theta_del2           =   8.4181529852698E-02
(PID.TID 0000.0001) %MON dynstat_salt_max             =   4.1386121452347E+01
(PID.TID 0000.0001) %MON dynstat_salt_min             =   1.8390867166473E+01
(PID.TID 0000.0001) %MON dynstat_salt_mean            =   3.4772074431107E+01
(PID.TID 0000.0001) %MON dynstat_salt_sd              =   5.3125935374567E-01
(PID.TID 0000.0001) %MON dynstat_salt_del2            =   1.7682081816553E-02
(PID.TID 0000.0001) %MON extforcing_qnet_max          =   4.5655909646370E+02
(PID.TID 0000.0001) %MON extforcing_qnet_min          =  -2.0442805701094E+02
(PID.TID 0000.0001) %MON extforcing_qnet_mean         =  -1.2317019552647E+01
(PID.TID 0000.0001) %MON extforcing_qnet_sd           =   1.1339064702855E+02
(PID.TID 0000.0001) %MON extforcing_qnet_del2         =   5.3480868028934E+00
(PID.TID 0000.0001) %MON extforcing_qsw_max           =   0.0000000000000E+00
(PID.TID 0000.0001) %MON extforcing_qsw_min           =   0.0000000000000E+00
(PID.TID 0000.0001) %MON extforcing_qsw_mean          =   0.0000000000000E+00
(PID.TID 0000.0001) %MON extforcing_qsw_sd            =   0.0000000000000E+00
(PID.TID 0000.0001) %MON extforcing_qsw_del2          =   0.0000000000000E+00
(PID.TID 0000.0001) %MON extforcing_empmr_max         =   7.6494447208479E-05
(PID.TID 0000.0001) %MON extforcing_empmr_min         =  -1.5362614137596E-04
(PID.TID 0000.0001) %MON extforcing_empmr_mean        =   4.1932798010144E-22
(PID.TID 0000.0001) %MON extforcing_empmr_sd          =   2.4051723601802E-05
(PID.TID 0000.0001) %MON extforcing_empmr_del2        =   1.2835223797615E-06
(PID.TID 0000.0001) %MON advcfl_uvel_max              =   7.9862758287969E-02
(PID.TID 0000.0001) %MON advcfl_vvel_max              =   7.5707207964303E-02
(PID.TID 0000.0001) %MON advcfl_wvel_max              =   6.6340476213146E-02
(PID.TID 0000.0001) %MON advcfl_W_hf_max              =   7.3250942485349E-02
(PID.TID 0000.0001) %MON pe_b_mean                    =   4.7393648117936E-04
(PID.TID 0000.0001) %MON ke_max                       =   3.8789414831969E-02
(PID.TID 0000.0001) %MON ke_mean                      =   1.4188692396738E-04
(PID.TID 0000.0001) %MON ke_vol                       =   1.3398024453628E+18
(PID.TID 0000.0001) %MON vort_r_min                   =  -1.2582900359255E-06
(PID.TID 0000.0001) %MON vort_r_max                   =   1.2574746187276E-06
(PID.TID 0000.0001) %MON vort_a_mean                  =  -2.0493733748264E-05
(PID.TID 0000.0001) %MON vort_a_sd                    =   7.5053947025909E-05
(PID.TID 0000.0001) %MON vort_p_mean                  =  -2.4715826612701E-05
(PID.TID 0000.0001) %MON vort_p_sd                    =   1.2775677306506E-04
(PID.TID 0000.0001) %MON surfExpan_theta_mean         =  -9.1813228247503E-09
(PID.TID 0000.0001) %MON surfExpan_salt_mean          =  -2.6864657768204E-09
(PID.TID 0000.0001) // =======================================================
(PID.TID 0000.0001) // End MONITOR dynamic field statistics
(PID.TID 0000.0001) // =======================================================
S/R EXTERNAL_FIELDS_LOAD: Reading new data:    1    2     72015  6.222096000000E+09
(PID.TID 0000.0001)  MDS_READ_FIELD: opening global file: trenberth_taux.bin
(PID.TID 0000.0001)  MDS_READ_FIELD: opening global file: trenberth_taux.bin
(PID.TID 0000.0001)  MDS_READ_FIELD: opening global file: trenberth_tauy.bin
(PID.TID 0000.0001)  MDS_READ_FIELD: opening global file: trenberth_tauy.bin
(PID.TID 0000.0001)  MDS_READ_FIELD: opening global file: shiQnet_cs32.bin
(PID.TID 0000.0001)  MDS_READ_FIELD: opening global file: shiQnet_cs32.bin
(PID.TID 0000.0001)  MDS_READ_FIELD: opening global file: shiEmPR_cs32.bin
(PID.TID 0000.0001)  MDS_READ_FIELD: opening global file: shiEmPR_cs32.bin
(PID.TID 0000.0001)  MDS_READ_FIELD: opening global file: lev_surfT_cs_12m.bin
(PID.TID 0000.0001)  MDS_READ_FIELD: opening global file: lev_surfT_cs_12m.bin
(PID.TID 0000.0001)  MDS_READ_FIELD: opening global file: lev_surfS_cs_12m.bin
(PID.TID 0000.0001)  MDS_READ_FIELD: opening global file: lev_surfS_cs_12m.bin
 cg2d: Sum(rhs),rhsMax =  -4.27385362229415E-05  4.21222997806887E+00
(PID.TID 0000.0001)                    cg2d_init_res =    1.66245566241407E-01
(PID.TID 0000.0001)                       cg2d_iters =    61
(PID.TID 0000.0001)                         cg2d_res =    5.28608227167254E-07
(PID.TID 0000.0001) // =======================================================
(PID.TID 0000.0001) // Begin MONITOR dynamic field statistics
(PID.TID 0000.0001) // =======================================================
(PID.TID 0000.0001) %MON time_tsnumber                =                 72016
(PID.TID 0000.0001) %MON time_secondsf                =   6.2221824000000E+09
(PID.TID 0000.0001) %MON dynstat_eta_max              =   8.9589337459927E-01
(PID.TID 0000.0001) %MON dynstat_eta_min              =  -1.6082318264558E+00
(PID.TID 0000.0001) %MON dynstat_eta_mean             =   6.2156735815338E-08
(PID.TID 0000.0001) %MON dynstat_eta_sd               =   5.9647256879570E-01
(PID.TID 0000.0001) %MON dynstat_eta_del2             =   1.1031244423829E-02
(PID.TID 0000.0001) %MON dynstat_uvel_max             =   1.8626061093299E-01
(PID.TID 0000.0001) %MON dynstat_uvel_min             =  -2.8103819488875E-01
(PID.TID 0000.0001) %MON dynstat_uvel_mean            =  -4.8349452435653E-04
(PID.TID 0000.0001) %MON dynstat_uvel_sd              =   1.2062814605890E-02
(PID.TID 0000.0001) %MON dynstat_uvel_del2            =   1.5626483157743E-03
(PID.TID 0000.0001) %MON dynstat_vvel_max             =   1.7337583880213E-01
(PID.TID 0000.0001) %MON dynstat_vvel_min             =  -2.2401456727236E-01
(PID.TID 0000.0001) %MON dynstat_vvel_mean            =  -4.1071014178045E-04
(PID.TID 0000.0001) %MON dynstat_vvel_sd              =   1.2708022652960E-02
(PID.TID 0000.0001) %MON dynstat_vvel_del2            =   1.5873799962028E-03
(PID.TID 0000.0001) %MON dynstat_wvel_max             =   1.1088882039679E-04
(PID.TID 0000.0001) %MON dynstat_wvel_min             =  -2.0298409944386E-04
(PID.TID 0000.0001) %MON dynstat_wvel_mean            =   4.0342247558727E-24
(PID.TID 0000.0001) %MON dynstat_wvel_sd              =   3.8275426897184E-06
(PID.TID 0000.0001) %MON dynstat_wvel_del2            =   8.6814822070809E-07
(PID.TID 0000.0001) %MON dynstat_theta_max            =   3.1062623872072E+01
(PID.TID 0000.0001) %MON dynstat_theta_min            =  -2.0821808879108E+00
(PID.TID 0000.0001) %MON dynstat_theta_mean           =   3.9098758335810E+00
(PID.TID 0000.0001) %MON dynstat_theta_sd             =   4.5710815946867E+00
(PID.TID 0000.0001) %MON dynstat_theta_del2           =   8.4032737709313E-02
(PID.TID 0000.0001) %MON dynstat_salt_max             =   4.1385966777306E+01
(PID.TID 0000.0001) %MON dynstat_salt_min             =   1.8391407716398E+01
(PID.TID 0000.0001) %MON dynstat_salt_mean            =   3.4772075077608E+01
(PID.TID 0000.0001) %MON dynstat_salt_sd              =   5.3124161141028E-01
(PID.TID 0000.0001) %MON dynstat_salt_del2            =   1.7610601270202E-02
(PID.TID 0000.0001) %MON extforcing_qnet_max          =   4.6211611868841E+02
(PID.TID 0000.0001) %MON extforcing_qnet_min          =  -2.0410376912710E+02
(PID.TID 0000.0001) %MON extforcing_qnet_mean         =  -1.2329247921290E+01
(PID.TID 0000.0001) %MON extforcing_qnet_sd           =   1.1327998988989E+02
(PID.TID 0000.0001) %MON extforcing_qnet_del2         =   5.3775063971043E+00
(PID.TID 0000.0001) %MON extforcing_qsw_max           =   0.0000000000000E+00
(PID.TID 0000.0001) %MON extforcing_qsw_min           =   0.0000000000000E+00
(PID.TID 0000.0001) %MON extforcing_qsw_mean          =   0.0000000000000E+00
(PID.TID 0000.0001) %MON extforcing_qsw_sd            =   0.0000000000000E+00
(PID.TID 0000.0001) %MON extforcing_qsw_del2          =   0.0000000000000E+00
(PID.TID 0000.0001) %MON extforcing_empmr_max         =   7.6494447208479E-05
(PID.TID 0000.0001) %MON extforcing_empmr_min         =  -1.5362614137596E-04
(PID.TID 0000.0001) %MON extforcing_empmr_mean        =   4.1932798010144E-22
(PID.TID 0000.0001) %MON extforcing_empmr_sd          =   2.4051723601802E-05
(PID.TID 0000.0001) %MON extforcing_empmr_del2        =   1.2835223797615E-06
(PID.TID 0000.0001) %MON advcfl_uvel_max              =   7.9707762995868E-02
(PID.TID 0000.0001) %MON advcfl_vvel_max              =   7.5572085577895E-02
(PID.TID 0000.0001) %MON advcfl_wvel_max              =   6.6180476196036E-02
(PID.TID 0000.0001) %MON advcfl_W_hf_max              =   7.3074275799790E-02
(PID.TID 0000.0001) %MON pe_b_mean                    =   4.7396407439935E-04
(PID.TID 0000.0001) %MON ke_max                       =   3.8638879288725E-02
(PID.TID 0000.0001) %MON ke_mean                      =   1.4195595867644E-04
(PID.TID 0000.0001) %MON ke_vol                       =   1.3398024453628E+18
(PID.TID 0000.0001) %MON vort_r_min                   =  -1.2630889421289E-06
(PID.TID 0000.0001) %MON vort_r_max                   =   1.2600585103699E-06
(PID.TID 0000.0001) %MON vort_a_mean                  =  -2.0493733748264E-05
(PID.TID 0000.0001) %MON vort_a_sd                    =   7.5053947028408E-05
(PID.TID 0000.0001) %MON vort_p_mean                  =  -2.4715826612701E-05
(PID.TID 0000.0001) %MON vort_p_sd                    =   1.2775677807796E-04
(PID.TID 0000.0001) %MON surfExpan_theta_mean         =  -8.2222435792688E-09
(PID.TID 0000.0001) %MON surfExpan_salt_mean          =  -2.5699628277478E-09
(PID.TID 0000.0001) // =======================================================
(PID.TID 0000.0001) // End MONITOR dynamic field statistics
(PID.TID 0000.0001) // =======================================================
 cg2d: Sum(rhs),rhsMax =  -4.17904504388389E-05  4.21005386129535E+00
(PID.TID 0000.0001)                    cg2d_init_res =    1.60974615675232E-01
(PID.TID 0000.0001)                       cg2d_iters =    61
(PID.TID 0000.0001)                         cg2d_res =    5.47223809806790E-07
(PID.TID 0000.0001) // =======================================================
(PID.TID 0000.0001) // Begin MONITOR dynamic field statistics
(PID.TID 0000.0001) // =======================================================
(PID.TID 0000.0001) %MON time_tsnumber                =                 72017
(PID.TID 0000.0001) %MON time_secondsf                =   6.2222688000000E+09
(PID.TID 0000.0001) %MON dynstat_eta_max              =   8.9497026786718E-01
(PID.TID 0000.0001) %MON dynstat_eta_min              =  -1.6077871434637E+00
(PID.TID 0000.0001) %MON dynstat_eta_mean             =   5.9627203669420E-08
(PID.TID 0000.0001) %MON dynstat_eta_sd               =   5.9649010822532E-01
(PID.TID 0000.0001) %MON dynstat_eta_del2             =   1.1023526667172E-02
(PID.TID 0000.0001) %MON dynstat_uvel_max             =   1.8630610536023E-01
(PID.TID 0000.0001) %MON dynstat_uvel_min             =  -2.8048640115399E-01
(PID.TID 0000.0001) %MON dynstat_uvel_mean            =  -4.8284305467211E-04
(PID.TID 0000.0001) %MON dynstat_uvel_sd              =   1.2066111954403E-02
(PID.TID 0000.0001) %MON dynstat_uvel_del2            =   1.5621576817239E-03
(PID.TID 0000.0001) %MON dynstat_vvel_max             =   1.7303233899060E-01
(PID.TID 0000.0001) %MON dynstat_vvel_min             =  -2.2389320447046E-01
(PID.TID 0000.0001) %MON dynstat_vvel_mean            =  -4.1033882231169E-04
(PID.TID 0000.0001) %MON dynstat_vvel_sd              =   1.2709568013599E-02
(PID.TID 0000.0001) %MON dynstat_vvel_del2            =   1.5869428153940E-03
(PID.TID 0000.0001) %MON dynstat_wvel_max             =   1.1127259377453E-04
(PID.TID 0000.0001) %MON dynstat_wvel_min             =  -2.0244507174313E-04
(PID.TID 0000.0001) %MON dynstat_wvel_mean            =   2.0397765619581E-23
(PID.TID 0000.0001) %MON dynstat_wvel_sd              =   3.8263909393262E-06
(PID.TID 0000.0001) %MON dynstat_wvel_del2            =   8.6826457506739E-07
(PID.TID 0000.0001) %MON dynstat_theta_max            =   3.1068481643682E+01
(PID.TID 0000.0001) %MON dynstat_theta_min            =  -2.0881313147289E+00
(PID.TID 0000.0001) %MON dynstat_theta_mean           =   3.9099389530583E+00
(PID.TID 0000.0001) %MON dynstat_theta_sd             =   4.5711583717195E+00
(PID.TID 0000.0001) %MON dynstat_theta_del2           =   8.3831150564016E-02
(PID.TID 0000.0001) %MON dynstat_salt_max             =   4.1385817204066E+01
(PID.TID 0000.0001) %MON dynstat_salt_min             =   1.8391949167143E+01
(PID.TID 0000.0001) %MON dynstat_salt_mean            =   3.4772075734022E+01
(PID.TID 0000.0001) %MON dynstat_salt_sd              =   5.3122294502687E-01
(PID.TID 0000.0001) %MON dynstat_salt_del2            =   1.7557094632388E-02
(PID.TID 0000.0001) %MON extforcing_qnet_max          =   4.5753071201305E+02
(PID.TID 0000.0001) %MON extforcing_qnet_min          =  -2.0101909770688E+02
(PID.TID 0000.0001) %MON extforcing_qnet_mean         =  -1.2374912456645E+01
(PID.TID 0000.0001) %MON extforcing_qnet_sd           =   1.1223184124370E+02
(PID.TID 0000.0001) %MON extforcing_qnet_del2         =   5.3393965458812E+00
(PID.TID 0000.0001) %MON extforcing_qsw_max           =   0.0000000000000E+00
(PID.TID 0000.0001) %MON extforcing_qsw_min           =   0.0000000000000E+00
(PID.TID 0000.0001) %MON extforcing_qsw_mean          =   0.0000000000000E+00
(PID.TID 0000.0001) %MON extforcing_qsw_sd            =   0.0000000000000E+00
(PID.TID 0000.0001) %MON extforcing_qsw_del2          =   0.0000000000000E+00
(PID.TID 0000.0001) %MON extforcing_empmr_max         =   7.6494447208479E-05
(PID.TID 0000.0001) %MON extforcing_empmr_min         =  -1.5362614137596E-04
(PID.TID 0000.0001) %MON extforcing_empmr_mean        =   0.0000000000000E+00
(PID.TID 0000.0001) %MON extforcing_empmr_sd          =   2.4051723601802E-05
(PID.TID 0000.0001) %MON extforcing_empmr_del2        =   1.2835223797615E-06
(PID.TID 0000.0001) %MON advcfl_uvel_max              =   7.9551263825886E-02
(PID.TID 0000.0001) %MON advcfl_vvel_max              =   7.5422358849347E-02
(PID.TID 0000.0001) %MON advcfl_wvel_max              =   6.6004732824931E-02
(PID.TID 0000.0001) %MON advcfl_W_hf_max              =   7.2880225827528E-02
(PID.TID 0000.0001) %MON pe_b_mean                    =   4.7399194888071E-04
(PID.TID 0000.0001) %MON ke_max                       =   3.8488492193896E-02
(PID.TID 0000.0001) %MON ke_mean                      =   1.4201031267197E-04
(PID.TID 0000.0001) %MON ke_vol                       =   1.3398024453628E+18
(PID.TID 0000.0001) %MON vort_r_min                   =  -1.2675422053058E-06
(PID.TID 0000.0001) %MON vort_r_max                   =   1.2621522336824E-06
(PID.TID 0000.0001) %MON vort_a_mean                  =  -2.0493733748264E-05
(PID.TID 0000.0001) %MON vort_a_sd                    =   7.5053947017273E-05
(PID.TID 0000.0001) %MON vort_p_mean                  =  -2.4715826612701E-05
(PID.TID 0000.0001) %MON vort_p_sd                    =   1.2775678270991E-04
(PID.TID 0000.0001) %MON surfExpan_theta_mean         =  -6.8703957216455E-09
(PID.TID 0000.0001) %MON surfExpan_salt_mean          =  -2.3204290229138E-09
(PID.TID 0000.0001) // =======================================================
(PID.TID 0000.0001) // End MONITOR dynamic field statistics
(PID.TID 0000.0001) // =======================================================
 cg2d: Sum(rhs),rhsMax =  -4.00897456529492E-05  4.20835829577143E+00
(PID.TID 0000.0001)                    cg2d_init_res =    1.67283723098505E-01
(PID.TID 0000.0001)                       cg2d_iters =    62
(PID.TID 0000.0001)                         cg2d_res =    4.53957826331419E-07
(PID.TID 0000.0001) // =======================================================
(PID.TID 0000.0001) // Begin MONITOR dynamic field statistics
(PID.TID 0000.0001) // =======================================================
(PID.TID 0000.0001) %MON time_tsnumber                =                 72018
(PID.TID 0000.0001) %MON time_secondsf                =   6.2223552000000E+09
(PID.TID 0000.0001) %MON dynstat_eta_max              =   8.9410216931416E-01
(PID.TID 0000.0001) %MON dynstat_eta_min              =  -1.6073207613296E+00
(PID.TID 0000.0001) %MON dynstat_eta_mean             =   5.6452245912203E-08
(PID.TID 0000.0001) %MON dynstat_eta_sd               =   5.9651078976352E-01
(PID.TID 0000.0001) %MON dynstat_eta_del2             =   1.1016597349463E-02
(PID.TID 0000.0001) %MON dynstat_uvel_max             =   1.8641231864618E-01
(PID.TID 0000.0001) %MON dynstat_uvel_min             =  -2.7992807672144E-01
(PID.TID 0000.0001) %MON dynstat_uvel_mean            =  -4.8222302686411E-04
(PID.TID 0000.0001) %MON dynstat_uvel_sd              =   1.2069038098965E-02
(PID.TID 0000.0001) %MON dynstat_uvel_del2            =   1.5616298448996E-03
(PID.TID 0000.0001) %MON dynstat_vvel_max             =   1.7265700876574E-01
(PID.TID 0000.0001) %MON dynstat_vvel_min             =  -2.2376508665144E-01
(PID.TID 0000.0001) %MON dynstat_vvel_mean            =  -4.0986927193088E-04
(PID.TID 0000.0001) %MON dynstat_vvel_sd              =   1.2710241359507E-02
(PID.TID 0000.0001) %MON dynstat_vvel_del2            =   1.5864693193606E-03
(PID.TID 0000.0001) %MON dynstat_wvel_max             =   1.1158494647747E-04
(PID.TID 0000.0001) %MON dynstat_wvel_min             =  -2.0185980911536E-04
(PID.TID 0000.0001) %MON dynstat_wvel_mean            =  -4.6778875820906E-23
(PID.TID 0000.0001) %MON dynstat_wvel_sd              =   3.8251901102255E-06
(PID.TID 0000.0001) %MON dynstat_wvel_del2            =   8.6840433424255E-07
(PID.TID 0000.0001) %MON dynstat_theta_max            =   3.1073938069737E+01
(PID.TID 0000.0001) %MON dynstat_theta_min            =  -2.0941037391437E+00
(PID.TID 0000.0001) %MON dynstat_theta_mean           =   3.9100026467428E+00
(PID.TID 0000.0001) %MON dynstat_theta_sd             =   4.5712485653407E+00
(PID.TID 0000.0001) %MON dynstat_theta_del2           =   8.3733989405577E-02
(PID.TID 0000.0001) %MON dynstat_salt_max             =   4.1385674403991E+01
(PID.TID 0000.0001) %MON dynstat_salt_min             =   1.8392490899992E+01
(PID.TID 0000.0001) %MON dynstat_salt_mean            =   3.4772076399338E+01
(PID.TID 0000.0001) %MON dynstat_salt_sd              =   5.3120512792308E-01
(PID.TID 0000.0001) %MON dynstat_salt_del2            =   1.7521306790254E-02
(PID.TID 0000.0001) %MON extforcing_qnet_max          =   4.5294530533769E+02
(PID.TID 0000.0001) %MON extforcing_qnet_min          =  -1.9793442628666E+02
(PID.TID 0000.0001) %MON extforcing_qnet_mean         =  -1.2420576992001E+01
(PID.TID 0000.0001) %MON extforcing_qnet_sd           =   1.1119236898197E+02
(PID.TID 0000.0001) %MON extforcing_qnet_del2         =   5.3029746909385E+00
(PID.TID 0000.0001) %MON extforcing_qsw_max           =   0.0000000000000E+00
(PID.TID 0000.0001) %MON extforcing_qsw_min           =   0.0000000000000E+00
(PID.TID 0000.0001) %MON extforcing_qsw_mean          =   0.0000000000000E+00
(PID.TID 0000.0001) %MON extforcing_qsw_sd            =   0.0000000000000E+00
(PID.TID 0000.0001) %MON extforcing_qsw_del2          =   0.0000000000000E+00
(PID.TID 0000.0001) %MON extforcing_empmr_max         =   7.6494447208479E-05
(PID.TID 0000.0001) %MON extforcing_empmr_min         =  -1.5362614137596E-04
(PID.TID 0000.0001) %MON extforcing_empmr_mean        =   8.3865596020288E-22
(PID.TID 0000.0001) %MON extforcing_empmr_sd          =   2.4051723601802E-05
(PID.TID 0000.0001) %MON extforcing_empmr_del2        =   1.2835223797615E-06
(PID.TID 0000.0001) %MON advcfl_uvel_max              =   7.9392912426136E-02
(PID.TID 0000.0001) %MON advcfl_vvel_max              =   7.5258757692064E-02
(PID.TID 0000.0001) %MON advcfl_wvel_max              =   6.5813915122895E-02
(PID.TID 0000.0001) %MON advcfl_W_hf_max              =   7.2669531281530E-02
(PID.TID 0000.0001) %MON pe_b_mean                    =   4.7402481800094E-04
(PID.TID 0000.0001) %MON ke_max                       =   3.8337370203326E-02
(PID.TID 0000.0001) %MON ke_mean                      =   1.4205025545021E-04
(PID.TID 0000.0001) %MON ke_vol                       =   1.3398024453628E+18
(PID.TID 0000.0001) %MON vort_r_min                   =  -1.2717023181948E-06
(PID.TID 0000.0001) %MON vort_r_max                   =   1.2638117861996E-06
(PID.TID 0000.0001) %MON vort_a_mean                  =  -2.0493733748264E-05
(PID.TID 0000.0001) %MON vort_a_sd                    =   7.5053946997056E-05
(PID.TID 0000.0001) %MON vort_p_mean                  =  -2.4715826612701E-05
(PID.TID 0000.0001) %MON vort_p_sd                    =   1.2775678687027E-04
(PID.TID 0000.0001) %MON surfExpan_theta_mean         =  -5.2177983185020E-09
(PID.TID 0000.0001) %MON surfExpan_salt_mean          =  -2.0090162363450E-09
(PID.TID 0000.0001) // =======================================================
(PID.TID 0000.0001) // End MONITOR dynamic field statistics
(PID.TID 0000.0001) // =======================================================
 cg2d: Sum(rhs),rhsMax =  -3.79550950242447E-05  4.20701953938686E+00
(PID.TID 0000.0001)                    cg2d_init_res =    1.59026896422854E-01
(PID.TID 0000.0001)                       cg2d_iters =    62
(PID.TID 0000.0001)                         cg2d_res =    4.50949023373079E-07
(PID.TID 0000.0001) // =======================================================
(PID.TID 0000.0001) // Begin MONITOR dynamic field statistics
(PID.TID 0000.0001) // =======================================================
(PID.TID 0000.0001) %MON time_tsnumber                =                 72019
(PID.TID 0000.0001) %MON time_secondsf                =   6.2224416000000E+09
(PID.TID 0000.0001) %MON dynstat_eta_max              =   8.9327361119194E-01
(PID.TID 0000.0001) %MON dynstat_eta_min              =  -1.6068482182760E+00
(PID.TID 0000.0001) %MON dynstat_eta_mean             =   5.2982326017220E-08
(PID.TID 0000.0001) %MON dynstat_eta_sd               =   5.9653492164264E-01
(PID.TID 0000.0001) %MON dynstat_eta_del2             =   1.1010306968847E-02
(PID.TID 0000.0001) %MON dynstat_uvel_max             =   1.8644536709298E-01
(PID.TID 0000.0001) %MON dynstat_uvel_min             =  -2.7936338310901E-01
(PID.TID 0000.0001) %MON dynstat_uvel_mean            =  -4.8160891475579E-04
(PID.TID 0000.0001) %MON dynstat_uvel_sd              =   1.2071509017800E-02
(PID.TID 0000.0001) %MON dynstat_uvel_del2            =   1.5610877731476E-03
(PID.TID 0000.0001) %MON dynstat_vvel_max             =   1.7225172972293E-01
(PID.TID 0000.0001) %MON dynstat_vvel_min             =  -2.2363053610981E-01
(PID.TID 0000.0001) %MON dynstat_vvel_mean            =  -4.0929430574979E-04
(PID.TID 0000.0001) %MON dynstat_vvel_sd              =   1.2710065549140E-02
(PID.TID 0000.0001) %MON dynstat_vvel_del2            =   1.5860142955598E-03
(PID.TID 0000.0001) %MON dynstat_wvel_max             =   1.1181103526440E-04
(PID.TID 0000.0001) %MON dynstat_wvel_min             =  -2.0123059567878E-04
(PID.TID 0000.0001) %MON dynstat_wvel_mean            =   2.9372782492197E-23
(PID.TID 0000.0001) %MON dynstat_wvel_sd              =   3.8239445997404E-06
(PID.TID 0000.0001) %MON dynstat_wvel_del2            =   8.6855899573688E-07
(PID.TID 0000.0001) %MON dynstat_theta_max            =   3.1078989712738E+01
(PID.TID 0000.0001) %MON dynstat_theta_min            =  -2.1000942981189E+00
(PID.TID 0000.0001) %MON dynstat_theta_mean           =   3.9100669568078E+00
(PID.TID 0000.0001) %MON dynstat_theta_sd             =   4.5713494369687E+00
(PID.TID 0000.0001) %MON dynstat_theta_del2           =   8.3564866579766E-02
(PID.TID 0000.0001) %MON dynstat_salt_max             =   4.1385538710231E+01
(PID.TID 0000.0001) %MON dynstat_salt_min             =   1.8393032373732E+01
(PID.TID 0000.0001) %MON dynstat_salt_mean            =   3.4772077068065E+01
(PID.TID 0000.0001) %MON dynstat_salt_sd              =   5.3118692453520E-01
(PID.TID 0000.0001) %MON dynstat_salt_del2            =   1.7478413735812E-02
(PID.TID 0000.0001) %MON extforcing_qnet_max          =   4.4835989866233E+02
(PID.TID 0000.0001) %MON extforcing_qnet_min          =  -1.9586302274640E+02
(PID.TID 0000.0001) %MON extforcing_qnet_mean         =  -1.2466241527356E+01
(PID.TID 0000.0001) %MON extforcing_qnet_sd           =   1.1016181871259E+02
(PID.TID 0000.0001) %MON extforcing_qnet_del2         =   5.2679889797234E+00
(PID.TID 0000.0001) %MON extforcing_qsw_max           =   0.0000000000000E+00
(PID.TID 0000.0001) %MON extforcing_qsw_min           =   0.0000000000000E+00
(PID.TID 0000.0001) %MON extforcing_qsw_mean          =   0.0000000000000E+00
(PID.TID 0000.0001) %MON extforcing_qsw_sd            =   0.0000000000000E+00
(PID.TID 0000.0001) %MON extforcing_qsw_del2          =   0.0000000000000E+00
(PID.TID 0000.0001) %MON extforcing_empmr_max         =   7.6494447208479E-05
(PID.TID 0000.0001) %MON extforcing_empmr_min         =  -1.5362614137596E-04
(PID.TID 0000.0001) %MON extforcing_empmr_mean        =   0.0000000000000E+00
(PID.TID 0000.0001) %MON extforcing_empmr_sd          =   2.4051723601802E-05
(PID.TID 0000.0001) %MON extforcing_empmr_del2        =   1.2835223797615E-06
(PID.TID 0000.0001) %MON advcfl_uvel_max              =   7.9232754606152E-02
(PID.TID 0000.0001) %MON advcfl_vvel_max              =   7.5082102266963E-02
(PID.TID 0000.0001) %MON advcfl_wvel_max              =   6.5608767798667E-02
(PID.TID 0000.0001) %MON advcfl_W_hf_max              =   7.2443014444361E-02
(PID.TID 0000.0001) %MON pe_b_mean                    =   4.7406317218058E-04
(PID.TID 0000.0001) %MON ke_max                       =   3.8185568667571E-02
(PID.TID 0000.0001) %MON ke_mean                      =   1.4207510599701E-04
(PID.TID 0000.0001) %MON ke_vol                       =   1.3398024453628E+18
(PID.TID 0000.0001) %MON vort_r_min                   =  -1.2755565810367E-06
(PID.TID 0000.0001) %MON vort_r_max                   =   1.2650111205724E-06
(PID.TID 0000.0001) %MON vort_a_mean                  =  -2.0493733748264E-05
(PID.TID 0000.0001) %MON vort_a_sd                    =   7.5053946970269E-05
(PID.TID 0000.0001) %MON vort_p_mean                  =  -2.4715826612701E-05
(PID.TID 0000.0001) %MON vort_p_sd                    =   1.2775679050561E-04
(PID.TID 0000.0001) %MON surfExpan_theta_mean         =  -3.3079000098344E-09
(PID.TID 0000.0001) %MON surfExpan_salt_mean          =  -1.5930723680695E-09
(PID.TID 0000.0001) // =======================================================
(PID.TID 0000.0001) // End MONITOR dynamic field statistics
(PID.TID 0000.0001) // =======================================================
 cg2d: Sum(rhs),rhsMax =  -3.56221294168790E-05  4.20598324425143E+00
(PID.TID 0000.0001)                    cg2d_init_res =    1.57889247719321E-01
(PID.TID 0000.0001)                       cg2d_iters =    62
(PID.TID 0000.0001)                         cg2d_res =    4.52446082617980E-07
(PID.TID 0000.0001) // =======================================================
(PID.TID 0000.0001) // Begin MONITOR dynamic field statistics
(PID.TID 0000.0001) // =======================================================
(PID.TID 0000.0001) %MON time_tsnumber                =                 72020
(PID.TID 0000.0001) %MON time_secondsf                =   6.2225280000000E+09
(PID.TID 0000.0001) %MON dynstat_eta_max              =   8.9247611472934E-01
(PID.TID 0000.0001) %MON dynstat_eta_min              =  -1.6063678946988E+00
(PID.TID 0000.0001) %MON dynstat_eta_mean             =   4.9444841554844E-08
(PID.TID 0000.0001) %MON dynstat_eta_sd               =   5.9656169990004E-01
(PID.TID 0000.0001) %MON dynstat_eta_del2             =   1.1005283927138E-02
(PID.TID 0000.0001) %MON dynstat_uvel_max             =   1.8640411594432E-01
(PID.TID 0000.0001) %MON dynstat_uvel_min             =  -2.7879239561954E-01
(PID.TID 0000.0001) %MON dynstat_uvel_mean            =  -4.8097232610841E-04
(PID.TID 0000.0001) %MON dynstat_uvel_sd              =   1.2073453546565E-02
(PID.TID 0000.0001) %MON dynstat_uvel_del2            =   1.5605395382131E-03
(PID.TID 0000.0001) %MON dynstat_vvel_max             =   1.7181871482769E-01
(PID.TID 0000.0001) %MON dynstat_vvel_min             =  -2.2348981370294E-01
(PID.TID 0000.0001) %MON dynstat_vvel_mean            =  -4.0862005217587E-04
(PID.TID 0000.0001) %MON dynstat_vvel_sd              =   1.2709068232499E-02
(PID.TID 0000.0001) %MON dynstat_vvel_del2            =   1.5854532955030E-03
(PID.TID 0000.0001) %MON dynstat_wvel_max             =   1.1194369327286E-04
(PID.TID 0000.0001) %MON dynstat_wvel_min             =  -2.0056090763867E-04
(PID.TID 0000.0001) %MON dynstat_wvel_mean            =   6.5998103871356E-23
(PID.TID 0000.0001) %MON dynstat_wvel_sd              =   3.8226364854315E-06
(PID.TID 0000.0001) %MON dynstat_wvel_del2            =   8.6871163811709E-07
(PID.TID 0000.0001) %MON dynstat_theta_max            =   3.1083631796094E+01
(PID.TID 0000.0001) %MON dynstat_theta_min            =  -2.1060985052388E+00
(PID.TID 0000.0001) %MON dynstat_theta_mean           =   3.9101318168626E+00
(PID.TID 0000.0001) %MON dynstat_theta_sd             =   4.5714595394396E+00
(PID.TID 0000.0001) %MON dynstat_theta_del2           =   8.3399262701132E-02
(PID.TID 0000.0001) %MON dynstat_salt_max             =   4.1385409126557E+01
(PID.TID 0000.0001) %MON dynstat_salt_min             =   1.8393573126977E+01
(PID.TID 0000.0001) %MON dynstat_salt_mean            =   3.4772077738517E+01
(PID.TID 0000.0001) %MON dynstat_salt_sd              =   5.3116885333876E-01
(PID.TID 0000.0001) %MON dynstat_salt_del2            =   1.7424731041680E-02
(PID.TID 0000.0001) %MON extforcing_qnet_max          =   4.4486238709081E+02
(PID.TID 0000.0001) %MON extforcing_qnet_min          =  -1.9564239975390E+02
(PID.TID 0000.0001) %MON extforcing_qnet_mean         =  -1.2511906062711E+01
(PID.TID 0000.0001) %MON extforcing_qnet_sd           =   1.0914044317154E+02
(PID.TID 0000.0001) %MON extforcing_qnet_del2         =   5.2340227781318E+00
(PID.TID 0000.0001) %MON extforcing_qsw_max           =   0.0000000000000E+00
(PID.TID 0000.0001) %MON extforcing_qsw_min           =   0.0000000000000E+00
(PID.TID 0000.0001) %MON extforcing_qsw_mean          =   0.0000000000000E+00
(PID.TID 0000.0001) %MON extforcing_qsw_sd            =   0.0000000000000E+00
(PID.TID 0000.0001) %MON extforcing_qsw_del2          =   0.0000000000000E+00
(PID.TID 0000.0001) %MON extforcing_empmr_max         =   7.6494447208479E-05
(PID.TID 0000.0001) %MON extforcing_empmr_min         =  -1.5362614137596E-04
(PID.TID 0000.0001) %MON extforcing_empmr_mean        =  -4.1932798010144E-22
(PID.TID 0000.0001) %MON extforcing_empmr_sd          =   2.4051723601802E-05
(PID.TID 0000.0001) %MON extforcing_empmr_del2        =   1.2835223797615E-06
(PID.TID 0000.0001) %MON advcfl_uvel_max              =   7.9070811723258E-02
(PID.TID 0000.0001) %MON advcfl_vvel_max              =   7.4893357174532E-02
(PID.TID 0000.0001) %MON advcfl_wvel_max              =   6.5390424226345E-02
(PID.TID 0000.0001) %MON advcfl_W_hf_max              =   7.2201926749923E-02
(PID.TID 0000.0001) %MON pe_b_mean                    =   4.7410573421714E-04
(PID.TID 0000.0001) %MON ke_max                       =   3.8033133287802E-02
(PID.TID 0000.0001) %MON ke_mean                      =   1.4208438813751E-04
(PID.TID 0000.0001) %MON ke_vol                       =   1.3398024453628E+18
(PID.TID 0000.0001) %MON vort_r_min                   =  -1.2790960010999E-06
(PID.TID 0000.0001) %MON vort_r_max                   =   1.2657309427589E-06
(PID.TID 0000.0001) %MON vort_a_mean                  =  -2.0493733748264E-05
(PID.TID 0000.0001) %MON vort_a_sd                    =   7.5053946939240E-05
(PID.TID 0000.0001) %MON vort_p_mean                  =  -2.4715826612701E-05
(PID.TID 0000.0001) %MON vort_p_sd                    =   1.2775679358574E-04
(PID.TID 0000.0001) %MON surfExpan_theta_mean         =  -1.2921856079978E-09
(PID.TID 0000.0001) %MON surfExpan_salt_mean          =  -1.1024136151422E-09
(PID.TID 0000.0001) // =======================================================
(PID.TID 0000.0001) // End MONITOR dynamic field statistics
(PID.TID 0000.0001) // =======================================================
(PID.TID 0000.0001) %CHECKPOINT     72020 0000072020
(PID.TID 0000.0001)  MDS_READ_FIELD: opening global file: lev_T_cs_15k.bin
 --> objf_test(bi,bj)   =  0.213611228067469E+05
 --> objf_tracer(bi,bj) =  0.000000000000000E+00
 --> objf_atl(bi,bj)    =  0.000000000000000E+00
 --> objf_test(bi,bj)   =  0.114876404774944E+05
 --> objf_tracer(bi,bj) =  0.000000000000000E+00
 --> objf_atl(bi,bj)    =  0.000000000000000E+00
 --> objf_test(bi,bj)   =  0.181712047571282E+05
 --> objf_tracer(bi,bj) =  0.000000000000000E+00
 --> objf_atl(bi,bj)    =  0.000000000000000E+00
 --> objf_test(bi,bj)   =  0.231640448939807E+05
 --> objf_tracer(bi,bj) =  0.000000000000000E+00
 --> objf_atl(bi,bj)    =  0.000000000000000E+00
 --> objf_test(bi,bj)   =  0.145315985894458E+05
 --> objf_tracer(bi,bj) =  0.000000000000000E+00
 --> objf_atl(bi,bj)    =  0.000000000000000E+00
 --> objf_test(bi,bj)   =  0.124822593260406E+05
 --> objf_tracer(bi,bj) =  0.000000000000000E+00
 --> objf_atl(bi,bj)    =  0.000000000000000E+00
  local fc =  0.101197870850837E+06
 global fc =  0.101197870850837E+06
(PID.TID 0000.0001)  MDS_READ_FIELD: opening global file: lev_T_cs_15k.bin
S/R EXTERNAL_FIELDS_LOAD: Reading new data:   12    1     72000  6.220800000000E+09
(PID.TID 0000.0001)  MDS_READ_FIELD: opening global file: trenberth_taux.bin
(PID.TID 0000.0001)  MDS_READ_FIELD: opening global file: trenberth_taux.bin
(PID.TID 0000.0001)  MDS_READ_FIELD: opening global file: trenberth_tauy.bin
(PID.TID 0000.0001)  MDS_READ_FIELD: opening global file: trenberth_tauy.bin
(PID.TID 0000.0001)  MDS_READ_FIELD: opening global file: shiQnet_cs32.bin
(PID.TID 0000.0001)  MDS_READ_FIELD: opening global file: shiQnet_cs32.bin
(PID.TID 0000.0001)  MDS_READ_FIELD: opening global file: shiEmPR_cs32.bin
(PID.TID 0000.0001)  MDS_READ_FIELD: opening global file: shiEmPR_cs32.bin
(PID.TID 0000.0001)  MDS_READ_FIELD: opening global file: lev_surfT_cs_12m.bin
(PID.TID 0000.0001)  MDS_READ_FIELD: opening global file: lev_surfT_cs_12m.bin
(PID.TID 0000.0001)  MDS_READ_FIELD: opening global file: lev_surfS_cs_12m.bin
(PID.TID 0000.0001)  MDS_READ_FIELD: opening global file: lev_surfS_cs_12m.bin
(PID.TID 0000.0001)  MDS_READ_FIELD: opening file: xx_tauu.0000000000.001.001.data
(PID.TID 0000.0001)  MDS_READ_FIELD: opening file: xx_tauu.0000000000.002.001.data
(PID.TID 0000.0001)  MDS_READ_FIELD: opening file: xx_tauu.0000000000.003.001.data
(PID.TID 0000.0001)  MDS_READ_FIELD: opening file: xx_tauu.0000000000.004.001.data
(PID.TID 0000.0001)  MDS_READ_FIELD: opening file: xx_tauu.0000000000.005.001.data
(PID.TID 0000.0001)  MDS_READ_FIELD: opening file: xx_tauu.0000000000.006.001.data
(PID.TID 0000.0001)  MDS_READ_FIELD: opening file: xx_tauv.0000000000.001.001.data
(PID.TID 0000.0001)  MDS_READ_FIELD: opening file: xx_tauv.0000000000.002.001.data
(PID.TID 0000.0001)  MDS_READ_FIELD: opening file: xx_tauv.0000000000.003.001.data
(PID.TID 0000.0001)  MDS_READ_FIELD: opening file: xx_tauv.0000000000.004.001.data
(PID.TID 0000.0001)  MDS_READ_FIELD: opening file: xx_tauv.0000000000.005.001.data
(PID.TID 0000.0001)  MDS_READ_FIELD: opening file: xx_tauv.0000000000.006.001.data
(PID.TID 0000.0001)  MDS_READ_FIELD: opening file: xx_sfl.0000000000.001.001.data
(PID.TID 0000.0001)  MDS_READ_FIELD: opening file: xx_sfl.0000000000.002.001.data
(PID.TID 0000.0001)  MDS_READ_FIELD: opening file: xx_sfl.0000000000.003.001.data
(PID.TID 0000.0001)  MDS_READ_FIELD: opening file: xx_sfl.0000000000.004.001.data
(PID.TID 0000.0001)  MDS_READ_FIELD: opening file: xx_sfl.0000000000.005.001.data
(PID.TID 0000.0001)  MDS_READ_FIELD: opening file: xx_sfl.0000000000.006.001.data
(PID.TID 0000.0001)  MDS_READ_FIELD: opening file: xx_hfl.0000000000.001.001.data
(PID.TID 0000.0001)  MDS_READ_FIELD: opening file: xx_hfl.0000000000.002.001.data
(PID.TID 0000.0001)  MDS_READ_FIELD: opening file: xx_hfl.0000000000.003.001.data
(PID.TID 0000.0001)  MDS_READ_FIELD: opening file: xx_hfl.0000000000.004.001.data
(PID.TID 0000.0001)  MDS_READ_FIELD: opening file: xx_hfl.0000000000.005.001.data
(PID.TID 0000.0001)  MDS_READ_FIELD: opening file: xx_hfl.0000000000.006.001.data
 cg2d: Sum(rhs),rhsMax =  -9.60653778747655E-12  4.28505602916984E+00
 cg2d: Sum(rhs),rhsMax =  -4.20986370386345E-06  4.27911284982484E+00
 cg2d: Sum(rhs),rhsMax =  -8.11923538890369E-06  4.27329379391091E+00
 cg2d: Sum(rhs),rhsMax =  -1.18774561315149E-05  4.26739301203686E+00
 cg2d: Sum(rhs),rhsMax =  -1.52649351150558E-05  4.26144702497578E+00
 cg2d: Sum(rhs),rhsMax =  -1.79967760232103E-05  4.25555457822616E+00
 cg2d: Sum(rhs),rhsMax =  -2.08012666007562E-05  4.24977590159288E+00
 cg2d: Sum(rhs),rhsMax =  -2.30292858418579E-05  4.24417316638580E+00
 cg2d: Sum(rhs),rhsMax =  -2.54245174744483E-05  4.23881440178515E+00
 cg2d: Sum(rhs),rhsMax =  -2.69899075817648E-05  4.23376857927863E+00
 cg2d: Sum(rhs),rhsMax =  -2.89041178689331E-05  4.22909356257641E+00
 cg2d: Sum(rhs),rhsMax =  -3.15951720608609E-05  4.22483241644141E+00
 cg2d: Sum(rhs),rhsMax =  -3.51715771103045E-05  4.22101139277260E+00
 cg2d: Sum(rhs),rhsMax =  -3.94073671259321E-05  4.21764141185755E+00
 cg2d: Sum(rhs),rhsMax =  -4.22088209575122E-05  4.21471931535038E+00
S/R EXTERNAL_FIELDS_LOAD: Reading new data:    1    2     72015  6.222096000000E+09
(PID.TID 0000.0001)  MDS_READ_FIELD: opening global file: trenberth_taux.bin
(PID.TID 0000.0001)  MDS_READ_FIELD: opening global file: trenberth_taux.bin
(PID.TID 0000.0001)  MDS_READ_FIELD: opening global file: trenberth_tauy.bin
(PID.TID 0000.0001)  MDS_READ_FIELD: opening global file: trenberth_tauy.bin
(PID.TID 0000.0001)  MDS_READ_FIELD: opening global file: shiQnet_cs32.bin
(PID.TID 0000.0001)  MDS_READ_FIELD: opening global file: shiQnet_cs32.bin
(PID.TID 0000.0001)  MDS_READ_FIELD: opening global file: shiEmPR_cs32.bin
(PID.TID 0000.0001)  MDS_READ_FIELD: opening global file: shiEmPR_cs32.bin
(PID.TID 0000.0001)  MDS_READ_FIELD: opening global file: lev_surfT_cs_12m.bin
(PID.TID 0000.0001)  MDS_READ_FIELD: opening global file: lev_surfT_cs_12m.bin
(PID.TID 0000.0001)  MDS_READ_FIELD: opening global file: lev_surfS_cs_12m.bin
(PID.TID 0000.0001)  MDS_READ_FIELD: opening global file: lev_surfS_cs_12m.bin
 cg2d: Sum(rhs),rhsMax =  -4.27385362229415E-05  4.21222997806887E+00
 cg2d: Sum(rhs),rhsMax =  -4.17904504388389E-05  4.21005386129535E+00
 cg2d: Sum(rhs),rhsMax =  -4.00897456529492E-05  4.20835829577143E+00
 cg2d: Sum(rhs),rhsMax =  -3.79550950242447E-05  4.20701953938686E+00
 cg2d: Sum(rhs),rhsMax =  -3.56221294168790E-05  4.20598324425143E+00
(PID.TID 0000.0001) %CHECKPOINT     72020 ckptA
 cg2d: Sum(rhs),rhsMax =  -3.79550950242447E-05  4.20701953938686E+00
 cg2d: Sum(rhs),rhsMax =  -3.56221294168790E-05  4.20598324425143E+00
(PID.TID 0000.0001) %CHECKPOINT     72020 ckptB
(PID.TID 0000.0001) %CHECKPOINT     72020 ckptA
(PID.TID 0000.0001) // =======================================================
(PID.TID 0000.0001) // Begin MONITOR dynamic field statistics
(PID.TID 0000.0001) // =======================================================
(PID.TID 0000.0001) %MON ad_time_tsnumber             =                 72020
(PID.TID 0000.0001) %MON ad_time_secondsf             =   6.2225280000000E+09
(PID.TID 0000.0001) %MON ad_dynstat_adeta_max         =   0.0000000000000E+00
(PID.TID 0000.0001) %MON ad_dynstat_adeta_min         =   0.0000000000000E+00
(PID.TID 0000.0001) %MON ad_dynstat_adeta_mean        =   0.0000000000000E+00
(PID.TID 0000.0001) %MON ad_dynstat_adeta_sd          =   0.0000000000000E+00
(PID.TID 0000.0001) %MON ad_dynstat_adeta_del2        =   0.0000000000000E+00
(PID.TID 0000.0001) %MON ad_dynstat_aduvel_max        =   0.0000000000000E+00
(PID.TID 0000.0001) %MON ad_dynstat_aduvel_min        =   0.0000000000000E+00
(PID.TID 0000.0001) %MON ad_dynstat_aduvel_mean       =   0.0000000000000E+00
(PID.TID 0000.0001) %MON ad_dynstat_aduvel_sd         =   0.0000000000000E+00
(PID.TID 0000.0001) %MON ad_dynstat_aduvel_del2       =   0.0000000000000E+00
(PID.TID 0000.0001) %MON ad_dynstat_advvel_max        =   0.0000000000000E+00
(PID.TID 0000.0001) %MON ad_dynstat_advvel_min        =   0.0000000000000E+00
(PID.TID 0000.0001) %MON ad_dynstat_advvel_mean       =   0.0000000000000E+00
(PID.TID 0000.0001) %MON ad_dynstat_advvel_sd         =   0.0000000000000E+00
(PID.TID 0000.0001) %MON ad_dynstat_advvel_del2       =   0.0000000000000E+00
(PID.TID 0000.0001) %MON ad_dynstat_adwvel_max        =   0.0000000000000E+00
(PID.TID 0000.0001) %MON ad_dynstat_adwvel_min        =   0.0000000000000E+00
(PID.TID 0000.0001) %MON ad_dynstat_adwvel_mean       =   0.0000000000000E+00
(PID.TID 0000.0001) %MON ad_dynstat_adwvel_sd         =   0.0000000000000E+00
(PID.TID 0000.0001) %MON ad_dynstat_adwvel_del2       =   0.0000000000000E+00
(PID.TID 0000.0001) %MON ad_dynstat_adtheta_max       =   1.8293508712971E+01
(PID.TID 0000.0001) %MON ad_dynstat_adtheta_min       =  -2.1795508351116E+01
(PID.TID 0000.0001) %MON ad_dynstat_adtheta_mean      =   6.1419374174770E-01
(PID.TID 0000.0001) %MON ad_dynstat_adtheta_sd        =   1.9168660360669E+00
(PID.TID 0000.0001) %MON ad_dynstat_adtheta_del2      =   2.3601131722157E-01
(PID.TID 0000.0001) %MON ad_dynstat_adsalt_max        =   0.0000000000000E+00
(PID.TID 0000.0001) %MON ad_dynstat_adsalt_min        =   0.0000000000000E+00
(PID.TID 0000.0001) %MON ad_dynstat_adsalt_mean       =   0.0000000000000E+00
(PID.TID 0000.0001) %MON ad_dynstat_adsalt_sd         =   0.0000000000000E+00
(PID.TID 0000.0001) %MON ad_dynstat_adsalt_del2       =   0.0000000000000E+00
(PID.TID 0000.0001) %MON ad_dynstat_adsst_max         =   1.6607422416970E+01
(PID.TID 0000.0001) %MON ad_dynstat_adsst_min         =  -1.2197672888265E+01
(PID.TID 0000.0001) %MON ad_dynstat_adsst_mean        =   2.1578242893270E+00
(PID.TID 0000.0001) %MON ad_dynstat_adsst_sd          =   3.5034290882150E+00
(PID.TID 0000.0001) %MON ad_dynstat_adsst_del2        =   4.1131688330931E-01
(PID.TID 0000.0001) %MON ad_dynstat_adsss_max         =   0.0000000000000E+00
(PID.TID 0000.0001) %MON ad_dynstat_adsss_min         =   0.0000000000000E+00
(PID.TID 0000.0001) %MON ad_dynstat_adsss_mean        =   0.0000000000000E+00
(PID.TID 0000.0001) %MON ad_dynstat_adsss_sd          =   0.0000000000000E+00
(PID.TID 0000.0001) %MON ad_dynstat_adsss_del2        =   0.0000000000000E+00
(PID.TID 0000.0001) %MON ad_extforcing_adqnet_max     =   0.0000000000000E+00
(PID.TID 0000.0001) %MON ad_extforcing_adqnet_min     =   0.0000000000000E+00
(PID.TID 0000.0001) %MON ad_extforcing_adqnet_mean    =   0.0000000000000E+00
(PID.TID 0000.0001) %MON ad_extforcing_adqnet_sd      =   0.0000000000000E+00
(PID.TID 0000.0001) %MON ad_extforcing_adqnet_del2    =   0.0000000000000E+00
(PID.TID 0000.0001) %MON ad_extforcing_adqsw_max      =   0.0000000000000E+00
(PID.TID 0000.0001) %MON ad_extforcing_adqsw_min      =   0.0000000000000E+00
(PID.TID 0000.0001) %MON ad_extforcing_adqsw_mean     =   0.0000000000000E+00
(PID.TID 0000.0001) %MON ad_extforcing_adqsw_sd       =   0.0000000000000E+00
(PID.TID 0000.0001) %MON ad_extforcing_adqsw_del2     =   0.0000000000000E+00
(PID.TID 0000.0001) %MON ad_extforcing_adempmr_max    =   0.0000000000000E+00
(PID.TID 0000.0001) %MON ad_extforcing_adempmr_min    =   0.0000000000000E+00
(PID.TID 0000.0001) %MON ad_extforcing_adempmr_mean   =   0.0000000000000E+00
(PID.TID 0000.0001) %MON ad_extforcing_adempmr_sd     =   0.0000000000000E+00
(PID.TID 0000.0001) %MON ad_extforcing_adempmr_del2   =   0.0000000000000E+00
(PID.TID 0000.0001) %MON ad_extforcing_adfu_max       =   0.0000000000000E+00
(PID.TID 0000.0001) %MON ad_extforcing_adfu_min       =   0.0000000000000E+00
(PID.TID 0000.0001) %MON ad_extforcing_adfu_mean      =   0.0000000000000E+00
(PID.TID 0000.0001) %MON ad_extforcing_adfu_sd        =   0.0000000000000E+00
(PID.TID 0000.0001) %MON ad_extforcing_adfu_del2      =   0.0000000000000E+00
(PID.TID 0000.0001) %MON ad_extforcing_adfv_max       =   0.0000000000000E+00
(PID.TID 0000.0001) %MON ad_extforcing_adfv_min       =   0.0000000000000E+00
(PID.TID 0000.0001) %MON ad_extforcing_adfv_mean      =   0.0000000000000E+00
(PID.TID 0000.0001) %MON ad_extforcing_adfv_sd        =   0.0000000000000E+00
(PID.TID 0000.0001) %MON ad_extforcing_adfv_del2      =   0.0000000000000E+00
(PID.TID 0000.0001) %MON ad_advcfl_aduvel_max         =   0.0000000000000E+00
(PID.TID 0000.0001) %MON ad_advcfl_advvel_max         =   0.0000000000000E+00
(PID.TID 0000.0001) %MON ad_advcfl_adwvel_max         =   0.0000000000000E+00
(PID.TID 0000.0001) %MON ad_advcfl_adW_hf_max         =   0.0000000000000E+00
(PID.TID 0000.0001) // =======================================================
(PID.TID 0000.0001) // End MONITOR dynamic field statistics
(PID.TID 0000.0001) // =======================================================
 cg2d: Sum(rhs),rhsMax =   6.93889390390723E-18  7.99051230972448E-03
(PID.TID 0000.0001) // =======================================================
(PID.TID 0000.0001) // Begin MONITOR dynamic field statistics
(PID.TID 0000.0001) // =======================================================
(PID.TID 0000.0001) %MON ad_time_tsnumber             =                 72019
(PID.TID 0000.0001) %MON ad_time_secondsf             =   6.2224416000000E+09
(PID.TID 0000.0001) %MON ad_dynstat_adeta_max         =   1.4801696903828E+00
(PID.TID 0000.0001) %MON ad_dynstat_adeta_min         =  -1.2179713444868E+00
(PID.TID 0000.0001) %MON ad_dynstat_adeta_mean        =  -1.2743742907481E-02
(PID.TID 0000.0001) %MON ad_dynstat_adeta_sd          =   2.7072159079900E-01
(PID.TID 0000.0001) %MON ad_dynstat_adeta_del2        =   5.1065534224727E-02
(PID.TID 0000.0001) %MON ad_dynstat_aduvel_max        =   2.1398538192116E+01
(PID.TID 0000.0001) %MON ad_dynstat_aduvel_min        =  -6.4452248789102E+01
(PID.TID 0000.0001) %MON ad_dynstat_aduvel_mean       =   9.8834695582547E-02
(PID.TID 0000.0001) %MON ad_dynstat_aduvel_sd         =   3.8624438869108E+00
(PID.TID 0000.0001) %MON ad_dynstat_aduvel_del2       =   7.1734413871244E-01
(PID.TID 0000.0001) %MON ad_dynstat_advvel_max        =   8.0631145787452E+01
(PID.TID 0000.0001) %MON ad_dynstat_advvel_min        =  -4.2293451940445E+01
(PID.TID 0000.0001) %MON ad_dynstat_advvel_mean       =  -5.1340017965259E-01
(PID.TID 0000.0001) %MON ad_dynstat_advvel_sd         =   4.4299617551346E+00
(PID.TID 0000.0001) %MON ad_dynstat_advvel_del2       =   7.6163846291880E-01
(PID.TID 0000.0001) %MON ad_dynstat_adwvel_max        =   4.9257520846754E+01
(PID.TID 0000.0001) %MON ad_dynstat_adwvel_min        =  -2.7422445869358E+01
(PID.TID 0000.0001) %MON ad_dynstat_adwvel_mean       =  -2.3941758329944E-03
(PID.TID 0000.0001) %MON ad_dynstat_adwvel_sd         =   5.3735609194069E-01
(PID.TID 0000.0001) %MON ad_dynstat_adwvel_del2       =   9.8265609535510E-02
(PID.TID 0000.0001) %MON ad_dynstat_adtheta_max       =   3.3420513271308E+02
(PID.TID 0000.0001) %MON ad_dynstat_adtheta_min       =  -2.9627003422531E+02
(PID.TID 0000.0001) %MON ad_dynstat_adtheta_mean      =   6.0286394369738E-01
(PID.TID 0000.0001) %MON ad_dynstat_adtheta_sd        =   2.0725984131158E+00
(PID.TID 0000.0001) %MON ad_dynstat_adtheta_del2      =   2.7948289714386E-01
(PID.TID 0000.0001) %MON ad_dynstat_adsalt_max        =   1.0815184253846E+03
(PID.TID 0000.0001) %MON ad_dynstat_adsalt_min        =  -1.0743805250979E+03
(PID.TID 0000.0001) %MON ad_dynstat_adsalt_mean       =   4.6249542159812E-02
(PID.TID 0000.0001) %MON ad_dynstat_adsalt_sd         =   2.8812387293552E+00
(PID.TID 0000.0001) %MON ad_dynstat_adsalt_del2       =   3.1565881909794E-01
(PID.TID 0000.0001) %MON ad_dynstat_adsst_max         =   2.3946908928121E+01
(PID.TID 0000.0001) %MON ad_dynstat_adsst_min         =  -2.8347224976821E+01
(PID.TID 0000.0001) %MON ad_dynstat_adsst_mean        =   2.1317836945840E+00
(PID.TID 0000.0001) %MON ad_dynstat_adsst_sd          =   3.5330537070127E+00
(PID.TID 0000.0001) %MON ad_dynstat_adsst_del2        =   4.6008083620153E-01
(PID.TID 0000.0001) %MON ad_dynstat_adsss_max         =   9.0582396518467E+01
(PID.TID 0000.0001) %MON ad_dynstat_adsss_min         =  -8.9663305928032E+01
(PID.TID 0000.0001) %MON ad_dynstat_adsss_mean        =   8.0969695868727E-02
(PID.TID 0000.0001) %MON ad_dynstat_adsss_sd          =   2.5239018912543E+00
(PID.TID 0000.0001) %MON ad_dynstat_adsss_del2        =   3.1865179768186E-01
(PID.TID 0000.0001) %MON ad_extforcing_adqnet_max     =   0.0000000000000E+00
(PID.TID 0000.0001) %MON ad_extforcing_adqnet_min     =   0.0000000000000E+00
(PID.TID 0000.0001) %MON ad_extforcing_adqnet_mean    =   0.0000000000000E+00
(PID.TID 0000.0001) %MON ad_extforcing_adqnet_sd      =   0.0000000000000E+00
(PID.TID 0000.0001) %MON ad_extforcing_adqnet_del2    =   0.0000000000000E+00
(PID.TID 0000.0001) %MON ad_extforcing_adqsw_max      =   2.5847524539225E-04
(PID.TID 0000.0001) %MON ad_extforcing_adqsw_min      =  -2.3633962342640E-04
(PID.TID 0000.0001) %MON ad_extforcing_adqsw_mean     =   1.8922474427375E-05
(PID.TID 0000.0001) %MON ad_extforcing_adqsw_sd       =   4.9626947149406E-05
(PID.TID 0000.0001) %MON ad_extforcing_adqsw_del2     =   7.6807015901058E-06
(PID.TID 0000.0001) %MON ad_extforcing_adempmr_max    =   0.0000000000000E+00
(PID.TID 0000.0001) %MON ad_extforcing_adempmr_min    =   0.0000000000000E+00
(PID.TID 0000.0001) %MON ad_extforcing_adempmr_mean   =   0.0000000000000E+00
(PID.TID 0000.0001) %MON ad_extforcing_adempmr_sd     =   0.0000000000000E+00
(PID.TID 0000.0001) %MON ad_extforcing_adempmr_del2   =   0.0000000000000E+00
(PID.TID 0000.0001) %MON ad_extforcing_adfu_max       =   0.0000000000000E+00
(PID.TID 0000.0001) %MON ad_extforcing_adfu_min       =   0.0000000000000E+00
(PID.TID 0000.0001) %MON ad_extforcing_adfu_mean      =   0.0000000000000E+00
(PID.TID 0000.0001) %MON ad_extforcing_adfu_sd        =   0.0000000000000E+00
(PID.TID 0000.0001) %MON ad_extforcing_adfu_del2      =   0.0000000000000E+00
(PID.TID 0000.0001) %MON ad_extforcing_adfv_max       =   0.0000000000000E+00
(PID.TID 0000.0001) %MON ad_extforcing_adfv_min       =   0.0000000000000E+00
(PID.TID 0000.0001) %MON ad_extforcing_adfv_mean      =   0.0000000000000E+00
(PID.TID 0000.0001) %MON ad_extforcing_adfv_sd        =   0.0000000000000E+00
(PID.TID 0000.0001) %MON ad_extforcing_adfv_del2      =   0.0000000000000E+00
(PID.TID 0000.0001) %MON ad_advcfl_aduvel_max         =   2.1623696796838E+01
(PID.TID 0000.0001) %MON ad_advcfl_advvel_max         =   2.3127088569566E+01
(PID.TID 0000.0001) %MON ad_advcfl_adwvel_max         =   7.0930830019325E+04
(PID.TID 0000.0001) %MON ad_advcfl_adW_hf_max         =   1.7023399204638E+05
(PID.TID 0000.0001) // =======================================================
(PID.TID 0000.0001) // End MONITOR dynamic field statistics
(PID.TID 0000.0001) // =======================================================
 cg2d: Sum(rhs),rhsMax =  -5.30011612470856E-07  7.84670729784914E-03
 cg2d: Sum(rhs),rhsMax =  -4.17904504388389E-05  4.21005386129535E+00
 cg2d: Sum(rhs),rhsMax =  -4.00897456529492E-05  4.20835829577143E+00
(PID.TID 0000.0001) // =======================================================
(PID.TID 0000.0001) // Begin MONITOR dynamic field statistics
(PID.TID 0000.0001) // =======================================================
(PID.TID 0000.0001) %MON ad_time_tsnumber             =                 72018
(PID.TID 0000.0001) %MON ad_time_secondsf             =   6.2223552000000E+09
(PID.TID 0000.0001) %MON ad_dynstat_adeta_max         =   1.7515181173632E+00
(PID.TID 0000.0001) %MON ad_dynstat_adeta_min         =  -1.3634383158544E+00
(PID.TID 0000.0001) %MON ad_dynstat_adeta_mean        =  -1.9482691840111E-02
(PID.TID 0000.0001) %MON ad_dynstat_adeta_sd          =   3.6435581648490E-01
(PID.TID 0000.0001) %MON ad_dynstat_adeta_del2        =   5.4029316478325E-02
(PID.TID 0000.0001) %MON ad_dynstat_aduvel_max        =   5.1901234650014E+01
(PID.TID 0000.0001) %MON ad_dynstat_aduvel_min        =  -1.0305444530004E+02
(PID.TID 0000.0001) %MON ad_dynstat_aduvel_mean       =   3.5250154878996E-01
(PID.TID 0000.0001) %MON ad_dynstat_aduvel_sd         =   3.9631668117028E+00
(PID.TID 0000.0001) %MON ad_dynstat_aduvel_del2       =   9.3324106831961E-01
(PID.TID 0000.0001) %MON ad_dynstat_advvel_max        =   6.5461042999511E+01
(PID.TID 0000.0001) %MON ad_dynstat_advvel_min        =  -4.8755140756860E+01
(PID.TID 0000.0001) %MON ad_dynstat_advvel_mean       =  -8.2445519862519E-01
(PID.TID 0000.0001) %MON ad_dynstat_advvel_sd         =   3.7823439643208E+00
(PID.TID 0000.0001) %MON ad_dynstat_advvel_del2       =   8.9644624238598E-01
(PID.TID 0000.0001) %MON ad_dynstat_adwvel_max        =   7.9292559235605E+01
(PID.TID 0000.0001) %MON ad_dynstat_adwvel_min        =  -4.7146787887608E+01
(PID.TID 0000.0001) %MON ad_dynstat_adwvel_mean       =  -1.6997306391571E-03
(PID.TID 0000.0001) %MON ad_dynstat_adwvel_sd         =   8.7160801173664E-01
(PID.TID 0000.0001) %MON ad_dynstat_adwvel_del2       =   1.4489200710146E-01
(PID.TID 0000.0001) %MON ad_dynstat_adtheta_max       =   2.8651319596881E+02
(PID.TID 0000.0001) %MON ad_dynstat_adtheta_min       =  -2.4640222419608E+02
(PID.TID 0000.0001) %MON ad_dynstat_adtheta_mean      =   6.0993582727394E-01
(PID.TID 0000.0001) %MON ad_dynstat_adtheta_sd        =   2.0362076627052E+00
(PID.TID 0000.0001) %MON ad_dynstat_adtheta_del2      =   2.8566003276695E-01
(PID.TID 0000.0001) %MON ad_dynstat_adsalt_max        =   9.1996034591237E+02
(PID.TID 0000.0001) %MON ad_dynstat_adsalt_min        =  -9.1311356642080E+02
(PID.TID 0000.0001) %MON ad_dynstat_adsalt_mean       =   7.9225581225341E-03
(PID.TID 0000.0001) %MON ad_dynstat_adsalt_sd         =   2.6425913010150E+00
(PID.TID 0000.0001) %MON ad_dynstat_adsalt_del2       =   3.6332086861925E-01
(PID.TID 0000.0001) %MON ad_dynstat_adsst_max         =   1.8037630882035E+01
(PID.TID 0000.0001) %MON ad_dynstat_adsst_min         =  -2.5853648430388E+01
(PID.TID 0000.0001) %MON ad_dynstat_adsst_mean        =   2.1300211878143E+00
(PID.TID 0000.0001) %MON ad_dynstat_adsst_sd          =   3.5516829421190E+00
(PID.TID 0000.0001) %MON ad_dynstat_adsst_del2        =   4.8647221644063E-01
(PID.TID 0000.0001) %MON ad_dynstat_adsss_max         =   7.1412196693107E+01
(PID.TID 0000.0001) %MON ad_dynstat_adsss_min         =  -7.1071366568395E+01
(PID.TID 0000.0001) %MON ad_dynstat_adsss_mean        =   7.4537239529585E-02
(PID.TID 0000.0001) %MON ad_dynstat_adsss_sd          =   2.8996176930107E+00
(PID.TID 0000.0001) %MON ad_dynstat_adsss_del2        =   4.3151006384626E-01
(PID.TID 0000.0001) %MON ad_extforcing_adqnet_max     =   0.0000000000000E+00
(PID.TID 0000.0001) %MON ad_extforcing_adqnet_min     =   0.0000000000000E+00
(PID.TID 0000.0001) %MON ad_extforcing_adqnet_mean    =   0.0000000000000E+00
(PID.TID 0000.0001) %MON ad_extforcing_adqnet_sd      =   0.0000000000000E+00
(PID.TID 0000.0001) %MON ad_extforcing_adqnet_del2    =   0.0000000000000E+00
(PID.TID 0000.0001) %MON ad_extforcing_adqsw_max      =   1.1379544359547E-03
(PID.TID 0000.0001) %MON ad_extforcing_adqsw_min      =  -6.2048207768700E-03
(PID.TID 0000.0001) %MON ad_extforcing_adqsw_mean     =   3.7320473171024E-05
(PID.TID 0000.0001) %MON ad_extforcing_adqsw_sd       =   1.3166968011140E-04
(PID.TID 0000.0001) %MON ad_extforcing_adqsw_del2     =   1.8979254994586E-05
(PID.TID 0000.0001) %MON ad_extforcing_adempmr_max    =   0.0000000000000E+00
(PID.TID 0000.0001) %MON ad_extforcing_adempmr_min    =   0.0000000000000E+00
(PID.TID 0000.0001) %MON ad_extforcing_adempmr_mean   =   0.0000000000000E+00
(PID.TID 0000.0001) %MON ad_extforcing_adempmr_sd     =   0.0000000000000E+00
(PID.TID 0000.0001) %MON ad_extforcing_adempmr_del2   =   0.0000000000000E+00
(PID.TID 0000.0001) %MON ad_extforcing_adfu_max       =   0.0000000000000E+00
(PID.TID 0000.0001) %MON ad_extforcing_adfu_min       =   0.0000000000000E+00
(PID.TID 0000.0001) %MON ad_extforcing_adfu_mean      =   0.0000000000000E+00
(PID.TID 0000.0001) %MON ad_extforcing_adfu_sd        =   0.0000000000000E+00
(PID.TID 0000.0001) %MON ad_extforcing_adfu_del2      =   0.0000000000000E+00
(PID.TID 0000.0001) %MON ad_extforcing_adfv_max       =   0.0000000000000E+00
(PID.TID 0000.0001) %MON ad_extforcing_adfv_min       =   0.0000000000000E+00
(PID.TID 0000.0001) %MON ad_extforcing_adfv_mean      =   0.0000000000000E+00
(PID.TID 0000.0001) %MON ad_extforcing_adfv_sd        =   0.0000000000000E+00
(PID.TID 0000.0001) %MON ad_extforcing_adfv_del2      =   0.0000000000000E+00
(PID.TID 0000.0001) %MON ad_advcfl_aduvel_max         =   3.8089806765512E+01
(PID.TID 0000.0001) %MON ad_advcfl_advvel_max         =   2.3468620229880E+01
(PID.TID 0000.0001) %MON ad_advcfl_adwvel_max         =   1.1418128529927E+05
(PID.TID 0000.0001) %MON ad_advcfl_adW_hf_max         =   2.7403508471825E+05
(PID.TID 0000.0001) // =======================================================
(PID.TID 0000.0001) // End MONITOR dynamic field statistics
(PID.TID 0000.0001) // =======================================================
 cg2d: Sum(rhs),rhsMax =  -6.50290462228531E-07  7.68337630564334E-03
(PID.TID 0000.0001) // =======================================================
(PID.TID 0000.0001) // Begin MONITOR dynamic field statistics
(PID.TID 0000.0001) // =======================================================
(PID.TID 0000.0001) %MON ad_time_tsnumber             =                 72017
(PID.TID 0000.0001) %MON ad_time_secondsf             =   6.2222688000000E+09
(PID.TID 0000.0001) %MON ad_dynstat_adeta_max         =   1.6909715957175E+00
(PID.TID 0000.0001) %MON ad_dynstat_adeta_min         =  -1.2828672688531E+00
(PID.TID 0000.0001) %MON ad_dynstat_adeta_mean        =  -2.0954961894380E-02
(PID.TID 0000.0001) %MON ad_dynstat_adeta_sd          =   3.9315435561795E-01
(PID.TID 0000.0001) %MON ad_dynstat_adeta_del2        =   5.2899542132071E-02
(PID.TID 0000.0001) %MON ad_dynstat_aduvel_max        =   9.9507547782818E+01
(PID.TID 0000.0001) %MON ad_dynstat_aduvel_min        =  -1.5180455130581E+02
(PID.TID 0000.0001) %MON ad_dynstat_aduvel_mean       =   1.9153751271249E-01
(PID.TID 0000.0001) %MON ad_dynstat_aduvel_sd         =   4.6043057069181E+00
(PID.TID 0000.0001) %MON ad_dynstat_aduvel_del2       =   1.2437369396225E+00
(PID.TID 0000.0001) %MON ad_dynstat_advvel_max        =   1.1681053260764E+02
(PID.TID 0000.0001) %MON ad_dynstat_advvel_min        =  -9.3241144284647E+01
(PID.TID 0000.0001) %MON ad_dynstat_advvel_mean       =  -9.3076973080711E-01
(PID.TID 0000.0001) %MON ad_dynstat_advvel_sd         =   4.0718131004793E+00
(PID.TID 0000.0001) %MON ad_dynstat_advvel_del2       =   1.1223412672321E+00
(PID.TID 0000.0001) %MON ad_dynstat_adwvel_max        =   1.0800901574886E+02
(PID.TID 0000.0001) %MON ad_dynstat_adwvel_min        =  -6.4312631176340E+01
(PID.TID 0000.0001) %MON ad_dynstat_adwvel_mean       =  -2.4781723803264E-03
(PID.TID 0000.0001) %MON ad_dynstat_adwvel_sd         =   1.1847817317591E+00
(PID.TID 0000.0001) %MON ad_dynstat_adwvel_del2       =   1.9389759839631E-01
(PID.TID 0000.0001) %MON ad_dynstat_adtheta_max       =   2.7744706122755E+02
(PID.TID 0000.0001) %MON ad_dynstat_adtheta_min       =  -2.3415003806625E+02
(PID.TID 0000.0001) %MON ad_dynstat_adtheta_mean      =   6.1173827452486E-01
(PID.TID 0000.0001) %MON ad_dynstat_adtheta_sd        =   2.0305513709069E+00
(PID.TID 0000.0001) %MON ad_dynstat_adtheta_del2      =   2.9346288227712E-01
(PID.TID 0000.0001) %MON ad_dynstat_adsalt_max        =   8.9056465062752E+02
(PID.TID 0000.0001) %MON ad_dynstat_adsalt_min        =  -8.8082058299056E+02
(PID.TID 0000.0001) %MON ad_dynstat_adsalt_mean       =  -3.1053147028536E-03
(PID.TID 0000.0001) %MON ad_dynstat_adsalt_sd         =   2.7182787568139E+00
(PID.TID 0000.0001) %MON ad_dynstat_adsalt_del2       =   4.5866251982973E-01
(PID.TID 0000.0001) %MON ad_dynstat_adsst_max         =   1.7550819441766E+01
(PID.TID 0000.0001) %MON ad_dynstat_adsst_min         =  -2.5372436919755E+01
(PID.TID 0000.0001) %MON ad_dynstat_adsst_mean        =   2.1301430108437E+00
(PID.TID 0000.0001) %MON ad_dynstat_adsst_sd          =   3.5004966494646E+00
(PID.TID 0000.0001) %MON ad_dynstat_adsst_del2        =   4.6629981081561E-01
(PID.TID 0000.0001) %MON ad_dynstat_adsss_max         =   6.3092939294719E+01
(PID.TID 0000.0001) %MON ad_dynstat_adsss_min         =  -6.7344372056924E+01
(PID.TID 0000.0001) %MON ad_dynstat_adsss_mean        =   6.1772762266271E-02
(PID.TID 0000.0001) %MON ad_dynstat_adsss_sd          =   2.4336087552087E+00
(PID.TID 0000.0001) %MON ad_dynstat_adsss_del2        =   4.2689596315309E-01
(PID.TID 0000.0001) %MON ad_extforcing_adqnet_max     =   0.0000000000000E+00
(PID.TID 0000.0001) %MON ad_extforcing_adqnet_min     =   0.0000000000000E+00
(PID.TID 0000.0001) %MON ad_extforcing_adqnet_mean    =   0.0000000000000E+00
(PID.TID 0000.0001) %MON ad_extforcing_adqnet_sd      =   0.0000000000000E+00
(PID.TID 0000.0001) %MON ad_extforcing_adqnet_del2    =   0.0000000000000E+00
(PID.TID 0000.0001) %MON ad_extforcing_adqsw_max      =   2.4813638707977E-03
(PID.TID 0000.0001) %MON ad_extforcing_adqsw_min      =  -1.1745251787608E-02
(PID.TID 0000.0001) %MON ad_extforcing_adqsw_mean     =   5.5861916039819E-05
(PID.TID 0000.0001) %MON ad_extforcing_adqsw_sd       =   2.2334881117489E-04
(PID.TID 0000.0001) %MON ad_extforcing_adqsw_del2     =   3.1005758556598E-05
(PID.TID 0000.0001) %MON ad_extforcing_adempmr_max    =   0.0000000000000E+00
(PID.TID 0000.0001) %MON ad_extforcing_adempmr_min    =   0.0000000000000E+00
(PID.TID 0000.0001) %MON ad_extforcing_adempmr_mean   =   0.0000000000000E+00
(PID.TID 0000.0001) %MON ad_extforcing_adempmr_sd     =   0.0000000000000E+00
(PID.TID 0000.0001) %MON ad_extforcing_adempmr_del2   =   0.0000000000000E+00
(PID.TID 0000.0001) %MON ad_extforcing_adfu_max       =   0.0000000000000E+00
(PID.TID 0000.0001) %MON ad_extforcing_adfu_min       =   0.0000000000000E+00
(PID.TID 0000.0001) %MON ad_extforcing_adfu_mean      =   0.0000000000000E+00
(PID.TID 0000.0001) %MON ad_extforcing_adfu_sd        =   0.0000000000000E+00
(PID.TID 0000.0001) %MON ad_extforcing_adfu_del2      =   0.0000000000000E+00
(PID.TID 0000.0001) %MON ad_extforcing_adfv_max       =   0.0000000000000E+00
(PID.TID 0000.0001) %MON ad_extforcing_adfv_min       =   0.0000000000000E+00
(PID.TID 0000.0001) %MON ad_extforcing_adfv_mean      =   0.0000000000000E+00
(PID.TID 0000.0001) %MON ad_extforcing_adfv_sd        =   0.0000000000000E+00
(PID.TID 0000.0001) %MON ad_extforcing_adfv_del2      =   0.0000000000000E+00
(PID.TID 0000.0001) %MON ad_advcfl_aduvel_max         =   5.6108264020333E+01
(PID.TID 0000.0001) %MON ad_advcfl_advvel_max         =   3.8116402760610E+01
(PID.TID 0000.0001) %MON ad_advcfl_adwvel_max         =   1.5553298267836E+05
(PID.TID 0000.0001) %MON ad_advcfl_adW_hf_max         =   3.7327915842806E+05
(PID.TID 0000.0001) // =======================================================
(PID.TID 0000.0001) // End MONITOR dynamic field statistics
(PID.TID 0000.0001) // =======================================================
 cg2d: Sum(rhs),rhsMax =  -1.00260771663261E-06  7.40557442528332E-03
 cg2d: Sum(rhs),rhsMax =  -4.22088209575122E-05  4.21471931535038E+00
S/R EXTERNAL_FIELDS_LOAD: Reading new data:    1    2     72015  6.222096000000E+09
(PID.TID 0000.0001)  MDS_READ_FIELD: opening global file: trenberth_taux.bin
(PID.TID 0000.0001)  MDS_READ_FIELD: opening global file: trenberth_taux.bin
(PID.TID 0000.0001)  MDS_READ_FIELD: opening global file: trenberth_tauy.bin
(PID.TID 0000.0001)  MDS_READ_FIELD: opening global file: trenberth_tauy.bin
(PID.TID 0000.0001)  MDS_READ_FIELD: opening global file: shiQnet_cs32.bin
(PID.TID 0000.0001)  MDS_READ_FIELD: opening global file: shiQnet_cs32.bin
(PID.TID 0000.0001)  MDS_READ_FIELD: opening global file: shiEmPR_cs32.bin
(PID.TID 0000.0001)  MDS_READ_FIELD: opening global file: shiEmPR_cs32.bin
(PID.TID 0000.0001)  MDS_READ_FIELD: opening global file: lev_surfT_cs_12m.bin
(PID.TID 0000.0001)  MDS_READ_FIELD: opening global file: lev_surfT_cs_12m.bin
(PID.TID 0000.0001)  MDS_READ_FIELD: opening global file: lev_surfS_cs_12m.bin
(PID.TID 0000.0001)  MDS_READ_FIELD: opening global file: lev_surfS_cs_12m.bin
 cg2d: Sum(rhs),rhsMax =  -4.27385362229415E-05  4.21222997806887E+00
(PID.TID 0000.0001) // =======================================================
(PID.TID 0000.0001) // Begin MONITOR dynamic field statistics
(PID.TID 0000.0001) // =======================================================
(PID.TID 0000.0001) %MON ad_time_tsnumber             =                 72016
(PID.TID 0000.0001) %MON ad_time_secondsf             =   6.2221824000000E+09
(PID.TID 0000.0001) %MON ad_dynstat_adeta_max         =   2.4056040907017E+00
(PID.TID 0000.0001) %MON ad_dynstat_adeta_min         =  -1.4765097302761E+00
(PID.TID 0000.0001) %MON ad_dynstat_adeta_mean        =  -2.0574914480799E-02
(PID.TID 0000.0001) %MON ad_dynstat_adeta_sd          =   3.9527286130349E-01
(PID.TID 0000.0001) %MON ad_dynstat_adeta_del2        =   5.2138782064963E-02
(PID.TID 0000.0001) %MON ad_dynstat_aduvel_max        =   1.6027228445421E+02
(PID.TID 0000.0001) %MON ad_dynstat_aduvel_min        =  -1.9814996865169E+02
(PID.TID 0000.0001) %MON ad_dynstat_aduvel_mean       =  -8.2763577498655E-02
(PID.TID 0000.0001) %MON ad_dynstat_aduvel_sd         =   5.0392166031524E+00
(PID.TID 0000.0001) %MON ad_dynstat_aduvel_del2       =   1.4972566573207E+00
(PID.TID 0000.0001) %MON ad_dynstat_advvel_max        =   1.6729039413403E+02
(PID.TID 0000.0001) %MON ad_dynstat_advvel_min        =  -1.3661352066248E+02
(PID.TID 0000.0001) %MON ad_dynstat_advvel_mean       =  -8.3670377986987E-01
(PID.TID 0000.0001) %MON ad_dynstat_advvel_sd         =   4.6448201407097E+00
(PID.TID 0000.0001) %MON ad_dynstat_advvel_del2       =   1.3369305262813E+00
(PID.TID 0000.0001) %MON ad_dynstat_adwvel_max        =   1.3633219706762E+02
(PID.TID 0000.0001) %MON ad_dynstat_adwvel_min        =  -8.0754125492424E+01
(PID.TID 0000.0001) %MON ad_dynstat_adwvel_mean       =  -3.4732716447466E-03
(PID.TID 0000.0001) %MON ad_dynstat_adwvel_sd         =   1.4924773305511E+00
(PID.TID 0000.0001) %MON ad_dynstat_adwvel_del2       =   2.4275742030331E-01
(PID.TID 0000.0001) %MON ad_dynstat_adtheta_max       =   2.7467941937547E+02
(PID.TID 0000.0001) %MON ad_dynstat_adtheta_min       =  -2.2796325164057E+02
(PID.TID 0000.0001) %MON ad_dynstat_adtheta_mean      =   6.1149819318663E-01
(PID.TID 0000.0001) %MON ad_dynstat_adtheta_sd        =   2.0294010268327E+00
(PID.TID 0000.0001) %MON ad_dynstat_adtheta_del2      =   3.0244638280600E-01
(PID.TID 0000.0001) %MON ad_dynstat_adsalt_max        =   8.8160794882736E+02
(PID.TID 0000.0001) %MON ad_dynstat_adsalt_min        =  -8.7010026479440E+02
(PID.TID 0000.0001) %MON ad_dynstat_adsalt_mean       =  -3.2174997446151E-03
(PID.TID 0000.0001) %MON ad_dynstat_adsalt_sd         =   2.8293582297383E+00
(PID.TID 0000.0001) %MON ad_dynstat_adsalt_del2       =   5.5678097068631E-01
(PID.TID 0000.0001) %MON ad_dynstat_adsst_max         =   2.1038621060072E+01
(PID.TID 0000.0001) %MON ad_dynstat_adsst_min         =  -2.4672743507251E+01
(PID.TID 0000.0001) %MON ad_dynstat_adsst_mean        =   2.1301271014459E+00
(PID.TID 0000.0001) %MON ad_dynstat_adsst_sd          =   3.4842489290496E+00
(PID.TID 0000.0001) %MON ad_dynstat_adsst_del2        =   4.5987769624175E-01
(PID.TID 0000.0001) %MON ad_dynstat_adsss_max         =   6.2174253938268E+01
(PID.TID 0000.0001) %MON ad_dynstat_adsss_min         =  -8.0615738172261E+01
(PID.TID 0000.0001) %MON ad_dynstat_adsss_mean        =   4.8460369866642E-02
(PID.TID 0000.0001) %MON ad_dynstat_adsss_sd          =   2.5531330422056E+00
(PID.TID 0000.0001) %MON ad_dynstat_adsss_del2        =   4.7316031127387E-01
(PID.TID 0000.0001) %MON ad_extforcing_adqnet_max     =   0.0000000000000E+00
(PID.TID 0000.0001) %MON ad_extforcing_adqnet_min     =   0.0000000000000E+00
(PID.TID 0000.0001) %MON ad_extforcing_adqnet_mean    =   0.0000000000000E+00
(PID.TID 0000.0001) %MON ad_extforcing_adqnet_sd      =   0.0000000000000E+00
(PID.TID 0000.0001) %MON ad_extforcing_adqnet_del2    =   0.0000000000000E+00
(PID.TID 0000.0001) %MON ad_extforcing_adqsw_max      =   3.8394987166309E-03
(PID.TID 0000.0001) %MON ad_extforcing_adqsw_min      =  -1.7168199589396E-02
(PID.TID 0000.0001) %MON ad_extforcing_adqsw_mean     =   7.4482808828909E-05
(PID.TID 0000.0001) %MON ad_extforcing_adqsw_sd       =   3.1585820497048E-04
(PID.TID 0000.0001) %MON ad_extforcing_adqsw_del2     =   4.3337581465585E-05
(PID.TID 0000.0001) %MON ad_extforcing_adempmr_max    =   0.0000000000000E+00
(PID.TID 0000.0001) %MON ad_extforcing_adempmr_min    =   0.0000000000000E+00
(PID.TID 0000.0001) %MON ad_extforcing_adempmr_mean   =   0.0000000000000E+00
(PID.TID 0000.0001) %MON ad_extforcing_adempmr_sd     =   0.0000000000000E+00
(PID.TID 0000.0001) %MON ad_extforcing_adempmr_del2   =   0.0000000000000E+00
(PID.TID 0000.0001) %MON ad_extforcing_adfu_max       =   0.0000000000000E+00
(PID.TID 0000.0001) %MON ad_extforcing_adfu_min       =   0.0000000000000E+00
(PID.TID 0000.0001) %MON ad_extforcing_adfu_mean      =   0.0000000000000E+00
(PID.TID 0000.0001) %MON ad_extforcing_adfu_sd        =   0.0000000000000E+00
(PID.TID 0000.0001) %MON ad_extforcing_adfu_del2      =   0.0000000000000E+00
(PID.TID 0000.0001) %MON ad_extforcing_adfv_max       =   0.0000000000000E+00
(PID.TID 0000.0001) %MON ad_extforcing_adfv_min       =   0.0000000000000E+00
(PID.TID 0000.0001) %MON ad_extforcing_adfv_mean      =   0.0000000000000E+00
(PID.TID 0000.0001) %MON ad_extforcing_adfv_sd        =   0.0000000000000E+00
(PID.TID 0000.0001) %MON ad_extforcing_adfv_del2      =   0.0000000000000E+00
(PID.TID 0000.0001) %MON ad_advcfl_aduvel_max         =   7.3237927724135E+01
(PID.TID 0000.0001) %MON ad_advcfl_advvel_max         =   5.4588468166752E+01
(PID.TID 0000.0001) %MON ad_advcfl_adwvel_max         =   1.9631836377737E+05
(PID.TID 0000.0001) %MON ad_advcfl_adW_hf_max         =   4.7116407306569E+05
(PID.TID 0000.0001) // =======================================================
(PID.TID 0000.0001) // End MONITOR dynamic field statistics
(PID.TID 0000.0001) // =======================================================
 cg2d: Sum(rhs),rhsMax =  -1.95981708515230E-06  8.33524814804398E-03
(PID.TID 0000.0001) // =======================================================
(PID.TID 0000.0001) // Begin MONITOR dynamic field statistics
(PID.TID 0000.0001) // =======================================================
(PID.TID 0000.0001) %MON ad_time_tsnumber             =                 72015
(PID.TID 0000.0001) %MON ad_time_secondsf             =   6.2220960000000E+09
(PID.TID 0000.0001) %MON ad_dynstat_adeta_max         =   2.1852852248733E+00
(PID.TID 0000.0001) %MON ad_dynstat_adeta_min         =  -1.5399205252354E+00
(PID.TID 0000.0001) %MON ad_dynstat_adeta_mean        =  -2.0184872291204E-02
(PID.TID 0000.0001) %MON ad_dynstat_adeta_sd          =   3.8679653375515E-01
(PID.TID 0000.0001) %MON ad_dynstat_adeta_del2        =   5.0409393917195E-02
(PID.TID 0000.0001) %MON ad_dynstat_aduvel_max        =   2.4503125583853E+02
(PID.TID 0000.0001) %MON ad_dynstat_aduvel_min        =  -2.4158376439427E+02
(PID.TID 0000.0001) %MON ad_dynstat_aduvel_mean       =  -3.0794049640859E-01
(PID.TID 0000.0001) %MON ad_dynstat_aduvel_sd         =   5.5735919942252E+00
(PID.TID 0000.0001) %MON ad_dynstat_aduvel_del2       =   1.7161188299307E+00
(PID.TID 0000.0001) %MON ad_dynstat_advvel_max        =   2.1608968623338E+02
(PID.TID 0000.0001) %MON ad_dynstat_advvel_min        =  -1.8026893547164E+02
(PID.TID 0000.0001) %MON ad_dynstat_advvel_mean       =  -6.2664768753078E-01
(PID.TID 0000.0001) %MON ad_dynstat_advvel_sd         =   5.3671518856705E+00
(PID.TID 0000.0001) %MON ad_dynstat_advvel_del2       =   1.5464329536567E+00
(PID.TID 0000.0001) %MON ad_dynstat_adwvel_max        =   1.6339212480229E+02
(PID.TID 0000.0001) %MON ad_dynstat_adwvel_min        =  -9.6565358880269E+01
(PID.TID 0000.0001) %MON ad_dynstat_adwvel_mean       =  -4.4753657863944E-03
(PID.TID 0000.0001) %MON ad_dynstat_adwvel_sd         =   1.7911083626335E+00
(PID.TID 0000.0001) %MON ad_dynstat_adwvel_del2       =   2.8957935457719E-01
(PID.TID 0000.0001) %MON ad_dynstat_adtheta_max       =   2.6985478951997E+02
(PID.TID 0000.0001) %MON ad_dynstat_adtheta_min       =  -2.2046300162078E+02
(PID.TID 0000.0001) %MON ad_dynstat_adtheta_mean      =   6.1105322039685E-01
(PID.TID 0000.0001) %MON ad_dynstat_adtheta_sd        =   2.0277691113600E+00
(PID.TID 0000.0001) %MON ad_dynstat_adtheta_del2      =   3.1263589220563E-01
(PID.TID 0000.0001) %MON ad_dynstat_adsalt_max        =   8.6667888073190E+02
(PID.TID 0000.0001) %MON ad_dynstat_adsalt_min        =  -8.5344231790600E+02
(PID.TID 0000.0001) %MON ad_dynstat_adsalt_mean       =  -1.9558222502567E-03
(PID.TID 0000.0001) %MON ad_dynstat_adsalt_sd         =   2.9514417742170E+00
(PID.TID 0000.0001) %MON ad_dynstat_adsalt_del2       =   6.6005836859403E-01
(PID.TID 0000.0001) %MON ad_dynstat_adsst_max         =   2.3501886602700E+01
(PID.TID 0000.0001) %MON ad_dynstat_adsst_min         =  -2.3879507351624E+01
(PID.TID 0000.0001) %MON ad_dynstat_adsst_mean        =   2.1311651100504E+00
(PID.TID 0000.0001) %MON ad_dynstat_adsst_sd          =   3.4704730778036E+00
(PID.TID 0000.0001) %MON ad_dynstat_adsst_del2        =   4.5878471199200E-01
(PID.TID 0000.0001) %MON ad_dynstat_adsss_max         =   6.0917728674331E+01
(PID.TID 0000.0001) %MON ad_dynstat_adsss_min         =  -9.0052992279271E+01
(PID.TID 0000.0001) %MON ad_dynstat_adsss_mean        =   3.0947739407784E-02
(PID.TID 0000.0001) %MON ad_dynstat_adsss_sd          =   2.7119911396450E+00
(PID.TID 0000.0001) %MON ad_dynstat_adsss_del2        =   5.4040528783123E-01
(PID.TID 0000.0001) %MON ad_extforcing_adqnet_max     =   0.0000000000000E+00
(PID.TID 0000.0001) %MON ad_extforcing_adqnet_min     =   0.0000000000000E+00
(PID.TID 0000.0001) %MON ad_extforcing_adqnet_mean    =   0.0000000000000E+00
(PID.TID 0000.0001) %MON ad_extforcing_adqnet_sd      =   0.0000000000000E+00
(PID.TID 0000.0001) %MON ad_extforcing_adqnet_del2    =   0.0000000000000E+00
(PID.TID 0000.0001) %MON ad_extforcing_adqsw_max      =   5.1681691555880E-03
(PID.TID 0000.0001) %MON ad_extforcing_adqsw_min      =  -2.2539258913776E-02
(PID.TID 0000.0001) %MON ad_extforcing_adqsw_mean     =   9.3049906483941E-05
(PID.TID 0000.0001) %MON ad_extforcing_adqsw_sd       =   4.0862864106311E-04
(PID.TID 0000.0001) %MON ad_extforcing_adqsw_del2     =   5.5833372528183E-05
(PID.TID 0000.0001) %MON ad_extforcing_adempmr_max    =   0.0000000000000E+00
(PID.TID 0000.0001) %MON ad_extforcing_adempmr_min    =   0.0000000000000E+00
(PID.TID 0000.0001) %MON ad_extforcing_adempmr_mean   =   0.0000000000000E+00
(PID.TID 0000.0001) %MON ad_extforcing_adempmr_sd     =   0.0000000000000E+00
(PID.TID 0000.0001) %MON ad_extforcing_adempmr_del2   =   0.0000000000000E+00
(PID.TID 0000.0001) %MON ad_extforcing_adfu_max       =   0.0000000000000E+00
(PID.TID 0000.0001) %MON ad_extforcing_adfu_min       =   0.0000000000000E+00
(PID.TID 0000.0001) %MON ad_extforcing_adfu_mean      =   0.0000000000000E+00
(PID.TID 0000.0001) %MON ad_extforcing_adfu_sd        =   0.0000000000000E+00
(PID.TID 0000.0001) %MON ad_extforcing_adfu_del2      =   0.0000000000000E+00
(PID.TID 0000.0001) %MON ad_extforcing_adfv_max       =   0.0000000000000E+00
(PID.TID 0000.0001) %MON ad_extforcing_adfv_min       =   0.0000000000000E+00
(PID.TID 0000.0001) %MON ad_extforcing_adfv_mean      =   0.0000000000000E+00
(PID.TID 0000.0001) %MON ad_extforcing_adfv_sd        =   0.0000000000000E+00
(PID.TID 0000.0001) %MON ad_extforcing_adfv_del2      =   0.0000000000000E+00
(PID.TID 0000.0001) %MON ad_advcfl_aduvel_max         =   1.0525760831167E+02
(PID.TID 0000.0001) %MON ad_advcfl_advvel_max         =   7.0512147569357E+01
(PID.TID 0000.0001) %MON ad_advcfl_adwvel_max         =   2.3528465971529E+05
(PID.TID 0000.0001) %MON ad_advcfl_adW_hf_max         =   5.6468318331670E+05
(PID.TID 0000.0001) // =======================================================
(PID.TID 0000.0001) // End MONITOR dynamic field statistics
(PID.TID 0000.0001) // =======================================================
 cg2d: Sum(rhs),rhsMax =  -3.52208793115904E-06  9.54990375659595E-03
 cg2d: Sum(rhs),rhsMax =  -3.51715771103045E-05  4.22101139277260E+00
 cg2d: Sum(rhs),rhsMax =  -3.94073671259321E-05  4.21764141185755E+00
(PID.TID 0000.0001) // =======================================================
(PID.TID 0000.0001) // Begin MONITOR dynamic field statistics
(PID.TID 0000.0001) // =======================================================
(PID.TID 0000.0001) %MON ad_time_tsnumber             =                 72014
(PID.TID 0000.0001) %MON ad_time_secondsf             =   6.2220096000000E+09
(PID.TID 0000.0001) %MON ad_dynstat_adeta_max         =   2.4404689609768E+00
(PID.TID 0000.0001) %MON ad_dynstat_adeta_min         =  -1.3907152653095E+00
(PID.TID 0000.0001) %MON ad_dynstat_adeta_mean        =  -2.0097531899354E-02
(PID.TID 0000.0001) %MON ad_dynstat_adeta_sd          =   3.7871187575712E-01
(PID.TID 0000.0001) %MON ad_dynstat_adeta_del2        =   4.8122194672703E-02
(PID.TID 0000.0001) %MON ad_dynstat_aduvel_max        =   3.5539574834495E+02
(PID.TID 0000.0001) %MON ad_dynstat_aduvel_min        =  -2.8170815149795E+02
(PID.TID 0000.0001) %MON ad_dynstat_aduvel_mean       =  -4.2586950467577E-01
(PID.TID 0000.0001) %MON ad_dynstat_aduvel_sd         =   6.3291009744869E+00
(PID.TID 0000.0001) %MON ad_dynstat_aduvel_del2       =   1.9295904789407E+00
(PID.TID 0000.0001) %MON ad_dynstat_advvel_max        =   2.6077523946585E+02
(PID.TID 0000.0001) %MON ad_dynstat_advvel_min        =  -2.2708404371471E+02
(PID.TID 0000.0001) %MON ad_dynstat_advvel_mean       =  -3.9484254296279E-01
(PID.TID 0000.0001) %MON ad_dynstat_advvel_sd         =   6.1334903549643E+00
(PID.TID 0000.0001) %MON ad_dynstat_advvel_del2       =   1.7350483003706E+00
(PID.TID 0000.0001) %MON ad_dynstat_adwvel_max        =   1.8874141689983E+02
(PID.TID 0000.0001) %MON ad_dynstat_adwvel_min        =  -1.1174078911761E+02
(PID.TID 0000.0001) %MON ad_dynstat_adwvel_mean       =  -5.4209811424424E-03
(PID.TID 0000.0001) %MON ad_dynstat_adwvel_sd         =   2.0775146490579E+00
(PID.TID 0000.0001) %MON ad_dynstat_adwvel_del2       =   3.3401563586457E-01
(PID.TID 0000.0001) %MON ad_dynstat_adtheta_max       =   2.6582817181258E+02
(PID.TID 0000.0001) %MON ad_dynstat_adtheta_min       =  -2.1387887649692E+02
(PID.TID 0000.0001) %MON ad_dynstat_adtheta_mean      =   6.1104949537820E-01
(PID.TID 0000.0001) %MON ad_dynstat_adtheta_sd        =   2.0279428264883E+00
(PID.TID 0000.0001) %MON ad_dynstat_adtheta_del2      =   3.2394402777670E-01
(PID.TID 0000.0001) %MON ad_dynstat_adsalt_max        =   8.5427524021711E+02
(PID.TID 0000.0001) %MON ad_dynstat_adsalt_min        =  -8.3966701388835E+02
(PID.TID 0000.0001) %MON ad_dynstat_adsalt_mean       =  -2.8425885831871E-03
(PID.TID 0000.0001) %MON ad_dynstat_adsalt_sd         =   3.1020352233278E+00
(PID.TID 0000.0001) %MON ad_dynstat_adsalt_del2       =   7.6787260529124E-01
(PID.TID 0000.0001) %MON ad_dynstat_adsst_max         =   2.5243127243590E+01
(PID.TID 0000.0001) %MON ad_dynstat_adsst_min         =  -2.3145311907883E+01
(PID.TID 0000.0001) %MON ad_dynstat_adsst_mean        =   2.1329027615159E+00
(PID.TID 0000.0001) %MON ad_dynstat_adsst_sd          =   3.4559454554598E+00
(PID.TID 0000.0001) %MON ad_dynstat_adsst_del2        =   4.6031876136962E-01
(PID.TID 0000.0001) %MON ad_dynstat_adsss_max         =   6.2069487055407E+01
(PID.TID 0000.0001) %MON ad_dynstat_adsss_min         =  -9.6779048065441E+01
(PID.TID 0000.0001) %MON ad_dynstat_adsss_mean        =   1.1023554732350E-02
(PID.TID 0000.0001) %MON ad_dynstat_adsss_sd          =   2.8714999044194E+00
(PID.TID 0000.0001) %MON ad_dynstat_adsss_del2        =   6.2264058193829E-01
(PID.TID 0000.0001) %MON ad_extforcing_adqnet_max     =   0.0000000000000E+00
(PID.TID 0000.0001) %MON ad_extforcing_adqnet_min     =   0.0000000000000E+00
(PID.TID 0000.0001) %MON ad_extforcing_adqnet_mean    =   0.0000000000000E+00
(PID.TID 0000.0001) %MON ad_extforcing_adqnet_sd      =   0.0000000000000E+00
(PID.TID 0000.0001) %MON ad_extforcing_adqnet_del2    =   0.0000000000000E+00
(PID.TID 0000.0001) %MON ad_extforcing_adqsw_max      =   6.4656237814997E-03
(PID.TID 0000.0001) %MON ad_extforcing_adqsw_min      =  -2.7796130083539E-02
(PID.TID 0000.0001) %MON ad_extforcing_adqsw_mean     =   1.1151712077207E-04
(PID.TID 0000.0001) %MON ad_extforcing_adqsw_sd       =   5.0060031980671E-04
(PID.TID 0000.0001) %MON ad_extforcing_adqsw_del2     =   6.8305511813604E-05
(PID.TID 0000.0001) %MON ad_extforcing_adempmr_max    =   0.0000000000000E+00
(PID.TID 0000.0001) %MON ad_extforcing_adempmr_min    =   0.0000000000000E+00
(PID.TID 0000.0001) %MON ad_extforcing_adempmr_mean   =   0.0000000000000E+00
(PID.TID 0000.0001) %MON ad_extforcing_adempmr_sd     =   0.0000000000000E+00
(PID.TID 0000.0001) %MON ad_extforcing_adempmr_del2   =   0.0000000000000E+00
(PID.TID 0000.0001) %MON ad_extforcing_adfu_max       =   0.0000000000000E+00
(PID.TID 0000.0001) %MON ad_extforcing_adfu_min       =   0.0000000000000E+00
(PID.TID 0000.0001) %MON ad_extforcing_adfu_mean      =   0.0000000000000E+00
(PID.TID 0000.0001) %MON ad_extforcing_adfu_sd        =   0.0000000000000E+00
(PID.TID 0000.0001) %MON ad_extforcing_adfu_del2      =   0.0000000000000E+00
(PID.TID 0000.0001) %MON ad_extforcing_adfv_max       =   0.0000000000000E+00
(PID.TID 0000.0001) %MON ad_extforcing_adfv_min       =   0.0000000000000E+00
(PID.TID 0000.0001) %MON ad_extforcing_adfv_mean      =   0.0000000000000E+00
(PID.TID 0000.0001) %MON ad_extforcing_adfv_sd        =   0.0000000000000E+00
(PID.TID 0000.0001) %MON ad_extforcing_adfv_del2      =   0.0000000000000E+00
(PID.TID 0000.0001) %MON ad_advcfl_aduvel_max         =   1.5266667244924E+02
(PID.TID 0000.0001) %MON ad_advcfl_advvel_max         =   8.5093474326170E+01
(PID.TID 0000.0001) %MON ad_advcfl_adwvel_max         =   2.7178764033575E+05
(PID.TID 0000.0001) %MON ad_advcfl_adW_hf_max         =   6.5229033680581E+05
(PID.TID 0000.0001) // =======================================================
(PID.TID 0000.0001) // End MONITOR dynamic field statistics
(PID.TID 0000.0001) // =======================================================
 cg2d: Sum(rhs),rhsMax =  -4.98493715314543E-06  9.91760372047836E-03
(PID.TID 0000.0001) // =======================================================
(PID.TID 0000.0001) // Begin MONITOR dynamic field statistics
(PID.TID 0000.0001) // =======================================================
(PID.TID 0000.0001) %MON ad_time_tsnumber             =                 72013
(PID.TID 0000.0001) %MON ad_time_secondsf             =   6.2219232000000E+09
(PID.TID 0000.0001) %MON ad_dynstat_adeta_max         =   2.6179653448901E+00
(PID.TID 0000.0001) %MON ad_dynstat_adeta_min         =  -1.2359902641058E+00
(PID.TID 0000.0001) %MON ad_dynstat_adeta_mean        =  -2.0178284292797E-02
(PID.TID 0000.0001) %MON ad_dynstat_adeta_sd          =   3.7505394521035E-01
(PID.TID 0000.0001) %MON ad_dynstat_adeta_del2        =   4.6046279146187E-02
(PID.TID 0000.0001) %MON ad_dynstat_aduvel_max        =   4.7265639200165E+02
(PID.TID 0000.0001) %MON ad_dynstat_aduvel_min        =  -3.1748486828194E+02
(PID.TID 0000.0001) %MON ad_dynstat_aduvel_mean       =  -4.4397378377260E-01
(PID.TID 0000.0001) %MON ad_dynstat_aduvel_sd         =   7.1428557845872E+00
(PID.TID 0000.0001) %MON ad_dynstat_aduvel_del2       =   2.1702964002272E+00
(PID.TID 0000.0001) %MON ad_dynstat_advvel_max        =   3.0287914832596E+02
(PID.TID 0000.0001) %MON ad_dynstat_advvel_min        =  -2.7036681893940E+02
(PID.TID 0000.0001) %MON ad_dynstat_advvel_mean       =  -1.9496788020724E-01
(PID.TID 0000.0001) %MON ad_dynstat_advvel_sd         =   6.8844352387397E+00
(PID.TID 0000.0001) %MON ad_dynstat_advvel_del2       =   1.9052240973739E+00
(PID.TID 0000.0001) %MON ad_dynstat_adwvel_max        =   2.1226813436131E+02
(PID.TID 0000.0001) %MON ad_dynstat_adwvel_min        =  -1.2620100974751E+02
(PID.TID 0000.0001) %MON ad_dynstat_adwvel_mean       =  -6.3301456596645E-03
(PID.TID 0000.0001) %MON ad_dynstat_adwvel_sd         =   2.3500040818688E+00
(PID.TID 0000.0001) %MON ad_dynstat_adwvel_del2       =   3.7571890986464E-01
(PID.TID 0000.0001) %MON ad_dynstat_adtheta_max       =   2.6159165360102E+02
(PID.TID 0000.0001) %MON ad_dynstat_adtheta_min       =  -2.0718019402697E+02
(PID.TID 0000.0001) %MON ad_dynstat_adtheta_mean      =   6.1156149151034E-01
(PID.TID 0000.0001) %MON ad_dynstat_adtheta_sd        =   2.0293957946586E+00
(PID.TID 0000.0001) %MON ad_dynstat_adtheta_del2      =   3.3618711134674E-01
(PID.TID 0000.0001) %MON ad_dynstat_adsalt_max        =   8.4067361237423E+02
(PID.TID 0000.0001) %MON ad_dynstat_adsalt_min        =  -8.2540294477075E+02
(PID.TID 0000.0001) %MON ad_dynstat_adsalt_mean       =  -6.5382712140983E-03
(PID.TID 0000.0001) %MON ad_dynstat_adsalt_sd         =   3.2739357245758E+00
(PID.TID 0000.0001) %MON ad_dynstat_adsalt_del2       =   8.8242982977849E-01
(PID.TID 0000.0001) %MON ad_dynstat_adsst_max         =   2.6477240801189E+01
(PID.TID 0000.0001) %MON ad_dynstat_adsst_min         =  -2.2487810885233E+01
(PID.TID 0000.0001) %MON ad_dynstat_adsst_mean        =   2.1347604152365E+00
(PID.TID 0000.0001) %MON ad_dynstat_adsst_sd          =   3.4399398029666E+00
(PID.TID 0000.0001) %MON ad_dynstat_adsst_del2        =   4.6361747827149E-01
(PID.TID 0000.0001) %MON ad_dynstat_adsss_max         =   6.4401484240378E+01
(PID.TID 0000.0001) %MON ad_dynstat_adsss_min         =  -1.0159488527811E+02
(PID.TID 0000.0001) %MON ad_dynstat_adsss_mean        =  -9.2203039167545E-03
(PID.TID 0000.0001) %MON ad_dynstat_adsss_sd          =   3.0359335468196E+00
(PID.TID 0000.0001) %MON ad_dynstat_adsss_del2        =   7.1242511300775E-01
(PID.TID 0000.0001) %MON ad_extforcing_adqnet_max     =   0.0000000000000E+00
(PID.TID 0000.0001) %MON ad_extforcing_adqnet_min     =   0.0000000000000E+00
(PID.TID 0000.0001) %MON ad_extforcing_adqnet_mean    =   0.0000000000000E+00
(PID.TID 0000.0001) %MON ad_extforcing_adqnet_sd      =   0.0000000000000E+00
(PID.TID 0000.0001) %MON ad_extforcing_adqnet_del2    =   0.0000000000000E+00
(PID.TID 0000.0001) %MON ad_extforcing_adqsw_max      =   7.8790393518027E-03
(PID.TID 0000.0001) %MON ad_extforcing_adqsw_min      =  -3.2945081088425E-02
(PID.TID 0000.0001) %MON ad_extforcing_adqsw_mean     =   1.2986190942578E-04
(PID.TID 0000.0001) %MON ad_extforcing_adqsw_sd       =   5.9157082882000E-04
(PID.TID 0000.0001) %MON ad_extforcing_adqsw_del2     =   8.0682409061255E-05
(PID.TID 0000.0001) %MON ad_extforcing_adempmr_max    =   0.0000000000000E+00
(PID.TID 0000.0001) %MON ad_extforcing_adempmr_min    =   0.0000000000000E+00
(PID.TID 0000.0001) %MON ad_extforcing_adempmr_mean   =   0.0000000000000E+00
(PID.TID 0000.0001) %MON ad_extforcing_adempmr_sd     =   0.0000000000000E+00
(PID.TID 0000.0001) %MON ad_extforcing_adempmr_del2   =   0.0000000000000E+00
(PID.TID 0000.0001) %MON ad_extforcing_adfu_max       =   0.0000000000000E+00
(PID.TID 0000.0001) %MON ad_extforcing_adfu_min       =   0.0000000000000E+00
(PID.TID 0000.0001) %MON ad_extforcing_adfu_mean      =   0.0000000000000E+00
(PID.TID 0000.0001) %MON ad_extforcing_adfu_sd        =   0.0000000000000E+00
(PID.TID 0000.0001) %MON ad_extforcing_adfu_del2      =   0.0000000000000E+00
(PID.TID 0000.0001) %MON ad_extforcing_adfv_max       =   0.0000000000000E+00
(PID.TID 0000.0001) %MON ad_extforcing_adfv_min       =   0.0000000000000E+00
(PID.TID 0000.0001) %MON ad_extforcing_adfv_mean      =   0.0000000000000E+00
(PID.TID 0000.0001) %MON ad_extforcing_adfv_sd        =   0.0000000000000E+00
(PID.TID 0000.0001) %MON ad_extforcing_adfv_del2      =   0.0000000000000E+00
(PID.TID 0000.0001) %MON ad_advcfl_aduvel_max         =   2.0303810305777E+02
(PID.TID 0000.0001) %MON ad_advcfl_advvel_max         =   1.0569013497262E+02
(PID.TID 0000.0001) %MON ad_advcfl_adwvel_max         =   3.0566611348028E+05
(PID.TID 0000.0001) %MON ad_advcfl_adW_hf_max         =   7.3359867235267E+05
(PID.TID 0000.0001) // =======================================================
(PID.TID 0000.0001) // End MONITOR dynamic field statistics
(PID.TID 0000.0001) // =======================================================
 cg2d: Sum(rhs),rhsMax =  -5.71568264472059E-06  1.29282953133574E-02
 cg2d: Sum(rhs),rhsMax =  -2.89041178689331E-05  4.22909356257641E+00
 cg2d: Sum(rhs),rhsMax =  -3.15951720608609E-05  4.22483241644141E+00
(PID.TID 0000.0001) // =======================================================
(PID.TID 0000.0001) // Begin MONITOR dynamic field statistics
(PID.TID 0000.0001) // =======================================================
(PID.TID 0000.0001) %MON ad_time_tsnumber             =                 72012
(PID.TID 0000.0001) %MON ad_time_secondsf             =   6.2218368000000E+09
(PID.TID 0000.0001) %MON ad_dynstat_adeta_max         =   3.3999183382327E+00
(PID.TID 0000.0001) %MON ad_dynstat_adeta_min         =  -1.2193185476482E+00
(PID.TID 0000.0001) %MON ad_dynstat_adeta_mean        =  -2.0478281860627E-02
(PID.TID 0000.0001) %MON ad_dynstat_adeta_sd          =   3.7591515550739E-01
(PID.TID 0000.0001) %MON ad_dynstat_adeta_del2        =   4.4498046756099E-02
(PID.TID 0000.0001) %MON ad_dynstat_aduvel_max        =   6.0543609702538E+02
(PID.TID 0000.0001) %MON ad_dynstat_aduvel_min        =  -3.7532498881774E+02
(PID.TID 0000.0001) %MON ad_dynstat_aduvel_mean       =  -3.7864233657830E-01
(PID.TID 0000.0001) %MON ad_dynstat_aduvel_sd         =   7.9167749872313E+00
(PID.TID 0000.0001) %MON ad_dynstat_aduvel_del2       =   2.4027726209437E+00
(PID.TID 0000.0001) %MON ad_dynstat_advvel_max        =   3.4172309916045E+02
(PID.TID 0000.0001) %MON ad_dynstat_advvel_min        =  -3.1215934384320E+02
(PID.TID 0000.0001) %MON ad_dynstat_advvel_mean       =  -4.1207414171211E-02
(PID.TID 0000.0001) %MON ad_dynstat_advvel_sd         =   7.6204902463953E+00
(PID.TID 0000.0001) %MON ad_dynstat_advvel_del2       =   2.0759554164676E+00
(PID.TID 0000.0001) %MON ad_dynstat_adwvel_max        =   2.3397911838963E+02
(PID.TID 0000.0001) %MON ad_dynstat_adwvel_min        =  -1.3984034675810E+02
(PID.TID 0000.0001) %MON ad_dynstat_adwvel_mean       =  -7.1997000628120E-03
(PID.TID 0000.0001) %MON ad_dynstat_adwvel_sd         =   2.6084379682369E+00
(PID.TID 0000.0001) %MON ad_dynstat_adwvel_del2       =   4.1559618340651E-01
(PID.TID 0000.0001) %MON ad_dynstat_adtheta_max       =   2.5792109521219E+02
(PID.TID 0000.0001) %MON ad_dynstat_adtheta_min       =  -2.0104255925863E+02
(PID.TID 0000.0001) %MON ad_dynstat_adtheta_mean      =   6.1243894870232E-01
(PID.TID 0000.0001) %MON ad_dynstat_adtheta_sd        =   2.0330334952599E+00
(PID.TID 0000.0001) %MON ad_dynstat_adtheta_del2      =   3.4859319372026E-01
(PID.TID 0000.0001) %MON ad_dynstat_adsalt_max        =   8.2845322602965E+02
(PID.TID 0000.0001) %MON ad_dynstat_adsalt_min        =  -8.1305321337019E+02
(PID.TID 0000.0001) %MON ad_dynstat_adsalt_mean       =  -1.2250558856776E-02
(PID.TID 0000.0001) %MON ad_dynstat_adsalt_sd         =   3.4724632860499E+00
(PID.TID 0000.0001) %MON ad_dynstat_adsalt_del2       =   9.9882909839521E-01
(PID.TID 0000.0001) %MON ad_dynstat_adsst_max         =   2.7335725979556E+01
(PID.TID 0000.0001) %MON ad_dynstat_adsst_min         =  -2.2433959946426E+01
(PID.TID 0000.0001) %MON ad_dynstat_adsst_mean        =   2.1366060890723E+00
(PID.TID 0000.0001) %MON ad_dynstat_adsst_sd          =   3.4242744995032E+00
(PID.TID 0000.0001) %MON ad_dynstat_adsst_del2        =   4.6751000544618E-01
(PID.TID 0000.0001) %MON ad_dynstat_adsss_max         =   6.6587159304615E+01
(PID.TID 0000.0001) %MON ad_dynstat_adsss_min         =  -1.0499221652637E+02
(PID.TID 0000.0001) %MON ad_dynstat_adsss_mean        =  -2.8868418017215E-02
(PID.TID 0000.0001) %MON ad_dynstat_adsss_sd          =   3.2129225809106E+00
(PID.TID 0000.0001) %MON ad_dynstat_adsss_del2        =   8.1070336134014E-01
(PID.TID 0000.0001) %MON ad_extforcing_adqnet_max     =   0.0000000000000E+00
(PID.TID 0000.0001) %MON ad_extforcing_adqnet_min     =   0.0000000000000E+00
(PID.TID 0000.0001) %MON ad_extforcing_adqnet_mean    =   0.0000000000000E+00
(PID.TID 0000.0001) %MON ad_extforcing_adqnet_sd      =   0.0000000000000E+00
(PID.TID 0000.0001) %MON ad_extforcing_adqnet_del2    =   0.0000000000000E+00
(PID.TID 0000.0001) %MON ad_extforcing_adqsw_max      =   9.4331245144029E-03
(PID.TID 0000.0001) %MON ad_extforcing_adqsw_min      =  -3.7977282703262E-02
(PID.TID 0000.0001) %MON ad_extforcing_adqsw_mean     =   1.4808225176489E-04
(PID.TID 0000.0001) %MON ad_extforcing_adqsw_sd       =   6.8123016775636E-04
(PID.TID 0000.0001) %MON ad_extforcing_adqsw_del2     =   9.2891368372403E-05
(PID.TID 0000.0001) %MON ad_extforcing_adempmr_max    =   0.0000000000000E+00
(PID.TID 0000.0001) %MON ad_extforcing_adempmr_min    =   0.0000000000000E+00
(PID.TID 0000.0001) %MON ad_extforcing_adempmr_mean   =   0.0000000000000E+00
(PID.TID 0000.0001) %MON ad_extforcing_adempmr_sd     =   0.0000000000000E+00
(PID.TID 0000.0001) %MON ad_extforcing_adempmr_del2   =   0.0000000000000E+00
(PID.TID 0000.0001) %MON ad_extforcing_adfu_max       =   0.0000000000000E+00
(PID.TID 0000.0001) %MON ad_extforcing_adfu_min       =   0.0000000000000E+00
(PID.TID 0000.0001) %MON ad_extforcing_adfu_mean      =   0.0000000000000E+00
(PID.TID 0000.0001) %MON ad_extforcing_adfu_sd        =   0.0000000000000E+00
(PID.TID 0000.0001) %MON ad_extforcing_adfu_del2      =   0.0000000000000E+00
(PID.TID 0000.0001) %MON ad_extforcing_adfv_max       =   0.0000000000000E+00
(PID.TID 0000.0001) %MON ad_extforcing_adfv_min       =   0.0000000000000E+00
(PID.TID 0000.0001) %MON ad_extforcing_adfv_mean      =   0.0000000000000E+00
(PID.TID 0000.0001) %MON ad_extforcing_adfv_sd        =   0.0000000000000E+00
(PID.TID 0000.0001) %MON ad_extforcing_adfv_del2      =   0.0000000000000E+00
(PID.TID 0000.0001) %MON ad_advcfl_aduvel_max         =   2.6007602720055E+02
(PID.TID 0000.0001) %MON ad_advcfl_advvel_max         =   1.3459590658660E+02
(PID.TID 0000.0001) %MON ad_advcfl_adwvel_max         =   3.3692993048107E+05
(PID.TID 0000.0001) %MON ad_advcfl_adW_hf_max         =   8.0863183315456E+05
(PID.TID 0000.0001) // =======================================================
(PID.TID 0000.0001) // End MONITOR dynamic field statistics
(PID.TID 0000.0001) // =======================================================
 cg2d: Sum(rhs),rhsMax =  -4.94111360648517E-06  1.16950632600494E-02
(PID.TID 0000.0001) // =======================================================
(PID.TID 0000.0001) // Begin MONITOR dynamic field statistics
(PID.TID 0000.0001) // =======================================================
(PID.TID 0000.0001) %MON ad_time_tsnumber             =                 72011
(PID.TID 0000.0001) %MON ad_time_secondsf             =   6.2217504000000E+09
(PID.TID 0000.0001) %MON ad_dynstat_adeta_max         =   3.1974088145653E+00
(PID.TID 0000.0001) %MON ad_dynstat_adeta_min         =  -1.2047184645857E+00
(PID.TID 0000.0001) %MON ad_dynstat_adeta_mean        =  -2.0839492741241E-02
(PID.TID 0000.0001) %MON ad_dynstat_adeta_sd          =   3.7802495341307E-01
(PID.TID 0000.0001) %MON ad_dynstat_adeta_del2        =   4.2350554484657E-02
(PID.TID 0000.0001) %MON ad_dynstat_aduvel_max        =   7.2611713102168E+02
(PID.TID 0000.0001) %MON ad_dynstat_aduvel_min        =  -4.4440576505038E+02
(PID.TID 0000.0001) %MON ad_dynstat_aduvel_mean       =  -2.6253539427071E-01
(PID.TID 0000.0001) %MON ad_dynstat_aduvel_sd         =   8.6190222533236E+00
(PID.TID 0000.0001) %MON ad_dynstat_aduvel_del2       =   2.6090623451617E+00
(PID.TID 0000.0001) %MON ad_dynstat_advvel_max        =   3.7758544343344E+02
(PID.TID 0000.0001) %MON ad_dynstat_advvel_min        =  -3.6168657994075E+02
(PID.TID 0000.0001) %MON ad_dynstat_advvel_mean       =   7.3756132462476E-02
(PID.TID 0000.0001) %MON ad_dynstat_advvel_sd         =   8.3176030085458E+00
(PID.TID 0000.0001) %MON ad_dynstat_advvel_del2       =   2.2456310880103E+00
(PID.TID 0000.0001) %MON ad_dynstat_adwvel_max        =   2.5380502466537E+02
(PID.TID 0000.0001) %MON ad_dynstat_adwvel_min        =  -1.5255657333733E+02
(PID.TID 0000.0001) %MON ad_dynstat_adwvel_mean       =  -8.0004176445833E-03
(PID.TID 0000.0001) %MON ad_dynstat_adwvel_sd         =   2.8518100544266E+00
(PID.TID 0000.0001) %MON ad_dynstat_adwvel_del2       =   4.5228234726062E-01
(PID.TID 0000.0001) %MON ad_dynstat_adtheta_max       =   2.5413205494015E+02
(PID.TID 0000.0001) %MON ad_dynstat_adtheta_min       =  -1.9496259779686E+02
(PID.TID 0000.0001) %MON ad_dynstat_adtheta_mean      =   6.1364756610219E-01
(PID.TID 0000.0001) %MON ad_dynstat_adtheta_sd        =   2.0390442159387E+00
(PID.TID 0000.0001) %MON ad_dynstat_adtheta_del2      =   3.6079100944227E-01
(PID.TID 0000.0001) %MON ad_dynstat_adsalt_max        =   8.1581910146233E+02
(PID.TID 0000.0001) %MON ad_dynstat_adsalt_min        =  -8.0039760394900E+02
(PID.TID 0000.0001) %MON ad_dynstat_adsalt_mean       =  -1.9713644611156E-02
(PID.TID 0000.0001) %MON ad_dynstat_adsalt_sd         =   3.6975719634000E+00
(PID.TID 0000.0001) %MON ad_dynstat_adsalt_del2       =   1.1110762038677E+00
(PID.TID 0000.0001) %MON ad_dynstat_adsst_max         =   2.7900198199480E+01
(PID.TID 0000.0001) %MON ad_dynstat_adsst_min         =  -2.2733596965214E+01
(PID.TID 0000.0001) %MON ad_dynstat_adsst_mean        =   2.1381591879105E+00
(PID.TID 0000.0001) %MON ad_dynstat_adsst_sd          =   3.4083679553772E+00
(PID.TID 0000.0001) %MON ad_dynstat_adsst_del2        =   4.7175011999831E-01
(PID.TID 0000.0001) %MON ad_dynstat_adsss_max         =   6.8184396008122E+01
(PID.TID 0000.0001) %MON ad_dynstat_adsss_min         =  -1.0727685625119E+02
(PID.TID 0000.0001) %MON ad_dynstat_adsss_mean        =  -4.7140892154298E-02
(PID.TID 0000.0001) %MON ad_dynstat_adsss_sd          =   3.4029836321953E+00
(PID.TID 0000.0001) %MON ad_dynstat_adsss_del2        =   9.0926295837774E-01
(PID.TID 0000.0001) %MON ad_extforcing_adqnet_max     =   0.0000000000000E+00
(PID.TID 0000.0001) %MON ad_extforcing_adqnet_min     =   0.0000000000000E+00
(PID.TID 0000.0001) %MON ad_extforcing_adqnet_mean    =   0.0000000000000E+00
(PID.TID 0000.0001) %MON ad_extforcing_adqnet_sd      =   0.0000000000000E+00
(PID.TID 0000.0001) %MON ad_extforcing_adqnet_del2    =   0.0000000000000E+00
(PID.TID 0000.0001) %MON ad_extforcing_adqsw_max      =   1.0973529942569E-02
(PID.TID 0000.0001) %MON ad_extforcing_adqsw_min      =  -4.2901733351351E-02
(PID.TID 0000.0001) %MON ad_extforcing_adqsw_mean     =   1.6617423542028E-04
(PID.TID 0000.0001) %MON ad_extforcing_adqsw_sd       =   7.6944760720546E-04
(PID.TID 0000.0001) %MON ad_extforcing_adqsw_del2     =   1.0486770254424E-04
(PID.TID 0000.0001) %MON ad_extforcing_adempmr_max    =   0.0000000000000E+00
(PID.TID 0000.0001) %MON ad_extforcing_adempmr_min    =   0.0000000000000E+00
(PID.TID 0000.0001) %MON ad_extforcing_adempmr_mean   =   0.0000000000000E+00
(PID.TID 0000.0001) %MON ad_extforcing_adempmr_sd     =   0.0000000000000E+00
(PID.TID 0000.0001) %MON ad_extforcing_adempmr_del2   =   0.0000000000000E+00
(PID.TID 0000.0001) %MON ad_extforcing_adfu_max       =   0.0000000000000E+00
(PID.TID 0000.0001) %MON ad_extforcing_adfu_min       =   0.0000000000000E+00
(PID.TID 0000.0001) %MON ad_extforcing_adfu_mean      =   0.0000000000000E+00
(PID.TID 0000.0001) %MON ad_extforcing_adfu_sd        =   0.0000000000000E+00
(PID.TID 0000.0001) %MON ad_extforcing_adfu_del2      =   0.0000000000000E+00
(PID.TID 0000.0001) %MON ad_extforcing_adfv_max       =   0.0000000000000E+00
(PID.TID 0000.0001) %MON ad_extforcing_adfv_min       =   0.0000000000000E+00
(PID.TID 0000.0001) %MON ad_extforcing_adfv_mean      =   0.0000000000000E+00
(PID.TID 0000.0001) %MON ad_extforcing_adfv_sd        =   0.0000000000000E+00
(PID.TID 0000.0001) %MON ad_extforcing_adfv_del2      =   0.0000000000000E+00
(PID.TID 0000.0001) %MON ad_advcfl_aduvel_max         =   3.1191674835084E+02
(PID.TID 0000.0001) %MON ad_advcfl_advvel_max         =   1.5765408467816E+02
(PID.TID 0000.0001) %MON ad_advcfl_adwvel_max         =   3.6547923551813E+05
(PID.TID 0000.0001) %MON ad_advcfl_adW_hf_max         =   8.7715016524352E+05
(PID.TID 0000.0001) // =======================================================
(PID.TID 0000.0001) // End MONITOR dynamic field statistics
(PID.TID 0000.0001) // =======================================================
 cg2d: Sum(rhs),rhsMax =  -2.84998227925780E-06  9.80529477023779E-03
 cg2d: Sum(rhs),rhsMax =  -2.54245174744483E-05  4.23881440178515E+00
 cg2d: Sum(rhs),rhsMax =  -2.69899075817648E-05  4.23376857927863E+00
(PID.TID 0000.0001) // =======================================================
(PID.TID 0000.0001) // Begin MONITOR dynamic field statistics
(PID.TID 0000.0001) // =======================================================
(PID.TID 0000.0001) %MON ad_time_tsnumber             =                 72010
(PID.TID 0000.0001) %MON ad_time_secondsf             =   6.2216640000000E+09
(PID.TID 0000.0001) %MON ad_dynstat_adeta_max         =   2.8226534502189E+00
(PID.TID 0000.0001) %MON ad_dynstat_adeta_min         =  -1.1963587751710E+00
(PID.TID 0000.0001) %MON ad_dynstat_adeta_mean        =  -2.1226840401889E-02
(PID.TID 0000.0001) %MON ad_dynstat_adeta_sd          =   3.8103416125623E-01
(PID.TID 0000.0001) %MON ad_dynstat_adeta_del2        =   4.0449103785295E-02
(PID.TID 0000.0001) %MON ad_dynstat_aduvel_max        =   8.2811863374618E+02
(PID.TID 0000.0001) %MON ad_dynstat_aduvel_min        =  -4.9593259124045E+02
(PID.TID 0000.0001) %MON ad_dynstat_aduvel_mean       =  -1.2069108396632E-01
(PID.TID 0000.0001) %MON ad_dynstat_aduvel_sd         =   9.2470316392168E+00
(PID.TID 0000.0001) %MON ad_dynstat_aduvel_del2       =   2.7955893799665E+00
(PID.TID 0000.0001) %MON ad_dynstat_advvel_max        =   4.1049546353838E+02
(PID.TID 0000.0001) %MON ad_dynstat_advvel_min        =  -3.9733084968319E+02
(PID.TID 0000.0001) %MON ad_dynstat_advvel_mean       =   1.6062578839792E-01
(PID.TID 0000.0001) %MON ad_dynstat_advvel_sd         =   8.9737428603076E+00
(PID.TID 0000.0001) %MON ad_dynstat_advvel_del2       =   2.4131180377066E+00
(PID.TID 0000.0001) %MON ad_dynstat_adwvel_max        =   2.7166827103486E+02
(PID.TID 0000.0001) %MON ad_dynstat_adwvel_min        =  -1.6429922208891E+02
(PID.TID 0000.0001) %MON ad_dynstat_adwvel_mean       =  -8.7437863734499E-03
(PID.TID 0000.0001) %MON ad_dynstat_adwvel_sd         =   3.0801163719024E+00
(PID.TID 0000.0001) %MON ad_dynstat_adwvel_del2       =   4.8627122613152E-01
(PID.TID 0000.0001) %MON ad_dynstat_adtheta_max       =   2.5021170706164E+02
(PID.TID 0000.0001) %MON ad_dynstat_adtheta_min       =  -1.8886697973919E+02
(PID.TID 0000.0001) %MON ad_dynstat_adtheta_mean      =   6.1494034759480E-01
(PID.TID 0000.0001) %MON ad_dynstat_adtheta_sd        =   2.0473466292045E+00
(PID.TID 0000.0001) %MON ad_dynstat_adtheta_del2      =   3.7181810060960E-01
(PID.TID 0000.0001) %MON ad_dynstat_adsalt_max        =   8.0252726027909E+02
(PID.TID 0000.0001) %MON ad_dynstat_adsalt_min        =  -7.8737999936435E+02
(PID.TID 0000.0001) %MON ad_dynstat_adsalt_mean       =  -2.7747156893360E-02
(PID.TID 0000.0001) %MON ad_dynstat_adsalt_sd         =   3.9418587966137E+00
(PID.TID 0000.0001) %MON ad_dynstat_adsalt_del2       =   1.2110914239443E+00
(PID.TID 0000.0001) %MON ad_dynstat_adsst_max         =   2.8226142557075E+01
(PID.TID 0000.0001) %MON ad_dynstat_adsst_min         =  -2.2911015702890E+01
(PID.TID 0000.0001) %MON ad_dynstat_adsst_mean        =   2.1395853749736E+00
(PID.TID 0000.0001) %MON ad_dynstat_adsst_sd          =   3.3928418404456E+00
(PID.TID 0000.0001) %MON ad_dynstat_adsst_del2        =   4.7631420102264E-01
(PID.TID 0000.0001) %MON ad_dynstat_adsss_max         =   6.9341873053991E+01
(PID.TID 0000.0001) %MON ad_dynstat_adsss_min         =  -1.0865694452581E+02
(PID.TID 0000.0001) %MON ad_dynstat_adsss_mean        =  -6.4736314147015E-02
(PID.TID 0000.0001) %MON ad_dynstat_adsss_sd          =   3.6086539542178E+00
(PID.TID 0000.0001) %MON ad_dynstat_adsss_del2        =   1.0068321730220E+00
(PID.TID 0000.0001) %MON ad_extforcing_adqnet_max     =   0.0000000000000E+00
(PID.TID 0000.0001) %MON ad_extforcing_adqnet_min     =   0.0000000000000E+00
(PID.TID 0000.0001) %MON ad_extforcing_adqnet_mean    =   0.0000000000000E+00
(PID.TID 0000.0001) %MON ad_extforcing_adqnet_sd      =   0.0000000000000E+00
(PID.TID 0000.0001) %MON ad_extforcing_adqnet_del2    =   0.0000000000000E+00
(PID.TID 0000.0001) %MON ad_extforcing_adqsw_max      =   1.2491466173238E-02
(PID.TID 0000.0001) %MON ad_extforcing_adqsw_min      =  -4.7716316777437E-02
(PID.TID 0000.0001) %MON ad_extforcing_adqsw_mean     =   1.8411450308086E-04
(PID.TID 0000.0001) %MON ad_extforcing_adqsw_sd       =   8.5604363777124E-04
(PID.TID 0000.0001) %MON ad_extforcing_adqsw_del2     =   1.1656124940870E-04
(PID.TID 0000.0001) %MON ad_extforcing_adempmr_max    =   0.0000000000000E+00
(PID.TID 0000.0001) %MON ad_extforcing_adempmr_min    =   0.0000000000000E+00
(PID.TID 0000.0001) %MON ad_extforcing_adempmr_mean   =   0.0000000000000E+00
(PID.TID 0000.0001) %MON ad_extforcing_adempmr_sd     =   0.0000000000000E+00
(PID.TID 0000.0001) %MON ad_extforcing_adempmr_del2   =   0.0000000000000E+00
(PID.TID 0000.0001) %MON ad_extforcing_adfu_max       =   0.0000000000000E+00
(PID.TID 0000.0001) %MON ad_extforcing_adfu_min       =   0.0000000000000E+00
(PID.TID 0000.0001) %MON ad_extforcing_adfu_mean      =   0.0000000000000E+00
(PID.TID 0000.0001) %MON ad_extforcing_adfu_sd        =   0.0000000000000E+00
(PID.TID 0000.0001) %MON ad_extforcing_adfu_del2      =   0.0000000000000E+00
(PID.TID 0000.0001) %MON ad_extforcing_adfv_max       =   0.0000000000000E+00
(PID.TID 0000.0001) %MON ad_extforcing_adfv_min       =   0.0000000000000E+00
(PID.TID 0000.0001) %MON ad_extforcing_adfv_mean      =   0.0000000000000E+00
(PID.TID 0000.0001) %MON ad_extforcing_adfv_sd        =   0.0000000000000E+00
(PID.TID 0000.0001) %MON ad_extforcing_adfv_del2      =   0.0000000000000E+00
(PID.TID 0000.0001) %MON ad_advcfl_aduvel_max         =   3.5573333894960E+02
(PID.TID 0000.0001) %MON ad_advcfl_advvel_max         =   1.7319091969479E+02
(PID.TID 0000.0001) %MON ad_advcfl_adwvel_max         =   3.9120231029020E+05
(PID.TID 0000.0001) %MON ad_advcfl_adW_hf_max         =   9.3888554469648E+05
(PID.TID 0000.0001) // =======================================================
(PID.TID 0000.0001) // End MONITOR dynamic field statistics
(PID.TID 0000.0001) // =======================================================
 cg2d: Sum(rhs),rhsMax =  -2.07644654790819E-09  7.57224618970662E-03
(PID.TID 0000.0001) // =======================================================
(PID.TID 0000.0001) // Begin MONITOR dynamic field statistics
(PID.TID 0000.0001) // =======================================================
(PID.TID 0000.0001) %MON ad_time_tsnumber             =                 72009
(PID.TID 0000.0001) %MON ad_time_secondsf             =   6.2215776000000E+09
(PID.TID 0000.0001) %MON ad_dynstat_adeta_max         =   2.3558693085971E+00
(PID.TID 0000.0001) %MON ad_dynstat_adeta_min         =  -1.2602044855629E+00
(PID.TID 0000.0001) %MON ad_dynstat_adeta_mean        =  -2.1565903038405E-02
(PID.TID 0000.0001) %MON ad_dynstat_adeta_sd          =   3.8381066142190E-01
(PID.TID 0000.0001) %MON ad_dynstat_adeta_del2        =   3.8574799449983E-02
(PID.TID 0000.0001) %MON ad_dynstat_aduvel_max        =   9.0797433699938E+02
(PID.TID 0000.0001) %MON ad_dynstat_aduvel_min        =  -5.2779891049588E+02
(PID.TID 0000.0001) %MON ad_dynstat_aduvel_mean       =   2.6785712822308E-02
(PID.TID 0000.0001) %MON ad_dynstat_aduvel_sd         =   9.8074072381580E+00
(PID.TID 0000.0001) %MON ad_dynstat_aduvel_del2       =   2.9632056380498E+00
(PID.TID 0000.0001) %MON ad_dynstat_advvel_max        =   4.4049266572170E+02
(PID.TID 0000.0001) %MON ad_dynstat_advvel_min        =  -4.1760594672607E+02
(PID.TID 0000.0001) %MON ad_dynstat_advvel_mean       =   2.2327342341011E-01
(PID.TID 0000.0001) %MON ad_dynstat_advvel_sd         =   9.5829799405962E+00
(PID.TID 0000.0001) %MON ad_dynstat_advvel_del2       =   2.5779012601954E+00
(PID.TID 0000.0001) %MON ad_dynstat_adwvel_max        =   2.8745618465175E+02
(PID.TID 0000.0001) %MON ad_dynstat_adwvel_min        =  -1.7504028950375E+02
(PID.TID 0000.0001) %MON ad_dynstat_adwvel_mean       =  -9.3777858085389E-03
(PID.TID 0000.0001) %MON ad_dynstat_adwvel_sd         =   3.2916418134587E+00
(PID.TID 0000.0001) %MON ad_dynstat_adwvel_del2       =   5.1734387735513E-01
(PID.TID 0000.0001) %MON ad_dynstat_adtheta_max       =   2.4619828210213E+02
(PID.TID 0000.0001) %MON ad_dynstat_adtheta_min       =  -1.8274629429589E+02
(PID.TID 0000.0001) %MON ad_dynstat_adtheta_mean      =   6.1637176397925E-01
(PID.TID 0000.0001) %MON ad_dynstat_adtheta_sd        =   2.0584864543016E+00
(PID.TID 0000.0001) %MON ad_dynstat_adtheta_del2      =   3.8262654939883E-01
(PID.TID 0000.0001) %MON ad_dynstat_adsalt_max        =   7.8854847654659E+02
(PID.TID 0000.0001) %MON ad_dynstat_adsalt_min        =  -7.7411408260032E+02
(PID.TID 0000.0001) %MON ad_dynstat_adsalt_mean       =  -3.6578815113477E-02
(PID.TID 0000.0001) %MON ad_dynstat_adsalt_sd         =   4.2115598083025E+00
(PID.TID 0000.0001) %MON ad_dynstat_adsalt_del2       =   1.3076246084996E+00
(PID.TID 0000.0001) %MON ad_dynstat_adsst_max         =   2.7620384836018E+01
(PID.TID 0000.0001) %MON ad_dynstat_adsst_min         =  -2.2034167217941E+01
(PID.TID 0000.0001) %MON ad_dynstat_adsst_mean        =   2.1409583329681E+00
(PID.TID 0000.0001) %MON ad_dynstat_adsst_sd          =   3.3745841724311E+00
(PID.TID 0000.0001) %MON ad_dynstat_adsst_del2        =   4.8099299168257E-01
(PID.TID 0000.0001) %MON ad_dynstat_adsss_max         =   6.6777596287190E+01
(PID.TID 0000.0001) %MON ad_dynstat_adsss_min         =  -1.0648745777158E+02
(PID.TID 0000.0001) %MON ad_dynstat_adsss_mean        =  -8.1774583108652E-02
(PID.TID 0000.0001) %MON ad_dynstat_adsss_sd          =   3.7883708811201E+00
(PID.TID 0000.0001) %MON ad_dynstat_adsss_del2        =   1.1000499890617E+00
(PID.TID 0000.0001) %MON ad_extforcing_adqnet_max     =   0.0000000000000E+00
(PID.TID 0000.0001) %MON ad_extforcing_adqnet_min     =   0.0000000000000E+00
(PID.TID 0000.0001) %MON ad_extforcing_adqnet_mean    =   0.0000000000000E+00
(PID.TID 0000.0001) %MON ad_extforcing_adqnet_sd      =   0.0000000000000E+00
(PID.TID 0000.0001) %MON ad_extforcing_adqnet_del2    =   0.0000000000000E+00
(PID.TID 0000.0001) %MON ad_extforcing_adqsw_max      =   1.3980058421180E-02
(PID.TID 0000.0001) %MON ad_extforcing_adqsw_min      =  -5.2418330805720E-02
(PID.TID 0000.0001) %MON ad_extforcing_adqsw_mean     =   2.0191798872178E-04
(PID.TID 0000.0001) %MON ad_extforcing_adqsw_sd       =   9.4086794614670E-04
(PID.TID 0000.0001) %MON ad_extforcing_adqsw_del2     =   1.2795574279791E-04
(PID.TID 0000.0001) %MON ad_extforcing_adempmr_max    =   0.0000000000000E+00
(PID.TID 0000.0001) %MON ad_extforcing_adempmr_min    =   0.0000000000000E+00
(PID.TID 0000.0001) %MON ad_extforcing_adempmr_mean   =   0.0000000000000E+00
(PID.TID 0000.0001) %MON ad_extforcing_adempmr_sd     =   0.0000000000000E+00
(PID.TID 0000.0001) %MON ad_extforcing_adempmr_del2   =   0.0000000000000E+00
(PID.TID 0000.0001) %MON ad_extforcing_adfu_max       =   0.0000000000000E+00
(PID.TID 0000.0001) %MON ad_extforcing_adfu_min       =   0.0000000000000E+00
(PID.TID 0000.0001) %MON ad_extforcing_adfu_mean      =   0.0000000000000E+00
(PID.TID 0000.0001) %MON ad_extforcing_adfu_sd        =   0.0000000000000E+00
(PID.TID 0000.0001) %MON ad_extforcing_adfu_del2      =   0.0000000000000E+00
(PID.TID 0000.0001) %MON ad_extforcing_adfv_max       =   0.0000000000000E+00
(PID.TID 0000.0001) %MON ad_extforcing_adfv_min       =   0.0000000000000E+00
(PID.TID 0000.0001) %MON ad_extforcing_adfv_mean      =   0.0000000000000E+00
(PID.TID 0000.0001) %MON ad_extforcing_adfv_sd        =   0.0000000000000E+00
(PID.TID 0000.0001) %MON ad_extforcing_adfv_del2      =   0.0000000000000E+00
(PID.TID 0000.0001) %MON ad_advcfl_aduvel_max         =   3.9003680079047E+02
(PID.TID 0000.0001) %MON ad_advcfl_advvel_max         =   1.8056157596613E+02
(PID.TID 0000.0001) %MON ad_advcfl_adwvel_max         =   4.1393690589852E+05
(PID.TID 0000.0001) %MON ad_advcfl_adW_hf_max         =   9.9344857415644E+05
(PID.TID 0000.0001) // =======================================================
(PID.TID 0000.0001) // End MONITOR dynamic field statistics
(PID.TID 0000.0001) // =======================================================
 cg2d: Sum(rhs),rhsMax =   3.41794670200403E-06  5.22250319095320E-03
 cg2d: Sum(rhs),rhsMax =  -2.08012666007562E-05  4.24977590159288E+00
 cg2d: Sum(rhs),rhsMax =  -2.30292858418579E-05  4.24417316638580E+00
(PID.TID 0000.0001) // =======================================================
(PID.TID 0000.0001) // Begin MONITOR dynamic field statistics
(PID.TID 0000.0001) // =======================================================
(PID.TID 0000.0001) %MON ad_time_tsnumber             =                 72008
(PID.TID 0000.0001) %MON ad_time_secondsf             =   6.2214912000000E+09
(PID.TID 0000.0001) %MON ad_dynstat_adeta_max         =   1.8377323169783E+00
(PID.TID 0000.0001) %MON ad_dynstat_adeta_min         =  -1.3345888345855E+00
(PID.TID 0000.0001) %MON ad_dynstat_adeta_mean        =  -2.1696028330720E-02
(PID.TID 0000.0001) %MON ad_dynstat_adeta_sd          =   3.8544262949946E-01
(PID.TID 0000.0001) %MON ad_dynstat_adeta_del2        =   3.6865106042590E-02
(PID.TID 0000.0001) %MON ad_dynstat_aduvel_max        =   9.6459992735201E+02
(PID.TID 0000.0001) %MON ad_dynstat_aduvel_min        =  -5.3972219048358E+02
(PID.TID 0000.0001) %MON ad_dynstat_aduvel_mean       =   1.6065065391409E-01
(PID.TID 0000.0001) %MON ad_dynstat_aduvel_sd         =   1.0321852449504E+01
(PID.TID 0000.0001) %MON ad_dynstat_aduvel_del2       =   3.1197133946298E+00
(PID.TID 0000.0001) %MON ad_dynstat_advvel_max        =   4.6903494599471E+02
(PID.TID 0000.0001) %MON ad_dynstat_advvel_min        =  -4.4519500257875E+02
(PID.TID 0000.0001) %MON ad_dynstat_advvel_mean       =   2.7329846280028E-01
(PID.TID 0000.0001) %MON ad_dynstat_advvel_sd         =   1.0144065543566E+01
(PID.TID 0000.0001) %MON ad_dynstat_advvel_del2       =   2.7345261482967E+00
(PID.TID 0000.0001) %MON ad_dynstat_adwvel_max        =   3.0114220676558E+02
(PID.TID 0000.0001) %MON ad_dynstat_adwvel_min        =  -1.8476033605934E+02
(PID.TID 0000.0001) %MON ad_dynstat_adwvel_mean       =  -9.8765481870660E-03
(PID.TID 0000.0001) %MON ad_dynstat_adwvel_sd         =   3.4883410544286E+00
(PID.TID 0000.0001) %MON ad_dynstat_adwvel_del2       =   5.4580200800597E-01
(PID.TID 0000.0001) %MON ad_dynstat_adtheta_max       =   2.4215493078110E+02
(PID.TID 0000.0001) %MON ad_dynstat_adtheta_min       =  -1.7661634341586E+02
(PID.TID 0000.0001) %MON ad_dynstat_adtheta_mean      =   6.1767631075045E-01
(PID.TID 0000.0001) %MON ad_dynstat_adtheta_sd        =   2.0719536050162E+00
(PID.TID 0000.0001) %MON ad_dynstat_adtheta_del2      =   3.9232404823882E-01
(PID.TID 0000.0001) %MON ad_dynstat_adsalt_max        =   7.7394321455239E+02
(PID.TID 0000.0001) %MON ad_dynstat_adsalt_min        =  -7.6079620303090E+02
(PID.TID 0000.0001) %MON ad_dynstat_adsalt_mean       =  -4.4717250159747E-02
(PID.TID 0000.0001) %MON ad_dynstat_adsalt_sd         =   4.4918540571971E+00
(PID.TID 0000.0001) %MON ad_dynstat_adsalt_del2       =   1.3956877270731E+00
(PID.TID 0000.0001) %MON ad_dynstat_adsst_max         =   2.6843502155835E+01
(PID.TID 0000.0001) %MON ad_dynstat_adsst_min         =  -2.3512258149797E+01
(PID.TID 0000.0001) %MON ad_dynstat_adsst_mean        =   2.1423365941733E+00
(PID.TID 0000.0001) %MON ad_dynstat_adsst_sd          =   3.3591362773829E+00
(PID.TID 0000.0001) %MON ad_dynstat_adsst_del2        =   4.8610464047773E-01
(PID.TID 0000.0001) %MON ad_dynstat_adsss_max         =   7.2396046744090E+01
(PID.TID 0000.0001) %MON ad_dynstat_adsss_min         =  -1.0370085287423E+02
(PID.TID 0000.0001) %MON ad_dynstat_adsss_mean        =  -9.8346538965933E-02
(PID.TID 0000.0001) %MON ad_dynstat_adsss_sd          =   4.0025550332815E+00
(PID.TID 0000.0001) %MON ad_dynstat_adsss_del2        =   1.1898093749269E+00
(PID.TID 0000.0001) %MON ad_extforcing_adqnet_max     =   0.0000000000000E+00
(PID.TID 0000.0001) %MON ad_extforcing_adqnet_min     =   0.0000000000000E+00
(PID.TID 0000.0001) %MON ad_extforcing_adqnet_mean    =   0.0000000000000E+00
(PID.TID 0000.0001) %MON ad_extforcing_adqnet_sd      =   0.0000000000000E+00
(PID.TID 0000.0001) %MON ad_extforcing_adqnet_del2    =   0.0000000000000E+00
(PID.TID 0000.0001) %MON ad_extforcing_adqsw_max      =   1.5438601208415E-02
(PID.TID 0000.0001) %MON ad_extforcing_adqsw_min      =  -5.7005759785631E-02
(PID.TID 0000.0001) %MON ad_extforcing_adqsw_mean     =   2.1957999299891E-04
(PID.TID 0000.0001) %MON ad_extforcing_adqsw_sd       =   1.0238459248460E-03
(PID.TID 0000.0001) %MON ad_extforcing_adqsw_del2     =   1.3904287862242E-04
(PID.TID 0000.0001) %MON ad_extforcing_adempmr_max    =   0.0000000000000E+00
(PID.TID 0000.0001) %MON ad_extforcing_adempmr_min    =   0.0000000000000E+00
(PID.TID 0000.0001) %MON ad_extforcing_adempmr_mean   =   0.0000000000000E+00
(PID.TID 0000.0001) %MON ad_extforcing_adempmr_sd     =   0.0000000000000E+00
(PID.TID 0000.0001) %MON ad_extforcing_adempmr_del2   =   0.0000000000000E+00
(PID.TID 0000.0001) %MON ad_extforcing_adfu_max       =   0.0000000000000E+00
(PID.TID 0000.0001) %MON ad_extforcing_adfu_min       =   0.0000000000000E+00
(PID.TID 0000.0001) %MON ad_extforcing_adfu_mean      =   0.0000000000000E+00
(PID.TID 0000.0001) %MON ad_extforcing_adfu_sd        =   0.0000000000000E+00
(PID.TID 0000.0001) %MON ad_extforcing_adfu_del2      =   0.0000000000000E+00
(PID.TID 0000.0001) %MON ad_extforcing_adfv_max       =   0.0000000000000E+00
(PID.TID 0000.0001) %MON ad_extforcing_adfv_min       =   0.0000000000000E+00
(PID.TID 0000.0001) %MON ad_extforcing_adfv_mean      =   0.0000000000000E+00
(PID.TID 0000.0001) %MON ad_extforcing_adfv_sd        =   0.0000000000000E+00
(PID.TID 0000.0001) %MON ad_extforcing_adfv_del2      =   0.0000000000000E+00
(PID.TID 0000.0001) %MON ad_advcfl_aduvel_max         =   4.1436134742579E+02
(PID.TID 0000.0001) %MON ad_advcfl_advvel_max         =   1.7984232320550E+02
(PID.TID 0000.0001) %MON ad_advcfl_adwvel_max         =   4.3364477774244E+05
(PID.TID 0000.0001) %MON ad_advcfl_adW_hf_max         =   1.0407474665819E+06
(PID.TID 0000.0001) // =======================================================
(PID.TID 0000.0001) // End MONITOR dynamic field statistics
(PID.TID 0000.0001) // =======================================================
 cg2d: Sum(rhs),rhsMax =   7.23869055352247E-06  4.69783832883227E-03
(PID.TID 0000.0001) // =======================================================
(PID.TID 0000.0001) // Begin MONITOR dynamic field statistics
(PID.TID 0000.0001) // =======================================================
(PID.TID 0000.0001) %MON ad_time_tsnumber             =                 72007
(PID.TID 0000.0001) %MON ad_time_secondsf             =   6.2214048000000E+09
(PID.TID 0000.0001) %MON ad_dynstat_adeta_max         =   1.5581305739873E+00
(PID.TID 0000.0001) %MON ad_dynstat_adeta_min         =  -1.3402081264055E+00
(PID.TID 0000.0001) %MON ad_dynstat_adeta_mean        =  -2.1567184174129E-02
(PID.TID 0000.0001) %MON ad_dynstat_adeta_sd          =   3.8553384825129E-01
(PID.TID 0000.0001) %MON ad_dynstat_adeta_del2        =   3.5333834576010E-02
(PID.TID 0000.0001) %MON ad_dynstat_aduvel_max        =   9.9848806790891E+02
(PID.TID 0000.0001) %MON ad_dynstat_aduvel_min        =  -5.3276753716341E+02
(PID.TID 0000.0001) %MON ad_dynstat_aduvel_mean       =   2.7787584024409E-01
(PID.TID 0000.0001) %MON ad_dynstat_aduvel_sd         =   1.0795251495695E+01
(PID.TID 0000.0001) %MON ad_dynstat_aduvel_del2       =   3.2652469284117E+00
(PID.TID 0000.0001) %MON ad_dynstat_advvel_max        =   4.9417658078052E+02
(PID.TID 0000.0001) %MON ad_dynstat_advvel_min        =  -4.6898265764055E+02
(PID.TID 0000.0001) %MON ad_dynstat_advvel_mean       =   3.1743842525096E-01
(PID.TID 0000.0001) %MON ad_dynstat_advvel_sd         =   1.0661220461386E+01
(PID.TID 0000.0001) %MON ad_dynstat_advvel_del2       =   2.8803613103445E+00
(PID.TID 0000.0001) %MON ad_dynstat_adwvel_max        =   3.1267931552289E+02
(PID.TID 0000.0001) %MON ad_dynstat_adwvel_min        =  -1.9345218592479E+02
(PID.TID 0000.0001) %MON ad_dynstat_adwvel_mean       =  -1.0229698199600E-02
(PID.TID 0000.0001) %MON ad_dynstat_adwvel_sd         =   3.6711523548741E+00
(PID.TID 0000.0001) %MON ad_dynstat_adwvel_del2       =   5.7171919248504E-01
(PID.TID 0000.0001) %MON ad_dynstat_adtheta_max       =   2.3811573849469E+02
(PID.TID 0000.0001) %MON ad_dynstat_adtheta_min       =  -1.7048360715073E+02
(PID.TID 0000.0001) %MON ad_dynstat_adtheta_mean      =   6.1889119442374E-01
(PID.TID 0000.0001) %MON ad_dynstat_adtheta_sd        =   2.0870162742723E+00
(PID.TID 0000.0001) %MON ad_dynstat_adtheta_del2      =   4.0070081366898E-01
(PID.TID 0000.0001) %MON ad_dynstat_adsalt_max        =   7.5873431016602E+02
(PID.TID 0000.0001) %MON ad_dynstat_adsalt_min        =  -7.4753977452493E+02
(PID.TID 0000.0001) %MON ad_dynstat_adsalt_mean       =  -5.2471030403473E-02
(PID.TID 0000.0001) %MON ad_dynstat_adsalt_sd         =   4.7724608370906E+00
(PID.TID 0000.0001) %MON ad_dynstat_adsalt_del2       =   1.4738001805534E+00
(PID.TID 0000.0001) %MON ad_dynstat_adsst_max         =   2.5921404757549E+01
(PID.TID 0000.0001) %MON ad_dynstat_adsst_min         =  -2.3284239201013E+01
(PID.TID 0000.0001) %MON ad_dynstat_adsst_mean        =   2.1435051655165E+00
(PID.TID 0000.0001) %MON ad_dynstat_adsst_sd          =   3.3439854759546E+00
(PID.TID 0000.0001) %MON ad_dynstat_adsst_del2        =   4.9002006789397E-01
(PID.TID 0000.0001) %MON ad_dynstat_adsss_max         =   7.1741368788587E+01
(PID.TID 0000.0001) %MON ad_dynstat_adsss_min         =  -1.0042098537712E+02
(PID.TID 0000.0001) %MON ad_dynstat_adsss_mean        =  -1.1395884147385E-01
(PID.TID 0000.0001) %MON ad_dynstat_adsss_sd          =   4.2184789016947E+00
(PID.TID 0000.0001) %MON ad_dynstat_adsss_del2        =   1.2710398624701E+00
(PID.TID 0000.0001) %MON ad_extforcing_adqnet_max     =   0.0000000000000E+00
(PID.TID 0000.0001) %MON ad_extforcing_adqnet_min     =   0.0000000000000E+00
(PID.TID 0000.0001) %MON ad_extforcing_adqnet_mean    =   0.0000000000000E+00
(PID.TID 0000.0001) %MON ad_extforcing_adqnet_sd      =   0.0000000000000E+00
(PID.TID 0000.0001) %MON ad_extforcing_adqnet_del2    =   0.0000000000000E+00
(PID.TID 0000.0001) %MON ad_extforcing_adqsw_max      =   1.6863702150833E-02
(PID.TID 0000.0001) %MON ad_extforcing_adqsw_min      =  -6.1477913253260E-02
(PID.TID 0000.0001) %MON ad_extforcing_adqsw_mean     =   2.3710376779163E-04
(PID.TID 0000.0001) %MON ad_extforcing_adqsw_sd       =   1.1049473182746E-03
(PID.TID 0000.0001) %MON ad_extforcing_adqsw_del2     =   1.4983236402930E-04
(PID.TID 0000.0001) %MON ad_extforcing_adempmr_max    =   0.0000000000000E+00
(PID.TID 0000.0001) %MON ad_extforcing_adempmr_min    =   0.0000000000000E+00
(PID.TID 0000.0001) %MON ad_extforcing_adempmr_mean   =   0.0000000000000E+00
(PID.TID 0000.0001) %MON ad_extforcing_adempmr_sd     =   0.0000000000000E+00
(PID.TID 0000.0001) %MON ad_extforcing_adempmr_del2   =   0.0000000000000E+00
(PID.TID 0000.0001) %MON ad_extforcing_adfu_max       =   0.0000000000000E+00
(PID.TID 0000.0001) %MON ad_extforcing_adfu_min       =   0.0000000000000E+00
(PID.TID 0000.0001) %MON ad_extforcing_adfu_mean      =   0.0000000000000E+00
(PID.TID 0000.0001) %MON ad_extforcing_adfu_sd        =   0.0000000000000E+00
(PID.TID 0000.0001) %MON ad_extforcing_adfu_del2      =   0.0000000000000E+00
(PID.TID 0000.0001) %MON ad_extforcing_adfv_max       =   0.0000000000000E+00
(PID.TID 0000.0001) %MON ad_extforcing_adfv_min       =   0.0000000000000E+00
(PID.TID 0000.0001) %MON ad_extforcing_adfv_mean      =   0.0000000000000E+00
(PID.TID 0000.0001) %MON ad_extforcing_adfv_sd        =   0.0000000000000E+00
(PID.TID 0000.0001) %MON ad_extforcing_adfv_del2      =   0.0000000000000E+00
(PID.TID 0000.0001) %MON ad_advcfl_aduvel_max         =   4.2891861120401E+02
(PID.TID 0000.0001) %MON ad_advcfl_advvel_max         =   1.7161295996960E+02
(PID.TID 0000.0001) %MON ad_advcfl_adwvel_max         =   4.5025821435296E+05
(PID.TID 0000.0001) %MON ad_advcfl_adW_hf_max         =   1.0806197144471E+06
(PID.TID 0000.0001) // =======================================================
(PID.TID 0000.0001) // End MONITOR dynamic field statistics
(PID.TID 0000.0001) // =======================================================
 cg2d: Sum(rhs),rhsMax =   1.13447121446598E-05  4.45205351338062E-03
 cg2d: Sum(rhs),rhsMax =  -1.52649351150558E-05  4.26144702497578E+00
 cg2d: Sum(rhs),rhsMax =  -1.79967760232103E-05  4.25555457822616E+00
(PID.TID 0000.0001) // =======================================================
(PID.TID 0000.0001) // Begin MONITOR dynamic field statistics
(PID.TID 0000.0001) // =======================================================
(PID.TID 0000.0001) %MON ad_time_tsnumber             =                 72006
(PID.TID 0000.0001) %MON ad_time_secondsf             =   6.2213184000000E+09
(PID.TID 0000.0001) %MON ad_dynstat_adeta_max         =   1.5162796100890E+00
(PID.TID 0000.0001) %MON ad_dynstat_adeta_min         =  -1.3369061138795E+00
(PID.TID 0000.0001) %MON ad_dynstat_adeta_mean        =  -2.1252897814684E-02
(PID.TID 0000.0001) %MON ad_dynstat_adeta_sd          =   3.8394873732478E-01
(PID.TID 0000.0001) %MON ad_dynstat_adeta_del2        =   3.4303138976276E-02
(PID.TID 0000.0001) %MON ad_dynstat_aduvel_max        =   1.0113878474869E+03
(PID.TID 0000.0001) %MON ad_dynstat_aduvel_min        =  -5.3496378017465E+02
(PID.TID 0000.0001) %MON ad_dynstat_aduvel_mean       =   3.7811322403266E-01
(PID.TID 0000.0001) %MON ad_dynstat_aduvel_sd         =   1.1239206701525E+01
(PID.TID 0000.0001) %MON ad_dynstat_aduvel_del2       =   3.4034038652527E+00
(PID.TID 0000.0001) %MON ad_dynstat_advvel_max        =   5.1638411207200E+02
(PID.TID 0000.0001) %MON ad_dynstat_advvel_min        =  -4.8909393671497E+02
(PID.TID 0000.0001) %MON ad_dynstat_advvel_mean       =   3.6443587008928E-01
(PID.TID 0000.0001) %MON ad_dynstat_advvel_sd         =   1.1139648381768E+01
(PID.TID 0000.0001) %MON ad_dynstat_advvel_del2       =   3.0171824000640E+00
(PID.TID 0000.0001) %MON ad_dynstat_adwvel_max        =   3.3806601416164E+02
(PID.TID 0000.0001) %MON ad_dynstat_adwvel_min        =  -2.0635605595237E+02
(PID.TID 0000.0001) %MON ad_dynstat_adwvel_mean       =  -1.0467856959015E-02
(PID.TID 0000.0001) %MON ad_dynstat_adwvel_sd         =   3.8403673794352E+00
(PID.TID 0000.0001) %MON ad_dynstat_adwvel_del2       =   5.9583080252876E-01
(PID.TID 0000.0001) %MON ad_dynstat_adtheta_max       =   2.3408549053527E+02
(PID.TID 0000.0001) %MON ad_dynstat_adtheta_min       =  -1.6438189533465E+02
(PID.TID 0000.0001) %MON ad_dynstat_adtheta_mean      =   6.1990579740906E-01
(PID.TID 0000.0001) %MON ad_dynstat_adtheta_sd        =   2.1030084425167E+00
(PID.TID 0000.0001) %MON ad_dynstat_adtheta_del2      =   4.0716461568166E-01
(PID.TID 0000.0001) %MON ad_dynstat_adsalt_max        =   7.4304450523263E+02
(PID.TID 0000.0001) %MON ad_dynstat_adsalt_min        =  -7.3436292774341E+02
(PID.TID 0000.0001) %MON ad_dynstat_adsalt_mean       =  -5.9264729565003E-02
(PID.TID 0000.0001) %MON ad_dynstat_adsalt_sd         =   5.0456104563637E+00
(PID.TID 0000.0001) %MON ad_dynstat_adsalt_del2       =   1.5399391088433E+00
(PID.TID 0000.0001) %MON ad_dynstat_adsst_max         =   2.4862433101326E+01
(PID.TID 0000.0001) %MON ad_dynstat_adsst_min         =  -2.2807786231092E+01
(PID.TID 0000.0001) %MON ad_dynstat_adsst_mean        =   2.1443639050015E+00
(PID.TID 0000.0001) %MON ad_dynstat_adsst_sd          =   3.3302671067658E+00
(PID.TID 0000.0001) %MON ad_dynstat_adsst_del2        =   4.9388161739772E-01
(PID.TID 0000.0001) %MON ad_dynstat_adsss_max         =   7.0232704231288E+01
(PID.TID 0000.0001) %MON ad_dynstat_adsss_min         =  -9.6708685060064E+01
(PID.TID 0000.0001) %MON ad_dynstat_adsss_mean        =  -1.2814185665841E-01
(PID.TID 0000.0001) %MON ad_dynstat_adsss_sd          =   4.4443926709430E+00
(PID.TID 0000.0001) %MON ad_dynstat_adsss_del2        =   1.3481483020312E+00
(PID.TID 0000.0001) %MON ad_extforcing_adqnet_max     =   0.0000000000000E+00
(PID.TID 0000.0001) %MON ad_extforcing_adqnet_min     =   0.0000000000000E+00
(PID.TID 0000.0001) %MON ad_extforcing_adqnet_mean    =   0.0000000000000E+00
(PID.TID 0000.0001) %MON ad_extforcing_adqnet_sd      =   0.0000000000000E+00
(PID.TID 0000.0001) %MON ad_extforcing_adqnet_del2    =   0.0000000000000E+00
(PID.TID 0000.0001) %MON ad_extforcing_adqsw_max      =   1.8254348354879E-02
(PID.TID 0000.0001) %MON ad_extforcing_adqsw_min      =  -6.5834395364183E-02
(PID.TID 0000.0001) %MON ad_extforcing_adqsw_mean     =   2.5446971879371E-04
(PID.TID 0000.0001) %MON ad_extforcing_adqsw_sd       =   1.1841845542321E-03
(PID.TID 0000.0001) %MON ad_extforcing_adqsw_del2     =   1.6030941164886E-04
(PID.TID 0000.0001) %MON ad_extforcing_adempmr_max    =   0.0000000000000E+00
(PID.TID 0000.0001) %MON ad_extforcing_adempmr_min    =   0.0000000000000E+00
(PID.TID 0000.0001) %MON ad_extforcing_adempmr_mean   =   0.0000000000000E+00
(PID.TID 0000.0001) %MON ad_extforcing_adempmr_sd     =   0.0000000000000E+00
(PID.TID 0000.0001) %MON ad_extforcing_adempmr_del2   =   0.0000000000000E+00
(PID.TID 0000.0001) %MON ad_extforcing_adfu_max       =   0.0000000000000E+00
(PID.TID 0000.0001) %MON ad_extforcing_adfu_min       =   0.0000000000000E+00
(PID.TID 0000.0001) %MON ad_extforcing_adfu_mean      =   0.0000000000000E+00
(PID.TID 0000.0001) %MON ad_extforcing_adfu_sd        =   0.0000000000000E+00
(PID.TID 0000.0001) %MON ad_extforcing_adfu_del2      =   0.0000000000000E+00
(PID.TID 0000.0001) %MON ad_extforcing_adfv_max       =   0.0000000000000E+00
(PID.TID 0000.0001) %MON ad_extforcing_adfv_min       =   0.0000000000000E+00
(PID.TID 0000.0001) %MON ad_extforcing_adfv_mean      =   0.0000000000000E+00
(PID.TID 0000.0001) %MON ad_extforcing_adfv_sd        =   0.0000000000000E+00
(PID.TID 0000.0001) %MON ad_extforcing_adfv_del2      =   0.0000000000000E+00
(PID.TID 0000.0001) %MON ad_advcfl_aduvel_max         =   4.3445994486565E+02
(PID.TID 0000.0001) %MON ad_advcfl_advvel_max         =   1.6850111334590E+02
(PID.TID 0000.0001) %MON ad_advcfl_adwvel_max         =   4.8681506039277E+05
(PID.TID 0000.0001) %MON ad_advcfl_adW_hf_max         =   1.1683561449426E+06
(PID.TID 0000.0001) // =======================================================
(PID.TID 0000.0001) // End MONITOR dynamic field statistics
(PID.TID 0000.0001) // =======================================================
 cg2d: Sum(rhs),rhsMax =   1.56597570278028E-05  4.94586773766862E-03
(PID.TID 0000.0001) // =======================================================
(PID.TID 0000.0001) // Begin MONITOR dynamic field statistics
(PID.TID 0000.0001) // =======================================================
(PID.TID 0000.0001) %MON ad_time_tsnumber             =                 72005
(PID.TID 0000.0001) %MON ad_time_secondsf             =   6.2212320000000E+09
(PID.TID 0000.0001) %MON ad_dynstat_adeta_max         =   1.4672547835708E+00
(PID.TID 0000.0001) %MON ad_dynstat_adeta_min         =  -1.3288968427181E+00
(PID.TID 0000.0001) %MON ad_dynstat_adeta_mean        =  -2.0736644543313E-02
(PID.TID 0000.0001) %MON ad_dynstat_adeta_sd          =   3.8064956666179E-01
(PID.TID 0000.0001) %MON ad_dynstat_adeta_del2        =   3.3324538178648E-02
(PID.TID 0000.0001) %MON ad_dynstat_aduvel_max        =   1.0058048782313E+03
(PID.TID 0000.0001) %MON ad_dynstat_aduvel_min        =  -5.7287732898578E+02
(PID.TID 0000.0001) %MON ad_dynstat_aduvel_mean       =   4.6001431878220E-01
(PID.TID 0000.0001) %MON ad_dynstat_aduvel_sd         =   1.1664766302270E+01
(PID.TID 0000.0001) %MON ad_dynstat_aduvel_del2       =   3.5389366720417E+00
(PID.TID 0000.0001) %MON ad_dynstat_advvel_max        =   5.3626335784573E+02
(PID.TID 0000.0001) %MON ad_dynstat_advvel_min        =  -5.0564848434239E+02
(PID.TID 0000.0001) %MON ad_dynstat_advvel_mean       =   4.2482982810222E-01
(PID.TID 0000.0001) %MON ad_dynstat_advvel_sd         =   1.1583875495925E+01
(PID.TID 0000.0001) %MON ad_dynstat_advvel_del2       =   3.1441150258393E+00
(PID.TID 0000.0001) %MON ad_dynstat_adwvel_max        =   3.6456380423715E+02
(PID.TID 0000.0001) %MON ad_dynstat_adwvel_min        =  -2.1881536353439E+02
(PID.TID 0000.0001) %MON ad_dynstat_adwvel_mean       =  -1.0591958893549E-02
(PID.TID 0000.0001) %MON ad_dynstat_adwvel_sd         =   3.9948816081753E+00
(PID.TID 0000.0001) %MON ad_dynstat_adwvel_del2       =   6.1804707588901E-01
(PID.TID 0000.0001) %MON ad_dynstat_adtheta_max       =   2.3014773002344E+02
(PID.TID 0000.0001) %MON ad_dynstat_adtheta_min       =  -1.5827506270206E+02
(PID.TID 0000.0001) %MON ad_dynstat_adtheta_mean      =   6.2090032171929E-01
(PID.TID 0000.0001) %MON ad_dynstat_adtheta_sd        =   2.1193991582326E+00
(PID.TID 0000.0001) %MON ad_dynstat_adtheta_del2      =   4.1237912878953E-01
(PID.TID 0000.0001) %MON ad_dynstat_adsalt_max        =   7.2674691592870E+02
(PID.TID 0000.0001) %MON ad_dynstat_adsalt_min        =  -7.2153963190494E+02
(PID.TID 0000.0001) %MON ad_dynstat_adsalt_mean       =  -6.5970318939239E-02
(PID.TID 0000.0001) %MON ad_dynstat_adsalt_sd         =   5.3055930550570E+00
(PID.TID 0000.0001) %MON ad_dynstat_adsalt_del2       =   1.5967775273003E+00
(PID.TID 0000.0001) %MON ad_dynstat_adsst_max         =   2.3689183483705E+01
(PID.TID 0000.0001) %MON ad_dynstat_adsst_min         =  -2.2198716368304E+01
(PID.TID 0000.0001) %MON ad_dynstat_adsst_mean        =   2.1448384838955E+00
(PID.TID 0000.0001) %MON ad_dynstat_adsst_sd          =   3.3183110883201E+00
(PID.TID 0000.0001) %MON ad_dynstat_adsst_del2        =   4.9846609315275E-01
(PID.TID 0000.0001) %MON ad_dynstat_adsss_max         =   6.8362187590794E+01
(PID.TID 0000.0001) %MON ad_dynstat_adsss_min         =  -9.2705255415627E+01
(PID.TID 0000.0001) %MON ad_dynstat_adsss_mean        =  -1.4057102786143E-01
(PID.TID 0000.0001) %MON ad_dynstat_adsss_sd          =   4.6793407729051E+00
(PID.TID 0000.0001) %MON ad_dynstat_adsss_del2        =   1.4205972023732E+00
(PID.TID 0000.0001) %MON ad_extforcing_adqnet_max     =   0.0000000000000E+00
(PID.TID 0000.0001) %MON ad_extforcing_adqnet_min     =   0.0000000000000E+00
(PID.TID 0000.0001) %MON ad_extforcing_adqnet_mean    =   0.0000000000000E+00
(PID.TID 0000.0001) %MON ad_extforcing_adqnet_sd      =   0.0000000000000E+00
(PID.TID 0000.0001) %MON ad_extforcing_adqnet_del2    =   0.0000000000000E+00
(PID.TID 0000.0001) %MON ad_extforcing_adqsw_max      =   1.9610157765814E-02
(PID.TID 0000.0001) %MON ad_extforcing_adqsw_min      =  -7.0075466297358E-02
(PID.TID 0000.0001) %MON ad_extforcing_adqsw_mean     =   2.7167045748091E-04
(PID.TID 0000.0001) %MON ad_extforcing_adqsw_sd       =   1.2615878586659E-03
(PID.TID 0000.0001) %MON ad_extforcing_adqsw_del2     =   1.7048018973053E-04
(PID.TID 0000.0001) %MON ad_extforcing_adempmr_max    =   0.0000000000000E+00
(PID.TID 0000.0001) %MON ad_extforcing_adempmr_min    =   0.0000000000000E+00
(PID.TID 0000.0001) %MON ad_extforcing_adempmr_mean   =   0.0000000000000E+00
(PID.TID 0000.0001) %MON ad_extforcing_adempmr_sd     =   0.0000000000000E+00
(PID.TID 0000.0001) %MON ad_extforcing_adempmr_del2   =   0.0000000000000E+00
(PID.TID 0000.0001) %MON ad_extforcing_adfu_max       =   0.0000000000000E+00
(PID.TID 0000.0001) %MON ad_extforcing_adfu_min       =   0.0000000000000E+00
(PID.TID 0000.0001) %MON ad_extforcing_adfu_mean      =   0.0000000000000E+00
(PID.TID 0000.0001) %MON ad_extforcing_adfu_sd        =   0.0000000000000E+00
(PID.TID 0000.0001) %MON ad_extforcing_adfu_del2      =   0.0000000000000E+00
(PID.TID 0000.0001) %MON ad_extforcing_adfv_max       =   0.0000000000000E+00
(PID.TID 0000.0001) %MON ad_extforcing_adfv_min       =   0.0000000000000E+00
(PID.TID 0000.0001) %MON ad_extforcing_adfv_mean      =   0.0000000000000E+00
(PID.TID 0000.0001) %MON ad_extforcing_adfv_sd        =   0.0000000000000E+00
(PID.TID 0000.0001) %MON ad_extforcing_adfv_del2      =   0.0000000000000E+00
(PID.TID 0000.0001) %MON ad_advcfl_aduvel_max         =   4.3206167943164E+02
(PID.TID 0000.0001) %MON ad_advcfl_advvel_max         =   1.7477075199252E+02
(PID.TID 0000.0001) %MON ad_advcfl_adwvel_max         =   5.2497187810150E+05
(PID.TID 0000.0001) %MON ad_advcfl_adW_hf_max         =   1.2599325074436E+06
(PID.TID 0000.0001) // =======================================================
(PID.TID 0000.0001) // End MONITOR dynamic field statistics
(PID.TID 0000.0001) // =======================================================
 cg2d: Sum(rhs),rhsMax =   2.00960358835618E-05  5.46332525104416E-03
 cg2d: Sum(rhs),rhsMax =  -8.11923538890369E-06  4.27329379391091E+00
 cg2d: Sum(rhs),rhsMax =  -1.18774561315149E-05  4.26739301203686E+00
(PID.TID 0000.0001) // =======================================================
(PID.TID 0000.0001) // Begin MONITOR dynamic field statistics
(PID.TID 0000.0001) // =======================================================
(PID.TID 0000.0001) %MON ad_time_tsnumber             =                 72004
(PID.TID 0000.0001) %MON ad_time_secondsf             =   6.2211456000000E+09
(PID.TID 0000.0001) %MON ad_dynstat_adeta_max         =   1.4110303990762E+00
(PID.TID 0000.0001) %MON ad_dynstat_adeta_min         =  -1.3154519289054E+00
(PID.TID 0000.0001) %MON ad_dynstat_adeta_mean        =  -2.0117484234735E-02
(PID.TID 0000.0001) %MON ad_dynstat_adeta_sd          =   3.7582281629169E-01
(PID.TID 0000.0001) %MON ad_dynstat_adeta_del2        =   3.2606555621393E-02
(PID.TID 0000.0001) %MON ad_dynstat_aduvel_max        =   9.8449658190820E+02
(PID.TID 0000.0001) %MON ad_dynstat_aduvel_min        =  -6.0900631557604E+02
(PID.TID 0000.0001) %MON ad_dynstat_aduvel_mean       =   5.2735478450255E-01
(PID.TID 0000.0001) %MON ad_dynstat_aduvel_sd         =   1.2074277440002E+01
(PID.TID 0000.0001) %MON ad_dynstat_aduvel_del2       =   3.6729881169092E+00
(PID.TID 0000.0001) %MON ad_dynstat_advvel_max        =   5.5702518852631E+02
(PID.TID 0000.0001) %MON ad_dynstat_advvel_min        =  -5.1884132086307E+02
(PID.TID 0000.0001) %MON ad_dynstat_advvel_mean       =   5.0179012124829E-01
(PID.TID 0000.0001) %MON ad_dynstat_advvel_sd         =   1.2000663073145E+01
(PID.TID 0000.0001) %MON ad_dynstat_advvel_del2       =   3.2675650676191E+00
(PID.TID 0000.0001) %MON ad_dynstat_adwvel_max        =   3.9008657675275E+02
(PID.TID 0000.0001) %MON ad_dynstat_adwvel_min        =  -2.3036451896557E+02
(PID.TID 0000.0001) %MON ad_dynstat_adwvel_mean       =  -1.0605075879468E-02
(PID.TID 0000.0001) %MON ad_dynstat_adwvel_sd         =   4.1371457087311E+00
(PID.TID 0000.0001) %MON ad_dynstat_adwvel_del2       =   6.3885731722236E-01
(PID.TID 0000.0001) %MON ad_dynstat_adtheta_max       =   2.2630197806176E+02
(PID.TID 0000.0001) %MON ad_dynstat_adtheta_min       =  -1.5219201314255E+02
(PID.TID 0000.0001) %MON ad_dynstat_adtheta_mean      =   6.2176534482706E-01
(PID.TID 0000.0001) %MON ad_dynstat_adtheta_sd        =   2.1356233021303E+00
(PID.TID 0000.0001) %MON ad_dynstat_adtheta_del2      =   4.1685799779243E-01
(PID.TID 0000.0001) %MON ad_dynstat_adsalt_max        =   7.0995033147482E+02
(PID.TID 0000.0001) %MON ad_dynstat_adsalt_min        =  -7.0907164527905E+02
(PID.TID 0000.0001) %MON ad_dynstat_adsalt_mean       =  -7.2090670541306E-02
(PID.TID 0000.0001) %MON ad_dynstat_adsalt_sd         =   5.5483256570838E+00
(PID.TID 0000.0001) %MON ad_dynstat_adsalt_del2       =   1.6457789066910E+00
(PID.TID 0000.0001) %MON ad_dynstat_adsst_max         =   2.2903801359431E+01
(PID.TID 0000.0001) %MON ad_dynstat_adsst_min         =  -2.1975118522146E+01
(PID.TID 0000.0001) %MON ad_dynstat_adsst_mean        =   2.1448419841140E+00
(PID.TID 0000.0001) %MON ad_dynstat_adsst_sd          =   3.3105170793574E+00
(PID.TID 0000.0001) %MON ad_dynstat_adsst_del2        =   5.0329988729500E-01
(PID.TID 0000.0001) %MON ad_dynstat_adsss_max         =   6.8158066389706E+01
(PID.TID 0000.0001) %MON ad_dynstat_adsss_min         =  -9.0379175358530E+01
(PID.TID 0000.0001) %MON ad_dynstat_adsss_mean        =  -1.5092790897142E-01
(PID.TID 0000.0001) %MON ad_dynstat_adsss_sd          =   4.9407976229085E+00
(PID.TID 0000.0001) %MON ad_dynstat_adsss_del2        =   1.4910713433892E+00
(PID.TID 0000.0001) %MON ad_extforcing_adqnet_max     =   0.0000000000000E+00
(PID.TID 0000.0001) %MON ad_extforcing_adqnet_min     =   0.0000000000000E+00
(PID.TID 0000.0001) %MON ad_extforcing_adqnet_mean    =   0.0000000000000E+00
(PID.TID 0000.0001) %MON ad_extforcing_adqnet_sd      =   0.0000000000000E+00
(PID.TID 0000.0001) %MON ad_extforcing_adqnet_del2    =   0.0000000000000E+00
(PID.TID 0000.0001) %MON ad_extforcing_adqsw_max      =   2.0931140699337E-02
(PID.TID 0000.0001) %MON ad_extforcing_adqsw_min      =  -7.4201710122505E-02
(PID.TID 0000.0001) %MON ad_extforcing_adqsw_mean     =   2.8870387212162E-04
(PID.TID 0000.0001) %MON ad_extforcing_adqsw_sd       =   1.3371976671972E-03
(PID.TID 0000.0001) %MON ad_extforcing_adqsw_del2     =   1.8037125338439E-04
(PID.TID 0000.0001) %MON ad_extforcing_adempmr_max    =   0.0000000000000E+00
(PID.TID 0000.0001) %MON ad_extforcing_adempmr_min    =   0.0000000000000E+00
(PID.TID 0000.0001) %MON ad_extforcing_adempmr_mean   =   0.0000000000000E+00
(PID.TID 0000.0001) %MON ad_extforcing_adempmr_sd     =   0.0000000000000E+00
(PID.TID 0000.0001) %MON ad_extforcing_adempmr_del2   =   0.0000000000000E+00
(PID.TID 0000.0001) %MON ad_extforcing_adfu_max       =   0.0000000000000E+00
(PID.TID 0000.0001) %MON ad_extforcing_adfu_min       =   0.0000000000000E+00
(PID.TID 0000.0001) %MON ad_extforcing_adfu_mean      =   0.0000000000000E+00
(PID.TID 0000.0001) %MON ad_extforcing_adfu_sd        =   0.0000000000000E+00
(PID.TID 0000.0001) %MON ad_extforcing_adfu_del2      =   0.0000000000000E+00
(PID.TID 0000.0001) %MON ad_extforcing_adfv_max       =   0.0000000000000E+00
(PID.TID 0000.0001) %MON ad_extforcing_adfv_min       =   0.0000000000000E+00
(PID.TID 0000.0001) %MON ad_extforcing_adfv_mean      =   0.0000000000000E+00
(PID.TID 0000.0001) %MON ad_extforcing_adfv_sd        =   0.0000000000000E+00
(PID.TID 0000.0001) %MON ad_extforcing_adfv_del2      =   0.0000000000000E+00
(PID.TID 0000.0001) %MON ad_advcfl_aduvel_max         =   4.2290831530065E+02
(PID.TID 0000.0001) %MON ad_advcfl_advvel_max         =   1.8014096710409E+02
(PID.TID 0000.0001) %MON ad_advcfl_adwvel_max         =   5.6172467052395E+05
(PID.TID 0000.0001) %MON ad_advcfl_adW_hf_max         =   1.3481392092575E+06
(PID.TID 0000.0001) // =======================================================
(PID.TID 0000.0001) // End MONITOR dynamic field statistics
(PID.TID 0000.0001) // =======================================================
 cg2d: Sum(rhs),rhsMax =   2.45766792390299E-05  6.49635353153562E-03
(PID.TID 0000.0001) // =======================================================
(PID.TID 0000.0001) // Begin MONITOR dynamic field statistics
(PID.TID 0000.0001) // =======================================================
(PID.TID 0000.0001) %MON ad_time_tsnumber             =                 72003
(PID.TID 0000.0001) %MON ad_time_secondsf             =   6.2210592000000E+09
(PID.TID 0000.0001) %MON ad_dynstat_adeta_max         =   1.4451996180344E+00
(PID.TID 0000.0001) %MON ad_dynstat_adeta_min         =  -1.4826486896217E+00
(PID.TID 0000.0001) %MON ad_dynstat_adeta_mean        =  -1.9497513307732E-02
(PID.TID 0000.0001) %MON ad_dynstat_adeta_sd          =   3.7024241111520E-01
(PID.TID 0000.0001) %MON ad_dynstat_adeta_del2        =   3.2186667150373E-02
(PID.TID 0000.0001) %MON ad_dynstat_aduvel_max        =   9.5023679840356E+02
(PID.TID 0000.0001) %MON ad_dynstat_aduvel_min        =  -6.4148319502822E+02
(PID.TID 0000.0001) %MON ad_dynstat_aduvel_mean       =   5.8624064749065E-01
(PID.TID 0000.0001) %MON ad_dynstat_aduvel_sd         =   1.2473920928283E+01
(PID.TID 0000.0001) %MON ad_dynstat_aduvel_del2       =   3.8014134702868E+00
(PID.TID 0000.0001) %MON ad_dynstat_advvel_max        =   5.7539997940965E+02
(PID.TID 0000.0001) %MON ad_dynstat_advvel_min        =  -5.2845662801327E+02
(PID.TID 0000.0001) %MON ad_dynstat_advvel_mean       =   5.9275072439087E-01
(PID.TID 0000.0001) %MON ad_dynstat_advvel_sd         =   1.2389778005034E+01
(PID.TID 0000.0001) %MON ad_dynstat_advvel_del2       =   3.3830364199278E+00
(PID.TID 0000.0001) %MON ad_dynstat_adwvel_max        =   4.1387950907151E+02
(PID.TID 0000.0001) %MON ad_dynstat_adwvel_min        =  -2.3995658769340E+02
(PID.TID 0000.0001) %MON ad_dynstat_adwvel_mean       =  -1.0514905848343E-02
(PID.TID 0000.0001) %MON ad_dynstat_adwvel_sd         =   4.2672034813062E+00
(PID.TID 0000.0001) %MON ad_dynstat_adwvel_del2       =   6.5774897202340E-01
(PID.TID 0000.0001) %MON ad_dynstat_adtheta_max       =   2.2248137069798E+02
(PID.TID 0000.0001) %MON ad_dynstat_adtheta_min       =  -1.4613448201845E+02
(PID.TID 0000.0001) %MON ad_dynstat_adtheta_mean      =   6.2263731711999E-01
(PID.TID 0000.0001) %MON ad_dynstat_adtheta_sd        =   2.1521064634150E+00
(PID.TID 0000.0001) %MON ad_dynstat_adtheta_del2      =   4.2148737702644E-01
(PID.TID 0000.0001) %MON ad_dynstat_adsalt_max        =   6.9266017841737E+02
(PID.TID 0000.0001) %MON ad_dynstat_adsalt_min        =  -6.9672714301737E+02
(PID.TID 0000.0001) %MON ad_dynstat_adsalt_mean       =  -7.8273080354914E-02
(PID.TID 0000.0001) %MON ad_dynstat_adsalt_sd         =   5.7757438938998E+00
(PID.TID 0000.0001) %MON ad_dynstat_adsalt_del2       =   1.6911947256781E+00
(PID.TID 0000.0001) %MON ad_dynstat_adsst_max         =   2.8571060437319E+01
(PID.TID 0000.0001) %MON ad_dynstat_adsst_min         =  -2.8209103581339E+01
(PID.TID 0000.0001) %MON ad_dynstat_adsst_mean        =   2.1443254709704E+00
(PID.TID 0000.0001) %MON ad_dynstat_adsst_sd          =   3.3355345076224E+00
(PID.TID 0000.0001) %MON ad_dynstat_adsst_del2        =   5.1185902427720E-01
(PID.TID 0000.0001) %MON ad_dynstat_adsss_max         =   9.1770929501340E+01
(PID.TID 0000.0001) %MON ad_dynstat_adsss_min         =  -1.1185833777320E+02
(PID.TID 0000.0001) %MON ad_dynstat_adsss_mean        =  -1.5902810552770E-01
(PID.TID 0000.0001) %MON ad_dynstat_adsss_sd          =   5.4526494835988E+00
(PID.TID 0000.0001) %MON ad_dynstat_adsss_del2        =   1.5695104455449E+00
(PID.TID 0000.0001) %MON ad_extforcing_adqnet_max     =   0.0000000000000E+00
(PID.TID 0000.0001) %MON ad_extforcing_adqnet_min     =   0.0000000000000E+00
(PID.TID 0000.0001) %MON ad_extforcing_adqnet_mean    =   0.0000000000000E+00
(PID.TID 0000.0001) %MON ad_extforcing_adqnet_sd      =   0.0000000000000E+00
(PID.TID 0000.0001) %MON ad_extforcing_adqnet_del2    =   0.0000000000000E+00
(PID.TID 0000.0001) %MON ad_extforcing_adqsw_max      =   2.2217699779459E-02
(PID.TID 0000.0001) %MON ad_extforcing_adqsw_min      =  -7.8214078367246E-02
(PID.TID 0000.0001) %MON ad_extforcing_adqsw_mean     =   3.0557456533125E-04
(PID.TID 0000.0001) %MON ad_extforcing_adqsw_sd       =   1.4110551113426E-03
(PID.TID 0000.0001) %MON ad_extforcing_adqsw_del2     =   1.8997969525956E-04
(PID.TID 0000.0001) %MON ad_extforcing_adempmr_max    =   0.0000000000000E+00
(PID.TID 0000.0001) %MON ad_extforcing_adempmr_min    =   0.0000000000000E+00
(PID.TID 0000.0001) %MON ad_extforcing_adempmr_mean   =   0.0000000000000E+00
(PID.TID 0000.0001) %MON ad_extforcing_adempmr_sd     =   0.0000000000000E+00
(PID.TID 0000.0001) %MON ad_extforcing_adempmr_del2   =   0.0000000000000E+00
(PID.TID 0000.0001) %MON ad_extforcing_adfu_max       =   0.0000000000000E+00
(PID.TID 0000.0001) %MON ad_extforcing_adfu_min       =   0.0000000000000E+00
(PID.TID 0000.0001) %MON ad_extforcing_adfu_mean      =   0.0000000000000E+00
(PID.TID 0000.0001) %MON ad_extforcing_adfu_sd        =   0.0000000000000E+00
(PID.TID 0000.0001) %MON ad_extforcing_adfu_del2      =   0.0000000000000E+00
(PID.TID 0000.0001) %MON ad_extforcing_adfv_max       =   0.0000000000000E+00
(PID.TID 0000.0001) %MON ad_extforcing_adfv_min       =   0.0000000000000E+00
(PID.TID 0000.0001) %MON ad_extforcing_adfv_mean      =   0.0000000000000E+00
(PID.TID 0000.0001) %MON ad_extforcing_adfv_sd        =   0.0000000000000E+00
(PID.TID 0000.0001) %MON ad_extforcing_adfv_del2      =   0.0000000000000E+00
(PID.TID 0000.0001) %MON ad_advcfl_aduvel_max         =   4.0819140557159E+02
(PID.TID 0000.0001) %MON ad_advcfl_advvel_max         =   1.8451574160817E+02
(PID.TID 0000.0001) %MON ad_advcfl_adwvel_max         =   5.9598649306298E+05
(PID.TID 0000.0001) %MON ad_advcfl_adW_hf_max         =   1.4303675833512E+06
(PID.TID 0000.0001) // =======================================================
(PID.TID 0000.0001) // End MONITOR dynamic field statistics
(PID.TID 0000.0001) // =======================================================
 cg2d: Sum(rhs),rhsMax =   2.90370191147627E-05  7.08163355009747E-03
S/R EXTERNAL_FIELDS_LOAD: Reading new data:   12    1     72000  6.220800000000E+09
(PID.TID 0000.0001)  MDS_READ_FIELD: opening global file: trenberth_taux.bin
(PID.TID 0000.0001)  MDS_READ_FIELD: opening global file: trenberth_taux.bin
(PID.TID 0000.0001)  MDS_READ_FIELD: opening global file: trenberth_tauy.bin
(PID.TID 0000.0001)  MDS_READ_FIELD: opening global file: trenberth_tauy.bin
(PID.TID 0000.0001)  MDS_READ_FIELD: opening global file: shiQnet_cs32.bin
(PID.TID 0000.0001)  MDS_READ_FIELD: opening global file: shiQnet_cs32.bin
(PID.TID 0000.0001)  MDS_READ_FIELD: opening global file: shiEmPR_cs32.bin
(PID.TID 0000.0001)  MDS_READ_FIELD: opening global file: shiEmPR_cs32.bin
(PID.TID 0000.0001)  MDS_READ_FIELD: opening global file: lev_surfT_cs_12m.bin
(PID.TID 0000.0001)  MDS_READ_FIELD: opening global file: lev_surfT_cs_12m.bin
(PID.TID 0000.0001)  MDS_READ_FIELD: opening global file: lev_surfS_cs_12m.bin
(PID.TID 0000.0001)  MDS_READ_FIELD: opening global file: lev_surfS_cs_12m.bin
(PID.TID 0000.0001)  MDS_READ_FIELD: opening file: xx_tauu.0000000000.001.001.data
(PID.TID 0000.0001)  MDS_READ_FIELD: opening file: xx_tauu.0000000000.002.001.data
(PID.TID 0000.0001)  MDS_READ_FIELD: opening file: xx_tauu.0000000000.003.001.data
(PID.TID 0000.0001)  MDS_READ_FIELD: opening file: xx_tauu.0000000000.004.001.data
(PID.TID 0000.0001)  MDS_READ_FIELD: opening file: xx_tauu.0000000000.005.001.data
(PID.TID 0000.0001)  MDS_READ_FIELD: opening file: xx_tauu.0000000000.006.001.data
(PID.TID 0000.0001)  MDS_READ_FIELD: opening file: xx_tauv.0000000000.001.001.data
(PID.TID 0000.0001)  MDS_READ_FIELD: opening file: xx_tauv.0000000000.002.001.data
(PID.TID 0000.0001)  MDS_READ_FIELD: opening file: xx_tauv.0000000000.003.001.data
(PID.TID 0000.0001)  MDS_READ_FIELD: opening file: xx_tauv.0000000000.004.001.data
(PID.TID 0000.0001)  MDS_READ_FIELD: opening file: xx_tauv.0000000000.005.001.data
(PID.TID 0000.0001)  MDS_READ_FIELD: opening file: xx_tauv.0000000000.006.001.data
(PID.TID 0000.0001)  MDS_READ_FIELD: opening file: xx_sfl.0000000000.001.001.data
(PID.TID 0000.0001)  MDS_READ_FIELD: opening file: xx_sfl.0000000000.002.001.data
(PID.TID 0000.0001)  MDS_READ_FIELD: opening file: xx_sfl.0000000000.003.001.data
(PID.TID 0000.0001)  MDS_READ_FIELD: opening file: xx_sfl.0000000000.004.001.data
(PID.TID 0000.0001)  MDS_READ_FIELD: opening file: xx_sfl.0000000000.005.001.data
(PID.TID 0000.0001)  MDS_READ_FIELD: opening file: xx_sfl.0000000000.006.001.data
(PID.TID 0000.0001)  MDS_READ_FIELD: opening file: xx_hfl.0000000000.001.001.data
(PID.TID 0000.0001)  MDS_READ_FIELD: opening file: xx_hfl.0000000000.002.001.data
(PID.TID 0000.0001)  MDS_READ_FIELD: opening file: xx_hfl.0000000000.003.001.data
(PID.TID 0000.0001)  MDS_READ_FIELD: opening file: xx_hfl.0000000000.004.001.data
(PID.TID 0000.0001)  MDS_READ_FIELD: opening file: xx_hfl.0000000000.005.001.data
(PID.TID 0000.0001)  MDS_READ_FIELD: opening file: xx_hfl.0000000000.006.001.data
 cg2d: Sum(rhs),rhsMax =  -9.60653778747655E-12  4.28505602916984E+00
 cg2d: Sum(rhs),rhsMax =  -4.20986370386345E-06  4.27911284982484E+00
(PID.TID 0000.0001) // =======================================================
(PID.TID 0000.0001) // Begin MONITOR dynamic field statistics
(PID.TID 0000.0001) // =======================================================
(PID.TID 0000.0001) %MON ad_time_tsnumber             =                 72002
(PID.TID 0000.0001) %MON ad_time_secondsf             =   6.2209728000000E+09
(PID.TID 0000.0001) %MON ad_dynstat_adeta_max         =   1.4863822290379E+00
(PID.TID 0000.0001) %MON ad_dynstat_adeta_min         =  -1.6826942116186E+00
(PID.TID 0000.0001) %MON ad_dynstat_adeta_mean        =  -1.8843607897255E-02
(PID.TID 0000.0001) %MON ad_dynstat_adeta_sd          =   3.6390197601207E-01
(PID.TID 0000.0001) %MON ad_dynstat_adeta_del2        =   3.1986695552143E-02
(PID.TID 0000.0001) %MON ad_dynstat_aduvel_max        =   9.0576468236899E+02
(PID.TID 0000.0001) %MON ad_dynstat_aduvel_min        =  -6.6982737484098E+02
(PID.TID 0000.0001) %MON ad_dynstat_aduvel_mean       =   6.3585574799529E-01
(PID.TID 0000.0001) %MON ad_dynstat_aduvel_sd         =   1.2868821177330E+01
(PID.TID 0000.0001) %MON ad_dynstat_aduvel_del2       =   3.9235608745547E+00
(PID.TID 0000.0001) %MON ad_dynstat_advvel_max        =   5.9156022121211E+02
(PID.TID 0000.0001) %MON ad_dynstat_advvel_min        =  -5.3496138515784E+02
(PID.TID 0000.0001) %MON ad_dynstat_advvel_mean       =   6.9679787815049E-01
(PID.TID 0000.0001) %MON ad_dynstat_advvel_sd         =   1.2753951526467E+01
(PID.TID 0000.0001) %MON ad_dynstat_advvel_del2       =   3.4932110739148E+00
(PID.TID 0000.0001) %MON ad_dynstat_adwvel_max        =   4.3906245422122E+02
(PID.TID 0000.0001) %MON ad_dynstat_adwvel_min        =  -2.4787795644589E+02
(PID.TID 0000.0001) %MON ad_dynstat_adwvel_mean       =  -1.0297295516092E-02
(PID.TID 0000.0001) %MON ad_dynstat_adwvel_sd         =   4.3890239779438E+00
(PID.TID 0000.0001) %MON ad_dynstat_adwvel_del2       =   6.7623065297174E-01
(PID.TID 0000.0001) %MON ad_dynstat_adtheta_max       =   2.1870221659914E+02
(PID.TID 0000.0001) %MON ad_dynstat_adtheta_min       =  -1.4009573894739E+02
(PID.TID 0000.0001) %MON ad_dynstat_adtheta_mean      =   6.2345804561129E-01
(PID.TID 0000.0001) %MON ad_dynstat_adtheta_sd        =   2.1669618929974E+00
(PID.TID 0000.0001) %MON ad_dynstat_adtheta_del2      =   4.2622302462447E-01
(PID.TID 0000.0001) %MON ad_dynstat_adsalt_max        =   6.7485538806840E+02
(PID.TID 0000.0001) %MON ad_dynstat_adsalt_min        =  -6.8455165800262E+02
(PID.TID 0000.0001) %MON ad_dynstat_adsalt_mean       =  -8.4172016295977E-02
(PID.TID 0000.0001) %MON ad_dynstat_adsalt_sd         =   5.9787265473013E+00
(PID.TID 0000.0001) %MON ad_dynstat_adsalt_del2       =   1.7348599564021E+00
(PID.TID 0000.0001) %MON ad_dynstat_adsst_max         =   2.8039772201908E+01
(PID.TID 0000.0001) %MON ad_dynstat_adsst_min         =  -2.8287360773211E+01
(PID.TID 0000.0001) %MON ad_dynstat_adsst_mean        =   2.1434695984633E+00
(PID.TID 0000.0001) %MON ad_dynstat_adsst_sd          =   3.3358987360575E+00
(PID.TID 0000.0001) %MON ad_dynstat_adsst_del2        =   5.1760144691748E-01
(PID.TID 0000.0001) %MON ad_dynstat_adsss_max         =   9.2045090667171E+01
(PID.TID 0000.0001) %MON ad_dynstat_adsss_min         =  -1.0982562417520E+02
(PID.TID 0000.0001) %MON ad_dynstat_adsss_mean        =  -1.6547473595836E-01
(PID.TID 0000.0001) %MON ad_dynstat_adsss_sd          =   5.7191571583451E+00
(PID.TID 0000.0001) %MON ad_dynstat_adsss_del2        =   1.6332108324863E+00
(PID.TID 0000.0001) %MON ad_extforcing_adqnet_max     =   0.0000000000000E+00
(PID.TID 0000.0001) %MON ad_extforcing_adqnet_min     =   0.0000000000000E+00
(PID.TID 0000.0001) %MON ad_extforcing_adqnet_mean    =   0.0000000000000E+00
(PID.TID 0000.0001) %MON ad_extforcing_adqnet_sd      =   0.0000000000000E+00
(PID.TID 0000.0001) %MON ad_extforcing_adqnet_del2    =   0.0000000000000E+00
(PID.TID 0000.0001) %MON ad_extforcing_adqsw_max      =   2.3470254705585E-02
(PID.TID 0000.0001) %MON ad_extforcing_adqsw_min      =  -8.2113118563480E-02
(PID.TID 0000.0001) %MON ad_extforcing_adqsw_mean     =   3.2230202236531E-04
(PID.TID 0000.0001) %MON ad_extforcing_adqsw_sd       =   1.4831977405178E-03
(PID.TID 0000.0001) %MON ad_extforcing_adqsw_del2     =   1.9933587178768E-04
(PID.TID 0000.0001) %MON ad_extforcing_adempmr_max    =   0.0000000000000E+00
(PID.TID 0000.0001) %MON ad_extforcing_adempmr_min    =   0.0000000000000E+00
(PID.TID 0000.0001) %MON ad_extforcing_adempmr_mean   =   0.0000000000000E+00
(PID.TID 0000.0001) %MON ad_extforcing_adempmr_sd     =   0.0000000000000E+00
(PID.TID 0000.0001) %MON ad_extforcing_adempmr_del2   =   0.0000000000000E+00
(PID.TID 0000.0001) %MON ad_extforcing_adfu_max       =   0.0000000000000E+00
(PID.TID 0000.0001) %MON ad_extforcing_adfu_min       =   0.0000000000000E+00
(PID.TID 0000.0001) %MON ad_extforcing_adfu_mean      =   0.0000000000000E+00
(PID.TID 0000.0001) %MON ad_extforcing_adfu_sd        =   0.0000000000000E+00
(PID.TID 0000.0001) %MON ad_extforcing_adfu_del2      =   0.0000000000000E+00
(PID.TID 0000.0001) %MON ad_extforcing_adfv_max       =   0.0000000000000E+00
(PID.TID 0000.0001) %MON ad_extforcing_adfv_min       =   0.0000000000000E+00
(PID.TID 0000.0001) %MON ad_extforcing_adfv_mean      =   0.0000000000000E+00
(PID.TID 0000.0001) %MON ad_extforcing_adfv_sd        =   0.0000000000000E+00
(PID.TID 0000.0001) %MON ad_extforcing_adfv_del2      =   0.0000000000000E+00
(PID.TID 0000.0001) %MON ad_advcfl_aduvel_max         =   3.8908760367359E+02
(PID.TID 0000.0001) %MON ad_advcfl_advvel_max         =   1.8941734607109E+02
(PID.TID 0000.0001) %MON ad_advcfl_adwvel_max         =   6.3224993407856E+05
(PID.TID 0000.0001) %MON ad_advcfl_adW_hf_max         =   1.5173998417885E+06
(PID.TID 0000.0001) // =======================================================
(PID.TID 0000.0001) // End MONITOR dynamic field statistics
(PID.TID 0000.0001) // =======================================================
 cg2d: Sum(rhs),rhsMax =   3.34080572749755E-05  7.65644113070473E-03
(PID.TID 0000.0001) // =======================================================
(PID.TID 0000.0001) // Begin MONITOR dynamic field statistics
(PID.TID 0000.0001) // =======================================================
(PID.TID 0000.0001) %MON ad_time_tsnumber             =                 72001
(PID.TID 0000.0001) %MON ad_time_secondsf             =   6.2208864000000E+09
(PID.TID 0000.0001) %MON ad_dynstat_adeta_max         =   1.5245346409578E+00
(PID.TID 0000.0001) %MON ad_dynstat_adeta_min         =  -1.8911435560916E+00
(PID.TID 0000.0001) %MON ad_dynstat_adeta_mean        =  -1.8179641858652E-02
(PID.TID 0000.0001) %MON ad_dynstat_adeta_sd          =   3.5719599179329E-01
(PID.TID 0000.0001) %MON ad_dynstat_adeta_del2        =   3.1848015546440E-02
(PID.TID 0000.0001) %MON ad_dynstat_aduvel_max        =   8.5349090219109E+02
(PID.TID 0000.0001) %MON ad_dynstat_aduvel_min        =  -6.9358661835274E+02
(PID.TID 0000.0001) %MON ad_dynstat_aduvel_mean       =   6.8053277256164E-01
(PID.TID 0000.0001) %MON ad_dynstat_aduvel_sd         =   1.3258672226138E+01
(PID.TID 0000.0001) %MON ad_dynstat_aduvel_del2       =   4.0388228184972E+00
(PID.TID 0000.0001) %MON ad_dynstat_advvel_max        =   6.0557552296404E+02
(PID.TID 0000.0001) %MON ad_dynstat_advvel_min        =  -5.3856891118481E+02
(PID.TID 0000.0001) %MON ad_dynstat_advvel_mean       =   8.0675652875935E-01
(PID.TID 0000.0001) %MON ad_dynstat_advvel_sd         =   1.3097167705727E+01
(PID.TID 0000.0001) %MON ad_dynstat_advvel_del2       =   3.5922040380591E+00
(PID.TID 0000.0001) %MON ad_dynstat_adwvel_max        =   4.6033392138651E+02
(PID.TID 0000.0001) %MON ad_dynstat_adwvel_min        =  -2.5367588644081E+02
(PID.TID 0000.0001) %MON ad_dynstat_adwvel_mean       =  -9.9868512995225E-03
(PID.TID 0000.0001) %MON ad_dynstat_adwvel_sd         =   4.5011455910026E+00
(PID.TID 0000.0001) %MON ad_dynstat_adwvel_del2       =   6.9411979621262E-01
(PID.TID 0000.0001) %MON ad_dynstat_adtheta_max       =   2.1494862607002E+02
(PID.TID 0000.0001) %MON ad_dynstat_adtheta_min       =  -1.3409938263636E+02
(PID.TID 0000.0001) %MON ad_dynstat_adtheta_mean      =   6.2423037529566E-01
(PID.TID 0000.0001) %MON ad_dynstat_adtheta_sd        =   2.1808878938126E+00
(PID.TID 0000.0001) %MON ad_dynstat_adtheta_del2      =   4.3152037709536E-01
(PID.TID 0000.0001) %MON ad_dynstat_adsalt_max        =   6.5662756272964E+02
(PID.TID 0000.0001) %MON ad_dynstat_adsalt_min        =  -6.7249666844944E+02
(PID.TID 0000.0001) %MON ad_dynstat_adsalt_mean       =  -8.9805242647730E-02
(PID.TID 0000.0001) %MON ad_dynstat_adsalt_sd         =   6.1625708332077E+00
(PID.TID 0000.0001) %MON ad_dynstat_adsalt_del2       =   1.7792046559993E+00
(PID.TID 0000.0001) %MON ad_dynstat_adsst_max         =   2.7456786631733E+01
(PID.TID 0000.0001) %MON ad_dynstat_adsst_min         =  -2.8343044719065E+01
(PID.TID 0000.0001) %MON ad_dynstat_adsst_mean        =   2.1421293853622E+00
(PID.TID 0000.0001) %MON ad_dynstat_adsst_sd          =   3.3427540521193E+00
(PID.TID 0000.0001) %MON ad_dynstat_adsst_del2        =   5.2443326152865E-01
(PID.TID 0000.0001) %MON ad_dynstat_adsss_max         =   9.2235989686604E+01
(PID.TID 0000.0001) %MON ad_dynstat_adsss_min         =  -1.0760190978674E+02
(PID.TID 0000.0001) %MON ad_dynstat_adsss_mean        =  -1.6976764647263E-01
(PID.TID 0000.0001) %MON ad_dynstat_adsss_sd          =   6.0042750839601E+00
(PID.TID 0000.0001) %MON ad_dynstat_adsss_del2        =   1.6961650254270E+00
(PID.TID 0000.0001) %MON ad_extforcing_adqnet_max     =   0.0000000000000E+00
(PID.TID 0000.0001) %MON ad_extforcing_adqnet_min     =   0.0000000000000E+00
(PID.TID 0000.0001) %MON ad_extforcing_adqnet_mean    =   0.0000000000000E+00
(PID.TID 0000.0001) %MON ad_extforcing_adqnet_sd      =   0.0000000000000E+00
(PID.TID 0000.0001) %MON ad_extforcing_adqnet_del2    =   0.0000000000000E+00
(PID.TID 0000.0001) %MON ad_extforcing_adqsw_max      =   2.4689531335219E-02
(PID.TID 0000.0001) %MON ad_extforcing_adqsw_min      =  -8.5899326624060E-02
(PID.TID 0000.0001) %MON ad_extforcing_adqsw_mean     =   3.3885914802224E-04
(PID.TID 0000.0001) %MON ad_extforcing_adqsw_sd       =   1.5536658250216E-03
(PID.TID 0000.0001) %MON ad_extforcing_adqsw_del2     =   2.0845064729396E-04
(PID.TID 0000.0001) %MON ad_extforcing_adempmr_max    =   0.0000000000000E+00
(PID.TID 0000.0001) %MON ad_extforcing_adempmr_min    =   0.0000000000000E+00
(PID.TID 0000.0001) %MON ad_extforcing_adempmr_mean   =   0.0000000000000E+00
(PID.TID 0000.0001) %MON ad_extforcing_adempmr_sd     =   0.0000000000000E+00
(PID.TID 0000.0001) %MON ad_extforcing_adempmr_del2   =   0.0000000000000E+00
(PID.TID 0000.0001) %MON ad_extforcing_adfu_max       =   0.0000000000000E+00
(PID.TID 0000.0001) %MON ad_extforcing_adfu_min       =   0.0000000000000E+00
(PID.TID 0000.0001) %MON ad_extforcing_adfu_mean      =   0.0000000000000E+00
(PID.TID 0000.0001) %MON ad_extforcing_adfu_sd        =   0.0000000000000E+00
(PID.TID 0000.0001) %MON ad_extforcing_adfu_del2      =   0.0000000000000E+00
(PID.TID 0000.0001) %MON ad_extforcing_adfv_max       =   0.0000000000000E+00
(PID.TID 0000.0001) %MON ad_extforcing_adfv_min       =   0.0000000000000E+00
(PID.TID 0000.0001) %MON ad_extforcing_adfv_mean      =   0.0000000000000E+00
(PID.TID 0000.0001) %MON ad_extforcing_adfv_sd        =   0.0000000000000E+00
(PID.TID 0000.0001) %MON ad_extforcing_adfv_del2      =   0.0000000000000E+00
(PID.TID 0000.0001) %MON ad_advcfl_aduvel_max         =   3.6663245581865E+02
(PID.TID 0000.0001) %MON ad_advcfl_advvel_max         =   1.9390504008270E+02
(PID.TID 0000.0001) %MON ad_advcfl_adwvel_max         =   6.6288084679658E+05
(PID.TID 0000.0001) %MON ad_advcfl_adW_hf_max         =   1.5909140323118E+06
(PID.TID 0000.0001) // =======================================================
(PID.TID 0000.0001) // End MONITOR dynamic field statistics
(PID.TID 0000.0001) // =======================================================
 cg2d: Sum(rhs),rhsMax =   3.76120192734607E-05  7.62617789307924E-03
(PID.TID 0000.0001)  MDS_READ_FIELD: opening file: adxx_hfl.0000000000.001.001.data
(PID.TID 0000.0001)  MDS_READ_FIELD: opening file: adxx_hfl.0000000000.002.001.data
(PID.TID 0000.0001)  MDS_READ_FIELD: opening file: adxx_hfl.0000000000.003.001.data
(PID.TID 0000.0001)  MDS_READ_FIELD: opening file: adxx_hfl.0000000000.004.001.data
(PID.TID 0000.0001)  MDS_READ_FIELD: opening file: adxx_hfl.0000000000.005.001.data
(PID.TID 0000.0001)  MDS_READ_FIELD: opening file: adxx_hfl.0000000000.006.001.data
(PID.TID 0000.0001)  MDS_READ_FIELD: opening file: adxx_sfl.0000000000.001.001.data
(PID.TID 0000.0001)  MDS_READ_FIELD: opening file: adxx_sfl.0000000000.002.001.data
(PID.TID 0000.0001)  MDS_READ_FIELD: opening file: adxx_sfl.0000000000.003.001.data
(PID.TID 0000.0001)  MDS_READ_FIELD: opening file: adxx_sfl.0000000000.004.001.data
(PID.TID 0000.0001)  MDS_READ_FIELD: opening file: adxx_sfl.0000000000.005.001.data
(PID.TID 0000.0001)  MDS_READ_FIELD: opening file: adxx_sfl.0000000000.006.001.data
(PID.TID 0000.0001)  MDS_READ_FIELD: opening file: adxx_tauv.0000000000.001.001.data
(PID.TID 0000.0001)  MDS_READ_FIELD: opening file: adxx_tauv.0000000000.002.001.data
(PID.TID 0000.0001)  MDS_READ_FIELD: opening file: adxx_tauv.0000000000.003.001.data
(PID.TID 0000.0001)  MDS_READ_FIELD: opening file: adxx_tauv.0000000000.004.001.data
(PID.TID 0000.0001)  MDS_READ_FIELD: opening file: adxx_tauv.0000000000.005.001.data
(PID.TID 0000.0001)  MDS_READ_FIELD: opening file: adxx_tauv.0000000000.006.001.data
(PID.TID 0000.0001)  MDS_READ_FIELD: opening file: adxx_tauu.0000000000.001.001.data
(PID.TID 0000.0001)  MDS_READ_FIELD: opening file: adxx_tauu.0000000000.002.001.data
(PID.TID 0000.0001)  MDS_READ_FIELD: opening file: adxx_tauu.0000000000.003.001.data
(PID.TID 0000.0001)  MDS_READ_FIELD: opening file: adxx_tauu.0000000000.004.001.data
(PID.TID 0000.0001)  MDS_READ_FIELD: opening file: adxx_tauu.0000000000.005.001.data
(PID.TID 0000.0001)  MDS_READ_FIELD: opening file: adxx_tauu.0000000000.006.001.data
(PID.TID 0000.0001) // =======================================================
(PID.TID 0000.0001) // Begin MONITOR dynamic field statistics
(PID.TID 0000.0001) // =======================================================
(PID.TID 0000.0001) %MON ad_time_tsnumber             =                 72000
(PID.TID 0000.0001) %MON ad_time_secondsf             =   6.2208000000000E+09
(PID.TID 0000.0001) %MON ad_dynstat_adeta_max         =   1.5636893729370E+00
(PID.TID 0000.0001) %MON ad_dynstat_adeta_min         =  -2.0889551380811E+00
(PID.TID 0000.0001) %MON ad_dynstat_adeta_mean        =  -1.7501985308569E-02
(PID.TID 0000.0001) %MON ad_dynstat_adeta_sd          =   3.5042030488694E-01
(PID.TID 0000.0001) %MON ad_dynstat_adeta_del2        =   3.1519476500692E-02
(PID.TID 0000.0001) %MON ad_dynstat_aduvel_max        =   7.9542697988498E+02
(PID.TID 0000.0001) %MON ad_dynstat_aduvel_min        =  -7.1241339797803E+02
(PID.TID 0000.0001) %MON ad_dynstat_aduvel_mean       =   7.1827394792002E-01
(PID.TID 0000.0001) %MON ad_dynstat_aduvel_sd         =   1.3632822400177E+01
(PID.TID 0000.0001) %MON ad_dynstat_aduvel_del2       =   4.1460722469312E+00
(PID.TID 0000.0001) %MON ad_dynstat_advvel_max        =   6.1740198193380E+02
(PID.TID 0000.0001) %MON ad_dynstat_advvel_min        =  -5.2145025870521E+02
(PID.TID 0000.0001) %MON ad_dynstat_advvel_mean       =   9.1803066077430E-01
(PID.TID 0000.0001) %MON ad_dynstat_advvel_sd         =   1.3412662859799E+01
(PID.TID 0000.0001) %MON ad_dynstat_advvel_del2       =   3.6833144690081E+00
(PID.TID 0000.0001) %MON ad_dynstat_adwvel_max        =   4.8117719008676E+02
(PID.TID 0000.0001) %MON ad_dynstat_adwvel_min        =  -2.6193031250645E+02
(PID.TID 0000.0001) %MON ad_dynstat_adwvel_mean       =  -9.5546065947573E-03
(PID.TID 0000.0001) %MON ad_dynstat_adwvel_sd         =   4.6072759187873E+00
(PID.TID 0000.0001) %MON ad_dynstat_adwvel_del2       =   7.1091537846537E-01
(PID.TID 0000.0001) %MON ad_dynstat_adtheta_max       =   2.1130433270629E+02
(PID.TID 0000.0001) %MON ad_dynstat_adtheta_min       =  -1.2812190229626E+02
(PID.TID 0000.0001) %MON ad_dynstat_adtheta_mean      =   6.2493122772622E-01
(PID.TID 0000.0001) %MON ad_dynstat_adtheta_sd        =   2.1919024170409E+00
(PID.TID 0000.0001) %MON ad_dynstat_adtheta_del2      =   4.3644420875338E-01
(PID.TID 0000.0001) %MON ad_dynstat_adsalt_max        =   6.3790561382918E+02
(PID.TID 0000.0001) %MON ad_dynstat_adsalt_min        =  -6.6082973653544E+02
(PID.TID 0000.0001) %MON ad_dynstat_adsalt_mean       =  -9.5042920088179E-02
(PID.TID 0000.0001) %MON ad_dynstat_adsalt_sd         =   6.3184565221962E+00
(PID.TID 0000.0001) %MON ad_dynstat_adsalt_del2       =   1.8177865065119E+00
(PID.TID 0000.0001) %MON ad_dynstat_adsst_max         =   2.5290517240321E+01
(PID.TID 0000.0001) %MON ad_dynstat_adsst_min         =  -1.6466198056888E+01
(PID.TID 0000.0001) %MON ad_dynstat_adsst_mean        =   2.1404809214056E+00
(PID.TID 0000.0001) %MON ad_dynstat_adsst_sd          =   3.2924558177437E+00
(PID.TID 0000.0001) %MON ad_dynstat_adsst_del2        =   5.2299074982635E-01
(PID.TID 0000.0001) %MON ad_dynstat_adsss_max         =   6.0691668354079E+01
(PID.TID 0000.0001) %MON ad_dynstat_adsss_min         =  -6.7795533695172E+01
(PID.TID 0000.0001) %MON ad_dynstat_adsss_mean        =  -1.7249839215975E-01
(PID.TID 0000.0001) %MON ad_dynstat_adsss_sd          =   5.8526657631884E+00
(PID.TID 0000.0001) %MON ad_dynstat_adsss_del2        =   1.7204388727323E+00
(PID.TID 0000.0001) %MON ad_extforcing_adqnet_max     =   0.0000000000000E+00
(PID.TID 0000.0001) %MON ad_extforcing_adqnet_min     =   0.0000000000000E+00
(PID.TID 0000.0001) %MON ad_extforcing_adqnet_mean    =   0.0000000000000E+00
(PID.TID 0000.0001) %MON ad_extforcing_adqnet_sd      =   0.0000000000000E+00
(PID.TID 0000.0001) %MON ad_extforcing_adqnet_del2    =   0.0000000000000E+00
(PID.TID 0000.0001) %MON ad_extforcing_adqsw_max      =   2.5876192846305E-02
(PID.TID 0000.0001) %MON ad_extforcing_adqsw_min      =  -8.9573435669239E-02
(PID.TID 0000.0001) %MON ad_extforcing_adqsw_mean     =   3.5517847145321E-04
(PID.TID 0000.0001) %MON ad_extforcing_adqsw_sd       =   1.6224895422088E-03
(PID.TID 0000.0001) %MON ad_extforcing_adqsw_del2     =   2.1731330359982E-04
(PID.TID 0000.0001) %MON ad_extforcing_adempmr_max    =   0.0000000000000E+00
(PID.TID 0000.0001) %MON ad_extforcing_adempmr_min    =   0.0000000000000E+00
(PID.TID 0000.0001) %MON ad_extforcing_adempmr_mean   =   0.0000000000000E+00
(PID.TID 0000.0001) %MON ad_extforcing_adempmr_sd     =   0.0000000000000E+00
(PID.TID 0000.0001) %MON ad_extforcing_adempmr_del2   =   0.0000000000000E+00
(PID.TID 0000.0001) %MON ad_extforcing_adfu_max       =   0.0000000000000E+00
(PID.TID 0000.0001) %MON ad_extforcing_adfu_min       =   0.0000000000000E+00
(PID.TID 0000.0001) %MON ad_extforcing_adfu_mean      =   0.0000000000000E+00
(PID.TID 0000.0001) %MON ad_extforcing_adfu_sd        =   0.0000000000000E+00
(PID.TID 0000.0001) %MON ad_extforcing_adfu_del2      =   0.0000000000000E+00
(PID.TID 0000.0001) %MON ad_extforcing_adfv_max       =   0.0000000000000E+00
(PID.TID 0000.0001) %MON ad_extforcing_adfv_min       =   0.0000000000000E+00
(PID.TID 0000.0001) %MON ad_extforcing_adfv_mean      =   0.0000000000000E+00
(PID.TID 0000.0001) %MON ad_extforcing_adfv_sd        =   0.0000000000000E+00
(PID.TID 0000.0001) %MON ad_extforcing_adfv_del2      =   0.0000000000000E+00
(PID.TID 0000.0001) %MON ad_advcfl_aduvel_max         =   3.4169004767475E+02
(PID.TID 0000.0001) %MON ad_advcfl_advvel_max         =   1.9769186751149E+02
(PID.TID 0000.0001) %MON ad_advcfl_adwvel_max         =   6.9289515372494E+05
(PID.TID 0000.0001) %MON ad_advcfl_adW_hf_max         =   1.6629483689398E+06
(PID.TID 0000.0001) // =======================================================
(PID.TID 0000.0001) // End MONITOR dynamic field statistics
(PID.TID 0000.0001) // =======================================================
(PID.TID 0000.0001)  MDS_READ_FIELD: opening file: xx_theta.0000000000.001.001.data
(PID.TID 0000.0001)  MDS_READ_FIELD: opening file: xx_theta.0000000000.002.001.data
(PID.TID 0000.0001)  MDS_READ_FIELD: opening file: xx_theta.0000000000.003.001.data
(PID.TID 0000.0001)  MDS_READ_FIELD: opening file: xx_theta.0000000000.004.001.data
(PID.TID 0000.0001)  MDS_READ_FIELD: opening file: xx_theta.0000000000.005.001.data
(PID.TID 0000.0001)  MDS_READ_FIELD: opening file: xx_theta.0000000000.006.001.data
(PID.TID 0000.0001)  MDS_READ_FIELD: opening file: adxx_diffkr.0000000000.001.001.data
(PID.TID 0000.0001)  MDS_READ_FIELD: opening file: adxx_diffkr.0000000000.002.001.data
(PID.TID 0000.0001)  MDS_READ_FIELD: opening file: adxx_diffkr.0000000000.003.001.data
(PID.TID 0000.0001)  MDS_READ_FIELD: opening file: adxx_diffkr.0000000000.004.001.data
(PID.TID 0000.0001)  MDS_READ_FIELD: opening file: adxx_diffkr.0000000000.005.001.data
(PID.TID 0000.0001)  MDS_READ_FIELD: opening file: adxx_diffkr.0000000000.006.001.data
(PID.TID 0000.0001)  MDS_READ_FIELD: opening file: adxx_salt.0000000000.001.001.data
(PID.TID 0000.0001)  MDS_READ_FIELD: opening file: adxx_salt.0000000000.002.001.data
(PID.TID 0000.0001)  MDS_READ_FIELD: opening file: adxx_salt.0000000000.003.001.data
(PID.TID 0000.0001)  MDS_READ_FIELD: opening file: adxx_salt.0000000000.004.001.data
(PID.TID 0000.0001)  MDS_READ_FIELD: opening file: adxx_salt.0000000000.005.001.data
(PID.TID 0000.0001)  MDS_READ_FIELD: opening file: adxx_salt.0000000000.006.001.data
(PID.TID 0000.0001)  MDS_READ_FIELD: opening file: adxx_theta.0000000000.001.001.data
(PID.TID 0000.0001)  MDS_READ_FIELD: opening file: adxx_theta.0000000000.002.001.data
(PID.TID 0000.0001)  MDS_READ_FIELD: opening file: adxx_theta.0000000000.003.001.data
(PID.TID 0000.0001)  MDS_READ_FIELD: opening file: adxx_theta.0000000000.004.001.data
(PID.TID 0000.0001)  MDS_READ_FIELD: opening file: adxx_theta.0000000000.005.001.data
(PID.TID 0000.0001)  MDS_READ_FIELD: opening file: adxx_theta.0000000000.006.001.data
 ph-check entering grdchk_main 
 ph-check fcref =   101197.871
grad-res -------------------------------
 grad-res  proc    #    i    j    k   bi   bj iobc               fc ref           fc + eps           fc - eps
 grad-res  proc    #    i    j    k   bi   bj iobc             adj grad            fd grad         1 - fd/adj
 ph-grd -->hit<--  1 1 1 1
(PID.TID 0000.0001)  MDS_READ_FIELD: opening file: adxx_theta.0000000000.001.001.data
(PID.TID 0000.0001)  MDS_READ_FIELD: opening file: adxx_theta.0000000000.002.001.data
(PID.TID 0000.0001)  MDS_READ_FIELD: opening file: adxx_theta.0000000000.003.001.data
(PID.TID 0000.0001)  MDS_READ_FIELD: opening file: adxx_theta.0000000000.004.001.data
(PID.TID 0000.0001)  MDS_READ_FIELD: opening file: adxx_theta.0000000000.005.001.data
(PID.TID 0000.0001)  MDS_READ_FIELD: opening file: adxx_theta.0000000000.006.001.data
(PID.TID 0000.0001)  MDS_READ_FIELD: opening file: xx_theta.0000000000.001.001.data
(PID.TID 0000.0001)  MDS_READ_FIELD: opening file: xx_theta.0000000000.002.001.data
(PID.TID 0000.0001)  MDS_READ_FIELD: opening file: xx_theta.0000000000.003.001.data
(PID.TID 0000.0001)  MDS_READ_FIELD: opening file: xx_theta.0000000000.004.001.data
(PID.TID 0000.0001)  MDS_READ_FIELD: opening file: xx_theta.0000000000.005.001.data
(PID.TID 0000.0001)  MDS_READ_FIELD: opening file: xx_theta.0000000000.006.001.data
(PID.TID 0000.0001)  MDS_READ_FIELD: opening global file: bathy_Hmin50.bin
(PID.TID 0000.0001) // =======================================================
(PID.TID 0000.0001) // Field Model R_low (ini_masks_etc) at iteration          1
(PID.TID 0000.0001) // CMIN =         -5.200000000000000E+03
(PID.TID 0000.0001) // CMAX =         -5.000000000000000E+01
(PID.TID 0000.0001) // CINT =          1.907407407407407E+02
(PID.TID 0000.0001) // SYMBOLS (CMIN->CMAX): -abcdefghijklmnopqrstuvwxyz+
(PID.TID 0000.0001) //                  0.0: .
(PID.TID 0000.0001) // RANGE I (Lo:Hi:Step):(  -3: 196:   1)
(PID.TID 0000.0001) // RANGE J (Lo:Hi:Step):(  36:  -3:  -1)
(PID.TID 0000.0001) // RANGE K (Lo:Hi:Step):(   1:   1:   1)
(PID.TID 0000.0001) // =======================================================
(PID.TID 0000.0001) K =   1
(PID.TID 0000.0001) //                I=6       I=16      I=26      I=36      I=38      I=48      I=58      I=68      I=70      I=80      I=90      I=100     I=102     I=112     I=122     I=132     I=134     I=144     I=154     I=164     I=166     I=176     I=186     I=196
(PID.TID 0000.0001) // |--J--|321012345|789012345|789012345|789012345|901234567|901234567|901234567|901234567|123456789|123456789|123456789|123456789|345678901|345678901|345678901|345678901|567890123|567890123|567890123|567890123|789012345|789012345|789012345|789012345|
(PID.TID 0000.0001) //     36 cbbc-ddcbcdehkhhmn..++..................................................okn.skko--a-fc----bba-cp.............tfeecccbbdeecccbbdeddedcdcccdddcddffggghiggfffdeeffijlihjlica---a--cgffel.+edfgeedflcbahgfllcbahgfllfhdffhkfffca-aady...llnabdoa--a
(PID.TID 0000.0001) //     35 dcac--cbbeefjkfefw+..........zpu........................................kqnzrqqk--b-da----bbbbfu..............fdddccaadcddccaadcdddcbbbbcdddcccdffffghgffffddefflligfiljfba---aafddehy...pwvlhfffcbagfccfcbagfcceeffffjlkjgaa---bfvheeln-aesaaab
(PID.TID 0000.0001) //     34 d--ba-abcehjnldcclz+........spps.......................................vkqn+xnnncabbcbba--aabfu+..............hcbaaaaaccbaaaaaccdccbaaabbddddccdffffghfeeeeedeffjiffefilhfcaaaacgceei.......zomggfcaecbbgfcaecbbccddefilihecbaacbaajfega-aesfeed
(PID.TID 0000.0001) //     33 --abbbccceiomkfdbbc+.......+s..........................................xsrxzz+z.fdcddb-----adu+...............hcbaa--accbaa--accddba--bbbddddccdfffhhgfeeddcceddhfeddfgikhfffdfgccffw........zohhgebbaaahgebbaaaaaccdfhlhfefdcccaabjefbaaafoosso
(PID.TID 0000.0001) //     32 --bddefhhkqqlgfaakqz..v.+..+.........................................++..u+....zigfdba----adu+................kdcaaa-acccaaa-accdcb---bbbcdddddefffggfeeedcccccbccbbdcdfgghhiihcbeiw.........+ynjgebaaaajgebaaaa-aacccfikkhecccbbbaaabaadfklnqpp
(PID.TID 0000.0001) //     31 abbcffijnpnqneaaat..umrr+s.z.........................................+++++.ztsvdlifeb--dfdfu+................+lkdca--abcdca--abcccb---bbbbddddeffflhfeeeecbbbbaaba-abbacbcdceffbbfw+..........++ujfbaaa-ujfbaaa----aacffiljgfffcca--adfikkiihhhf
(PID.TID 0000.0001) //     30 --adgillkkkifcadcx.ymmqzqikvnnps.....................................+++++wmegt-jlifcacdlqx+++...............mligea---abgea---abbbb---abaaddddeedkmeddefdbbbaaaabc---b--aaaaabaabm..............+viba---+viba-------acdefinmlgiieb-chnnnmlmlgffc
(PID.TID 0000.0001) //     29 --cfiljigfjd--efdozy...+ximpnnuz......................................+++yqddhp-iljhcbbchz+......++.........+mmhffc----affc----aaba------acdddcbcineddgdbaaa----cdd--a------aa-bfz...............+qe---a.+qe---aa---aedeegknmlgiigcdfhpokkimlfdb
(PID.TID 0000.0001) //     28 -abgkhfcccea-bdei........t............................................++zwgfcfk-gknhccbbhwwy.....+++........+njfeed-----eed-----aa-------abddcabcnfddegcaaa-----hlf------------dk+................+ja---..+ja------bffdddehfd--bedaacfhpnligiihd
(PID.TID 0000.0001) //     27 -acghfbaaaa-achmy......................+.......+++....................++vnbbbclefkpkeeecflmqxy....++........+lhfeecc----eecc------------aaadcbabcfhddccba-------zqd-----------irw.................++e---..++e-----mhmijddda--------ahhfiokhedegg
(PID.TID 0000.0001) //     26 -adhfca-----bfiv.......................+.......++sy...................+tq-fdbblcjknqiheddefhiksz++++........zkhfdccb----dccb------------aabdcaaaacfddbca-------a+xfa-abb-----vvv...................+wa--...+wa---mlmkijhc----------cjjffiheb-aad
(PID.TID 0000.0001) //     25 -achfa------ch+..................w.......w.......njo+................+x-----bcgidiqqojfefiiiijmy.++.........zkhfdbaa----dbaa-------daa---acccaaaacccca--------ac.+udaabbb----tei...................++qde...++qdeqnghiljcaaaaidaa----beedeeca--bb
(PID.TID 0000.0001) //     24 aaeifa--acbcei...................w.......w.......likn+.....++.....++znpa----bbdi-fnlmnjhinlksssw............qhfeca------ca--------addc--aeffaaaaaaccb-a----a--bd.++udbbaba---ven....................++xy....++xywnfgllcbbabegkecba----ddddcaacdc
(PID.TID 0000.0001) //     23 abfida-aabchjk...................zz......zz.....nhhijz....tqq.....+ujgzgd---abci-cegklkkknols..xuu..........zgfdba------ba--------bcd---affaaadffabbb-----aa-bcc.+.+ufb-----l.gx...........s.........++z.....++zzkfilfccccoz..ulkcd---bccnfddddd
(PID.TID 0000.0001) //     22 -afhfaa---bfgi....................zz..rn..zz..rnjffggm...nlmn+....+sffzya--aabcieaaffdfhimrmp...yuu.++.......zudba------ba--------adc---dda-adffe-aa--------aaac....+ufc-baaqvhh..........dcfeeh......++......++zggqvifefhz......zobbaccfwuffeee
(PID.TID 0000.0001) //     21 babcgca----abe.....................ysstl...ysstlgeeeeoz..ijklt+....lfjzzf---adfcfdaadcehllotq....yy+++zzs.....+zcba-----cba-------cdd--aaa----df------------aaac.....+upjdcy.vohq.......+idcdfeeefwz....efwz....+hhn.vklox.........gdccfjwrigffh
(PID.TID 0000.0001) //     20 fbbbcgfcaa-aae+.......................lc......lcgfdddhq.+hiilnz++.+oquxyz--adgkfdcaabcfmtooyxz......+yuiiy....++gb------gb--------ddcca-a-----acbaa------bbaaaab........ywxy.lulo.lv...kcdgddffefffilyx+fffilyx+fffk.+xyyy.........mgeimvskjklll
(PID.TID 0000.0001) //     19 zmfeccdghfeegcbt......................aa......aafifccgnrzgghjry.+++sr+lq.--edfkkoxtkblwnnsp.vv......skhggt...+++t-------t---------bdaf---------edd-------adlaaaa+..........vnhzy.tllqiedccdhggfggffiiggfgffiiggfcbdgy..yz..........xigqophijkkii
(PID.TID 0000.0001) //     18 ..wifedfkhfegbbcivlqfoz..............jaa.....jaacfihggokeeffgt..++++..hhlfdeddkez..qcz+.zwxtsttz..ysrkhot++++++zig------ig--------b--f---------egqqqaa----frb---+........+kkrhw.vqmlnieddcdehgggffgigedbffgigedbaaceiy.............zilrddefikkhh
(PID.TID 0000.0001) //     17 ..+wfeefikhgcbbccaaacgn.............icaa....icaaccfihfoedddeedy..++...nnqwgfeekeyy.z++..+zsjjllllljllpjos+++.+zhhi-----ehi-----e-----ea--------foqqoqqo--hlwgea-.........+nk+..xiioonhfefddegihhghigfdbaghigfdbaaabdgx..............nheddefiklhg
(PID.TID 0000.0001) //     16 ....wiheddeccdfhfbabdfl............jdbad...jdbaddddgifkccccdccd+.++..++ynvz.tkkq.mu....++zyslllllkhggkmpy++...ihhi-----ehi-----ea---feb-----a-acnoohfghknvmwnuca..........qhu..hhhkojgffgeefghihhiieedbahiieedbaaabcdy..............ygddeghiljgf
(PID.TID 0000.0001) //     15 ......ylea--acfihebcbbes..........sfcbbn..sfcbbngfffigcaaabdbcac+.+++++zgmpx...y.mm....++..zslwz.yhhhhnz+++...rhgc----abgc----ab----ige----acaaalllkddfiy..yswxb..........thk.xgghiligfghfefhhhhiiheedcdiiheedcdbbabdmz.............zfdeghikkifd
(PID.TID 0000.0001) //     14 ........c---acgkhdcc--di..........ofddch..ofddchohffikaaaaabaaa-aw+.+ysnggox++...qrv..........yzzzzrjil+++....qhgd-----agd-----a-----i---cccdeabkklldinqssy..xxv...........+y.uhghikihgfghefgihhhgeeeeedhgeeeeeddbaadhw.............nedeghjjhfed
(PID.TID 0000.0001) //     13 .......+b----cfkhec---afz.........nhfdff..nhfdffholghkaaaaaba-a---flkkuswyy++++y+zr...........zzzzz++ry++......yd-------d--------------aeecdeidfkkqnqlmqquukqqmf..............iihiijjhfefgefhjihiffgggffiffgggffecaabelx...........zjecehijhfecc
(PID.TID 0000.0001) //     12 .......ec----chjhec---ag..........skiqdd..skiqddeiiiifaaabae--a---dd--iu+++.+++sxq++..........+z+++++.+++....++.s-------s------------a-ceccdejhlllkqlkklssiccdee.............wjkkkjjjigeefffgjiiighiiihhighiiihhhdaabdffghtxx......mfccehjiffdb-
(PID.TID 0000.0001) //     11 ......pdca--achlheba--ai..........nkn.fd..nkn.fdemijidaaaabi-------a--q+....++.ziis...........+++++..........+yyza----b-za----b-----a--ccccddkhieekkossssfbbbbcd............njjijhhihijhgggggjjjjijkkkkjjijkkkkjjhcaacddeegpy.....xfdccdhjgfdda-
(PID.TID 0000.0001) //     10 ......wfdb--achlhea---an.........uos..dc.uos..dcemikkfdcaabi-------equ+.........mk...........................zyvuq----ccuq----cc----a---dcfhkopqjeissrnpfbbcccde..........zslihhigghgijjihhhhkllkkkkkkjkkkkkkkjkkkedccdeeeeipz..zwhccbcdhgfddcam
(PID.TID 0000.0001) //      9 ......vgec---bfikca--cjl+.......+nnv.+cc+nnv.+ccffhkkiddaadha-----as++..........pvz++........................zxuuk------uk------a---a----djmqrrnlllsoiddcccccdjf.........+zjijhfgfggffhjkkkiillljihhghgijihhghgihighdeeffgghimnnjgecbbcdgfeccbas
(PID.TID 0000.0001) //      8 .....zleca---afjfca--hdfz.......vkky.jcevkky.jceddefijffdddhb--a-afv............nn..ss.........................+yku-----yku--------------ejnpqqnninnritqdccchkmf+.......wihgghgeffffeefhijkjkljiigeeffefigeeffefffhjhhikkklljklmhffeeeggfdcbaay.
(PID.TID 0000.0001) //      7 ...+zohec--abcfkhecbchbdx.......qiht.faaqiht.faaaabdgijgfededcdcb-f+............nn...pz.........................+zu-----+zu--------------edefqgqddsz+......+yuddmm+....tiggfggfeeeefeeefiiiijkiihhedddddhheddddddddjjllliijhfkmmkkjjhijgdcba--q.
(PID.TID 0000.0001) //      6 ..+yomfddcaabefkifdchaadt......uqdeisc--qdeisc----dfefgifffkklldc--v............up...pp.........................v.x-----v.x---------a----fbbpqgzenx+........zdbcmllkhhfffffffgfeeeeeeeefhhhhijihhffddcbbhffddcbbbbdhhiihedddb-cfhhhjjjieca----+.
(PID.TID 0000.0001) //      5 ..+nhgffkghccfhkhffgdaackz....uoibcimlaaibcimlaaacfbddfjjhijeehf-a-c............zs...su.........................qk.yi---qk.yi-------gha-fjddqs+xkrz.........q-bchikdccdeeeeeeedddedddddgghhhhjhhgffcbbaagffcbbaaaaddfegecca----dfeefhfgdb-----+.
(PID.TID 0000.0001) //      4 .+ujhgfllfhdffhkfffca-aady...llnabdopfcbabdopfcbdgdbcdehlihgfddc--ms............................................okn.zd--okn.zd---eciiiicfkeeqy.ysz..........n-aafgdcbbdeddedcdcccdddcddffggghiggfffdbaa-fffdbaa---acdcccba--abvfedeffdcca----b+.
(PID.TID 0000.0001) //      3 +vjggfcceeffffjlkjgaa---bfvheeln-aesphfd-aesphfdhgabddeflihhgfecbaaayq+++++.....................................kqnz.vtpkqnz.vtpkllgdccfkkkkk..++..........+g---fecaaadcdddcbbbbcdddcccdffffghgffffdcaa-fffdcaa----abcaaaa-acxxmecdjmdbba----r+.
(PID.TID 0000.0001) //      2 qifeecbbccddefilihecbaacbaajfega-aesqhff-aesqhffiea-cdeflkkljifeddcba---bry+...................................vkqn+.sghkqn+.sghfcbcbbbdgfdek.++++.........+l---caaaaaccdccbaaabbddddccdffffghfeeeeecba-eeeecba------baaaa-euwxqdbcdkud-----sy+.
(PID.TID 0000.0001) //      1 ebbbbaaaaaccdfhlhfefdcccaabjefbaaafonhglaafonhglid--adfgkkkklkhffddca-----s++++................................xsrxz.tedsrxz.tedcbbbbaaadddet.++++.........+l------a-accddba--bbbddddccdfffhhgfeeddccba-eddccba-------aaaabgns.qcbcchyzqngll++..
(PID.TID 0000.0001) //      0 -aaaaaaa-aacccfikkhecccbbbaaabaadfkllilmdfkllilmgebaadfijjiiikjhffdcba-----lllgn.............................++..u+..zmd.u+..zmdfbd---a-aeef.xx+..........+++s-------accdcb---bbbcdddddefffggfeeedcccbbaedcccbba----aa--alrwwy.kcbccc+...++++...
(PID.TID 0000.0001) //     -1 --aaaaa----aacffiljgfffcca--adfikkiikimikkiikimiiheccfurkiffhijjigfecb-----l----.............................+++++.z+.wq++.z+.wqgbf-------dgzpoy+........+ys+yrb--aa-abcccb---bbbbddddeffflhfeeeecbbcbbaecbbcbbaa----a--bdflm.yuibbcc.......+...
(PID.TID 0000.0001) //     -2 --aaa-------acdefinmlgiieb-chnnnmlmlfklkmlmlfklklkhednwwsheeghhijjgfdca----g---a.............................+++++wmu++y++wmu++ywn--------fwvmgy+........+r-.+++-abc--abbbb---abaaddddeedkmeddefdbbbdcbadbbbdcbaa-------ba-hv.susfbcc.......+...
(PID.TID 0000.0001) //     -3 a--a---aa---aedeegknmlgiigcdfhpokkimdkmkkkimdkmknoiedcfjvpddegghhhhgfdcbaa-n---a..............................+++yqd.++++yqd.+++zvq--dafz.lqnggw+........+b-....abcc---aaba------acdddcbcineddgdbaaaeedbbaaaeedbaa----------nysqssfcd...........
(PID.TID 0000.0001) // =======================================================
(PID.TID 0000.0001) // END OF FIELD                                          =
(PID.TID 0000.0001) // =======================================================
(PID.TID 0000.0001) 
(PID.TID 0000.0001) // =======================================================
(PID.TID 0000.0001) // Field Model Ro_surf (ini_masks_etc) at iteration          1
(PID.TID 0000.0001) // CMIN =         -7.105427357601002E-15
(PID.TID 0000.0001) // CMAX =         -7.105427357601002E-15
(PID.TID 0000.0001) // CINT =          0.000000000000000E+00
(PID.TID 0000.0001) // SYMBOLS (CMIN->CMAX): -abcdefghijklmnopqrstuvwxyz+
(PID.TID 0000.0001) //                  0.0: .
(PID.TID 0000.0001) // RANGE I (Lo:Hi:Step):(  -3: 196:   1)
(PID.TID 0000.0001) // RANGE J (Lo:Hi:Step):(  36:  -3:  -1)
(PID.TID 0000.0001) // RANGE K (Lo:Hi:Step):(   1:   1:   1)
(PID.TID 0000.0001) // =======================================================
(PID.TID 0000.0001) // =======================================================
(PID.TID 0000.0001) // END OF FIELD                                          =
(PID.TID 0000.0001) // =======================================================
(PID.TID 0000.0001) 
(PID.TID 0000.0001) // =======================================================
(PID.TID 0000.0001) // Field hFacC at iteration          1
(PID.TID 0000.0001) // CMIN =          1.000000000000000E+00
(PID.TID 0000.0001) // CMAX =          1.000000000000000E+00
(PID.TID 0000.0001) // CINT =          0.000000000000000E+00
(PID.TID 0000.0001) // SYMBOLS (CMIN->CMAX): -abcdefghijklmnopqrstuvwxyz+
(PID.TID 0000.0001) //                  0.0: .
(PID.TID 0000.0001) // RANGE I (Lo:Hi:Step):(  -3: 196:   1)
(PID.TID 0000.0001) // RANGE J (Lo:Hi:Step):(  36:  -3:  -1)
(PID.TID 0000.0001) // RANGE K (Lo:Hi:Step):(   1:   1:   1)
(PID.TID 0000.0001) // =======================================================
(PID.TID 0000.0001) // =======================================================
(PID.TID 0000.0001) // END OF FIELD                                          =
(PID.TID 0000.0001) // =======================================================
(PID.TID 0000.0001) 
(PID.TID 0000.0001) // =======================================================
(PID.TID 0000.0001) // Field hFacW at iteration          1
(PID.TID 0000.0001) // CMIN =          1.000000000000000E+00
(PID.TID 0000.0001) // CMAX =          1.000000000000000E+00
(PID.TID 0000.0001) // CINT =          0.000000000000000E+00
(PID.TID 0000.0001) // SYMBOLS (CMIN->CMAX): -abcdefghijklmnopqrstuvwxyz+
(PID.TID 0000.0001) //                  0.0: .
(PID.TID 0000.0001) // RANGE I (Lo:Hi:Step):(  -3: 196:   1)
(PID.TID 0000.0001) // RANGE J (Lo:Hi:Step):(  36:  -3:  -1)
(PID.TID 0000.0001) // RANGE K (Lo:Hi:Step):(   1:   1:   1)
(PID.TID 0000.0001) // =======================================================
(PID.TID 0000.0001) // =======================================================
(PID.TID 0000.0001) // END OF FIELD                                          =
(PID.TID 0000.0001) // =======================================================
(PID.TID 0000.0001) 
(PID.TID 0000.0001) // =======================================================
(PID.TID 0000.0001) // Field hFacS at iteration          1
(PID.TID 0000.0001) // CMIN =          1.000000000000000E+00
(PID.TID 0000.0001) // CMAX =          1.000000000000000E+00
(PID.TID 0000.0001) // CINT =          0.000000000000000E+00
(PID.TID 0000.0001) // SYMBOLS (CMIN->CMAX): -abcdefghijklmnopqrstuvwxyz+
(PID.TID 0000.0001) //                  0.0: .
(PID.TID 0000.0001) // RANGE I (Lo:Hi:Step):(  -3: 196:   1)
(PID.TID 0000.0001) // RANGE J (Lo:Hi:Step):(  36:  -3:  -1)
(PID.TID 0000.0001) // RANGE K (Lo:Hi:Step):(   1:   1:   1)
(PID.TID 0000.0001) // =======================================================
(PID.TID 0000.0001) // =======================================================
(PID.TID 0000.0001) // END OF FIELD                                          =
(PID.TID 0000.0001) // =======================================================
(PID.TID 0000.0001) 
(PID.TID 0000.0001) %MON ad_advcflfCori_max           =   1.4535016908525E-04
(PID.TID 0000.0001) %MON ad_advcflfCori_min           =  -1.4535016908525E-04
(PID.TID 0000.0001) %MON ad_advcflfCori_mean          =   0.0000000000000E+00
(PID.TID 0000.0001) %MON ad_advcflfCori_sd            =   8.3972192788621E-05
(PID.TID 0000.0001) %MON ad_advcflfCoriG_max          =   1.4544410433286E-04
(PID.TID 0000.0001) %MON ad_advcflfCoriG_min          =  -1.4544410433286E-04
(PID.TID 0000.0001) %MON ad_advcflfCoriG_mean         =   0.0000000000000E+00
(PID.TID 0000.0001) %MON ad_advcflfCoriG_sd           =   8.3972192788621E-05
(PID.TID 0000.0001) %MON ad_advcflfCoriCos_max        =   1.4540341538469E-04
(PID.TID 0000.0001) %MON ad_advcflfCoriCos_min        =   5.2264550201501E-06
(PID.TID 0000.0001) %MON ad_advcflfCoriCos_mean       =   1.1482595466044E-04
(PID.TID 0000.0001) %MON ad_advcflfCoriCos_sd         =   3.0292878037194E-05
(PID.TID 0000.0001) INI_CG2D: CG2D normalisation factor =  1.9156564154949553E-04
(PID.TID 0000.0001) INI_CG2D: cg2dTolerance = 5.809016360175293E-07 (Area=3.6388673751E+14)
(PID.TID 0000.0001) 
(PID.TID 0000.0001)  MDS_READ_META: opening file: pickup.0000072000.meta
(PID.TID 0000.0001)  nRecords = 123 ; filePrec =  64 ; fileIter =     72000
(PID.TID 0000.0001)     nDims =   2 , dims:
(PID.TID 0000.0001)    1: 192   1 192
(PID.TID 0000.0001)    2:  32   1  32
(PID.TID 0000.0001)     nFlds =  11 , nFl3D =   8 , fields:
(PID.TID 0000.0001)  >Uvel    < >GuNm1   < >Vvel    < >GvNm1   < >Theta   < >GtNm1   < >Salt    < >GsNm1   < >EtaN    < >dEtaHdt < >EtaH    <
(PID.TID 0000.0001)   nTimRec =   0 , timeList:
(PID.TID 0000.0001) READ_MFLDS_3D_RL: read field: "Uvel    ", #   1 in fldList, rec=   1
(PID.TID 0000.0001)  MDS_READ_FIELD: opening global file: pickup.0000072000
(PID.TID 0000.0001) READ_MFLDS_3D_RL: read field: "Vvel    ", #   3 in fldList, rec=   3
(PID.TID 0000.0001)  MDS_READ_FIELD: opening global file: pickup.0000072000
(PID.TID 0000.0001) READ_MFLDS_3D_RL: read field: "Theta   ", #   5 in fldList, rec=   5
(PID.TID 0000.0001)  MDS_READ_FIELD: opening global file: pickup.0000072000
(PID.TID 0000.0001) READ_MFLDS_3D_RL: read field: "Salt    ", #   7 in fldList, rec=   7
(PID.TID 0000.0001)  MDS_READ_FIELD: opening global file: pickup.0000072000
(PID.TID 0000.0001) READ_MFLDS_3D_RL: read field: "GuNm1   ", #   2 in fldList, rec=   2
(PID.TID 0000.0001)  MDS_READ_FIELD: opening global file: pickup.0000072000
(PID.TID 0000.0001) READ_MFLDS_3D_RL: read field: "GvNm1   ", #   4 in fldList, rec=   4
(PID.TID 0000.0001)  MDS_READ_FIELD: opening global file: pickup.0000072000
(PID.TID 0000.0001) READ_MFLDS_3D_RL: read field: "EtaN    ", #   9 in fldList, rec= 121
(PID.TID 0000.0001)  MDS_READ_FIELD: opening global file: pickup.0000072000
(PID.TID 0000.0001) READ_MFLDS_CHECK: - normal end ; reset MFLDS file-name: pickup.0000072000
(PID.TID 0000.0001)  MDS_READ_FIELD: opening global file: trenberth_taux.bin
(PID.TID 0000.0001)  MDS_READ_FIELD: opening global file: trenberth_tauy.bin
(PID.TID 0000.0001)  MDS_READ_FIELD: opening global file: shiQnet_cs32.bin
(PID.TID 0000.0001)  MDS_READ_FIELD: opening global file: shiEmPR_cs32.bin
(PID.TID 0000.0001)  MDS_READ_FIELD: opening global file: lev_surfT_cs_12m.bin
(PID.TID 0000.0001)  MDS_READ_FIELD: opening global file: lev_surfS_cs_12m.bin
(PID.TID 0000.0001)  MDS_READ_FIELD: opening file: xx_theta.0000000000.001.001.data
(PID.TID 0000.0001)  MDS_READ_FIELD: opening file: xx_theta.0000000000.002.001.data
(PID.TID 0000.0001)  MDS_READ_FIELD: opening file: xx_theta.0000000000.003.001.data
(PID.TID 0000.0001)  MDS_READ_FIELD: opening file: xx_theta.0000000000.004.001.data
(PID.TID 0000.0001)  MDS_READ_FIELD: opening file: xx_theta.0000000000.005.001.data
(PID.TID 0000.0001)  MDS_READ_FIELD: opening file: xx_theta.0000000000.006.001.data
(PID.TID 0000.0001)  MDS_READ_FIELD: opening file: xx_salt.0000000000.001.001.data
(PID.TID 0000.0001)  MDS_READ_FIELD: opening file: xx_salt.0000000000.002.001.data
(PID.TID 0000.0001)  MDS_READ_FIELD: opening file: xx_salt.0000000000.003.001.data
(PID.TID 0000.0001)  MDS_READ_FIELD: opening file: xx_salt.0000000000.004.001.data
(PID.TID 0000.0001)  MDS_READ_FIELD: opening file: xx_salt.0000000000.005.001.data
(PID.TID 0000.0001)  MDS_READ_FIELD: opening file: xx_salt.0000000000.006.001.data
(PID.TID 0000.0001)  MDS_READ_FIELD: opening file: xx_diffkr.0000000000.001.001.data
(PID.TID 0000.0001)  MDS_READ_FIELD: opening file: xx_diffkr.0000000000.002.001.data
(PID.TID 0000.0001)  MDS_READ_FIELD: opening file: xx_diffkr.0000000000.003.001.data
(PID.TID 0000.0001)  MDS_READ_FIELD: opening file: xx_diffkr.0000000000.004.001.data
(PID.TID 0000.0001)  MDS_READ_FIELD: opening file: xx_diffkr.0000000000.005.001.data
(PID.TID 0000.0001)  MDS_READ_FIELD: opening file: xx_diffkr.0000000000.006.001.data
(PID.TID 0000.0001) // =======================================================
(PID.TID 0000.0001) // Model current state
(PID.TID 0000.0001) // =======================================================
(PID.TID 0000.0001) 
S/R EXTERNAL_FIELDS_LOAD: Reading new data:   12    1     72000  6.220800000000E+09
(PID.TID 0000.0001)  MDS_READ_FIELD: opening global file: trenberth_taux.bin
(PID.TID 0000.0001)  MDS_READ_FIELD: opening global file: trenberth_taux.bin
(PID.TID 0000.0001)  MDS_READ_FIELD: opening global file: trenberth_tauy.bin
(PID.TID 0000.0001)  MDS_READ_FIELD: opening global file: trenberth_tauy.bin
(PID.TID 0000.0001)  MDS_READ_FIELD: opening global file: shiQnet_cs32.bin
(PID.TID 0000.0001)  MDS_READ_FIELD: opening global file: shiQnet_cs32.bin
(PID.TID 0000.0001)  MDS_READ_FIELD: opening global file: shiEmPR_cs32.bin
(PID.TID 0000.0001)  MDS_READ_FIELD: opening global file: shiEmPR_cs32.bin
(PID.TID 0000.0001)  MDS_READ_FIELD: opening global file: lev_surfT_cs_12m.bin
(PID.TID 0000.0001)  MDS_READ_FIELD: opening global file: lev_surfT_cs_12m.bin
(PID.TID 0000.0001)  MDS_READ_FIELD: opening global file: lev_surfS_cs_12m.bin
(PID.TID 0000.0001)  MDS_READ_FIELD: opening global file: lev_surfS_cs_12m.bin
(PID.TID 0000.0001)  MDS_READ_FIELD: opening file: xx_tauu.0000000000.001.001.data
(PID.TID 0000.0001)  MDS_READ_FIELD: opening file: xx_tauu.0000000000.002.001.data
(PID.TID 0000.0001)  MDS_READ_FIELD: opening file: xx_tauu.0000000000.003.001.data
(PID.TID 0000.0001)  MDS_READ_FIELD: opening file: xx_tauu.0000000000.004.001.data
(PID.TID 0000.0001)  MDS_READ_FIELD: opening file: xx_tauu.0000000000.005.001.data
(PID.TID 0000.0001)  MDS_READ_FIELD: opening file: xx_tauu.0000000000.006.001.data
(PID.TID 0000.0001)  MDS_READ_FIELD: opening file: xx_tauv.0000000000.001.001.data
(PID.TID 0000.0001)  MDS_READ_FIELD: opening file: xx_tauv.0000000000.002.001.data
(PID.TID 0000.0001)  MDS_READ_FIELD: opening file: xx_tauv.0000000000.003.001.data
(PID.TID 0000.0001)  MDS_READ_FIELD: opening file: xx_tauv.0000000000.004.001.data
(PID.TID 0000.0001)  MDS_READ_FIELD: opening file: xx_tauv.0000000000.005.001.data
(PID.TID 0000.0001)  MDS_READ_FIELD: opening file: xx_tauv.0000000000.006.001.data
(PID.TID 0000.0001)  MDS_READ_FIELD: opening file: xx_sfl.0000000000.001.001.data
(PID.TID 0000.0001)  MDS_READ_FIELD: opening file: xx_sfl.0000000000.002.001.data
(PID.TID 0000.0001)  MDS_READ_FIELD: opening file: xx_sfl.0000000000.003.001.data
(PID.TID 0000.0001)  MDS_READ_FIELD: opening file: xx_sfl.0000000000.004.001.data
(PID.TID 0000.0001)  MDS_READ_FIELD: opening file: xx_sfl.0000000000.005.001.data
(PID.TID 0000.0001)  MDS_READ_FIELD: opening file: xx_sfl.0000000000.006.001.data
(PID.TID 0000.0001)  MDS_READ_FIELD: opening file: xx_hfl.0000000000.001.001.data
(PID.TID 0000.0001)  MDS_READ_FIELD: opening file: xx_hfl.0000000000.002.001.data
(PID.TID 0000.0001)  MDS_READ_FIELD: opening file: xx_hfl.0000000000.003.001.data
(PID.TID 0000.0001)  MDS_READ_FIELD: opening file: xx_hfl.0000000000.004.001.data
(PID.TID 0000.0001)  MDS_READ_FIELD: opening file: xx_hfl.0000000000.005.001.data
(PID.TID 0000.0001)  MDS_READ_FIELD: opening file: xx_hfl.0000000000.006.001.data
 cg2d: Sum(rhs),rhsMax =  -9.60653778747655E-12  4.28505602916984E+00
 cg2d: Sum(rhs),rhsMax =  -4.21019268515010E-06  4.27911284975572E+00
 cg2d: Sum(rhs),rhsMax =  -8.11960950386492E-06  4.27329379371924E+00
 cg2d: Sum(rhs),rhsMax =  -1.18778273474618E-05  4.26739301158460E+00
 cg2d: Sum(rhs),rhsMax =  -1.52652760334604E-05  4.26144702418405E+00
 cg2d: Sum(rhs),rhsMax =  -1.79970738258817E-05  4.25555457706228E+00
 cg2d: Sum(rhs),rhsMax =  -2.08015304110631E-05  4.24977590002380E+00
 cg2d: Sum(rhs),rhsMax =  -2.30295314338491E-05  4.24417316443624E+00
 cg2d: Sum(rhs),rhsMax =  -2.54247343889347E-05  4.23881439953200E+00
 cg2d: Sum(rhs),rhsMax =  -2.69900835121462E-05  4.23376857682938E+00
 cg2d: Sum(rhs),rhsMax =  -2.89042319820965E-05  4.22909356000236E+00
 cg2d: Sum(rhs),rhsMax =  -3.15952467815350E-05  4.22483241380574E+00
 cg2d: Sum(rhs),rhsMax =  -3.51716482214215E-05  4.22101139009778E+00
 cg2d: Sum(rhs),rhsMax =  -3.94078203385106E-05  4.21764140919201E+00
 cg2d: Sum(rhs),rhsMax =  -4.22129041623975E-05  4.21471931285756E+00
S/R EXTERNAL_FIELDS_LOAD: Reading new data:    1    2     72015  6.222096000000E+09
(PID.TID 0000.0001)  MDS_READ_FIELD: opening global file: trenberth_taux.bin
(PID.TID 0000.0001)  MDS_READ_FIELD: opening global file: trenberth_taux.bin
(PID.TID 0000.0001)  MDS_READ_FIELD: opening global file: trenberth_tauy.bin
(PID.TID 0000.0001)  MDS_READ_FIELD: opening global file: trenberth_tauy.bin
(PID.TID 0000.0001)  MDS_READ_FIELD: opening global file: shiQnet_cs32.bin
(PID.TID 0000.0001)  MDS_READ_FIELD: opening global file: shiQnet_cs32.bin
(PID.TID 0000.0001)  MDS_READ_FIELD: opening global file: shiEmPR_cs32.bin
(PID.TID 0000.0001)  MDS_READ_FIELD: opening global file: shiEmPR_cs32.bin
(PID.TID 0000.0001)  MDS_READ_FIELD: opening global file: lev_surfT_cs_12m.bin
(PID.TID 0000.0001)  MDS_READ_FIELD: opening global file: lev_surfT_cs_12m.bin
(PID.TID 0000.0001)  MDS_READ_FIELD: opening global file: lev_surfS_cs_12m.bin
(PID.TID 0000.0001)  MDS_READ_FIELD: opening global file: lev_surfS_cs_12m.bin
 cg2d: Sum(rhs),rhsMax =  -4.27417056982904E-05  4.21222997561291E+00
 cg2d: Sum(rhs),rhsMax =  -4.17935509631207E-05  4.21005385911935E+00
 cg2d: Sum(rhs),rhsMax =  -4.00928447845672E-05  4.20835829394624E+00
 cg2d: Sum(rhs),rhsMax =  -3.79582012612900E-05  4.20701953797118E+00
 cg2d: Sum(rhs),rhsMax =  -3.56252370181664E-05  4.20598324324771E+00
(PID.TID 0000.0001) %CHECKPOINT     72020 ckptB
(PID.TID 0000.0001)  MDS_READ_FIELD: opening global file: lev_T_cs_15k.bin
 --> objf_test(bi,bj)   =  0.213611449329040E+05
 --> objf_tracer(bi,bj) =  0.000000000000000E+00
 --> objf_atl(bi,bj)    =  0.000000000000000E+00
 --> objf_test(bi,bj)   =  0.114876404777824E+05
 --> objf_tracer(bi,bj) =  0.000000000000000E+00
 --> objf_atl(bi,bj)    =  0.000000000000000E+00
 --> objf_test(bi,bj)   =  0.181712047573626E+05
 --> objf_tracer(bi,bj) =  0.000000000000000E+00
 --> objf_atl(bi,bj)    =  0.000000000000000E+00
 --> objf_test(bi,bj)   =  0.231640448926729E+05
 --> objf_tracer(bi,bj) =  0.000000000000000E+00
 --> objf_atl(bi,bj)    =  0.000000000000000E+00
 --> objf_test(bi,bj)   =  0.145316025262264E+05
 --> objf_tracer(bi,bj) =  0.000000000000000E+00
 --> objf_atl(bi,bj)    =  0.000000000000000E+00
 --> objf_test(bi,bj)   =  0.124822662104368E+05
 --> objf_tracer(bi,bj) =  0.000000000000000E+00
 --> objf_atl(bi,bj)    =  0.000000000000000E+00
  local fc =  0.101197903797385E+06
 global fc =  0.101197903797385E+06
 ph-check fcpertplus =   101197.904
(PID.TID 0000.0001)  MDS_READ_FIELD: opening file: xx_theta.0000000000.001.001.data
(PID.TID 0000.0001)  MDS_READ_FIELD: opening file: xx_theta.0000000000.002.001.data
(PID.TID 0000.0001)  MDS_READ_FIELD: opening file: xx_theta.0000000000.003.001.data
(PID.TID 0000.0001)  MDS_READ_FIELD: opening file: xx_theta.0000000000.004.001.data
(PID.TID 0000.0001)  MDS_READ_FIELD: opening file: xx_theta.0000000000.005.001.data
(PID.TID 0000.0001)  MDS_READ_FIELD: opening file: xx_theta.0000000000.006.001.data
 ph-check fcpertminus =   101197.871
(PID.TID 0000.0001)  MDS_READ_FIELD: opening file: xx_theta.0000000000.001.001.data
(PID.TID 0000.0001)  MDS_READ_FIELD: opening file: xx_theta.0000000000.002.001.data
(PID.TID 0000.0001)  MDS_READ_FIELD: opening file: xx_theta.0000000000.003.001.data
(PID.TID 0000.0001)  MDS_READ_FIELD: opening file: xx_theta.0000000000.004.001.data
(PID.TID 0000.0001)  MDS_READ_FIELD: opening file: xx_theta.0000000000.005.001.data
(PID.TID 0000.0001)  MDS_READ_FIELD: opening file: xx_theta.0000000000.006.001.data
(PID.TID 0000.0001)  MDS_READ_FIELD: opening global file: bathy_Hmin50.bin
(PID.TID 0000.0001) // =======================================================
(PID.TID 0000.0001) // Field Model R_low (ini_masks_etc) at iteration          1
(PID.TID 0000.0001) // CMIN =         -5.200000000000000E+03
(PID.TID 0000.0001) // CMAX =         -5.000000000000000E+01
(PID.TID 0000.0001) // CINT =          1.907407407407407E+02
(PID.TID 0000.0001) // SYMBOLS (CMIN->CMAX): -abcdefghijklmnopqrstuvwxyz+
(PID.TID 0000.0001) //                  0.0: .
(PID.TID 0000.0001) // RANGE I (Lo:Hi:Step):(  -3: 196:   1)
(PID.TID 0000.0001) // RANGE J (Lo:Hi:Step):(  36:  -3:  -1)
(PID.TID 0000.0001) // RANGE K (Lo:Hi:Step):(   1:   1:   1)
(PID.TID 0000.0001) // =======================================================
(PID.TID 0000.0001) K =   1
(PID.TID 0000.0001) //                I=6       I=16      I=26      I=36      I=38      I=48      I=58      I=68      I=70      I=80      I=90      I=100     I=102     I=112     I=122     I=132     I=134     I=144     I=154     I=164     I=166     I=176     I=186     I=196
(PID.TID 0000.0001) // |--J--|321012345|789012345|789012345|789012345|901234567|901234567|901234567|901234567|123456789|123456789|123456789|123456789|345678901|345678901|345678901|345678901|567890123|567890123|567890123|567890123|789012345|789012345|789012345|789012345|
(PID.TID 0000.0001) //     36 cbbc-ddcbcdehkhhmn..++..................................................okn.skko--a-fc----bba-cp.............tfeecccbbdeecccbbdeddedcdcccdddcddffggghiggfffdeeffijlihjlica---a--cgffel.+edfgeedflcbahgfllcbahgfllfhdffhkfffca-aady...llnabdoa--a
(PID.TID 0000.0001) //     35 dcac--cbbeefjkfefw+..........zpu........................................kqnzrqqk--b-da----bbbbfu..............fdddccaadcddccaadcdddcbbbbcdddcccdffffghgffffddefflligfiljfba---aafddehy...pwvlhfffcbagfccfcbagfcceeffffjlkjgaa---bfvheeln-aesaaab
(PID.TID 0000.0001) //     34 d--ba-abcehjnldcclz+........spps.......................................vkqn+xnnncabbcbba--aabfu+..............hcbaaaaaccbaaaaaccdccbaaabbddddccdffffghfeeeeedeffjiffefilhfcaaaacgceei.......zomggfcaecbbgfcaecbbccddefilihecbaacbaajfega-aesfeed
(PID.TID 0000.0001) //     33 --abbbccceiomkfdbbc+.......+s..........................................xsrxzz+z.fdcddb-----adu+...............hcbaa--accbaa--accddba--bbbddddccdfffhhgfeeddcceddhfeddfgikhfffdfgccffw........zohhgebbaaahgebbaaaaaccdfhlhfefdcccaabjefbaaafoosso
(PID.TID 0000.0001) //     32 --bddefhhkqqlgfaakqz..v.+..+.........................................++..u+....zigfdba----adu+................kdcaaa-acccaaa-accdcb---bbbcdddddefffggfeeedcccccbccbbdcdfgghhiihcbeiw.........+ynjgebaaaajgebaaaa-aacccfikkhecccbbbaaabaadfklnqpp
(PID.TID 0000.0001) //     31 abbcffijnpnqneaaat..umrr+s.z.........................................+++++.ztsvdlifeb--dfdfu+................+lkdca--abcdca--abcccb---bbbbddddeffflhfeeeecbbbbaaba-abbacbcdceffbbfw+..........++ujfbaaa-ujfbaaa----aacffiljgfffcca--adfikkiihhhf
(PID.TID 0000.0001) //     30 --adgillkkkifcadcx.ymmqzqikvnnps.....................................+++++wmegt-jlifcacdlqx+++...............mligea---abgea---abbbb---abaaddddeedkmeddefdbbbaaaabc---b--aaaaabaabm..............+viba---+viba-------acdefinmlgiieb-chnnnmlmlgffc
(PID.TID 0000.0001) //     29 --cfiljigfjd--efdozy...+ximpnnuz......................................+++yqddhp-iljhcbbchz+......++.........+mmhffc----affc----aaba------acdddcbcineddgdbaaa----cdd--a------aa-bfz...............+qe---a.+qe---aa---aedeegknmlgiigcdfhpokkimlfdb
(PID.TID 0000.0001) //     28 -abgkhfcccea-bdei........t............................................++zwgfcfk-gknhccbbhwwy.....+++........+njfeed-----eed-----aa-------abddcabcnfddegcaaa-----hlf------------dk+................+ja---..+ja------bffdddehfd--bedaacfhpnligiihd
(PID.TID 0000.0001) //     27 -acghfbaaaa-achmy......................+.......+++....................++vnbbbclefkpkeeecflmqxy....++........+lhfeecc----eecc------------aaadcbabcfhddccba-------zqd-----------irw.................++e---..++e-----mhmijddda--------ahhfiokhedegg
(PID.TID 0000.0001) //     26 -adhfca-----bfiv.......................+.......++sy...................+tq-fdbblcjknqiheddefhiksz++++........zkhfdccb----dccb------------aabdcaaaacfddbca-------a+xfa-abb-----vvv...................+wa--...+wa---mlmkijhc----------cjjffiheb-aad
(PID.TID 0000.0001) //     25 -achfa------ch+..................w.......w.......njo+................+x-----bcgidiqqojfefiiiijmy.++.........zkhfdbaa----dbaa-------daa---acccaaaacccca--------ac.+udaabbb----tei...................++qde...++qdeqnghiljcaaaaidaa----beedeeca--bb
(PID.TID 0000.0001) //     24 aaeifa--acbcei...................w.......w.......likn+.....++.....++znpa----bbdi-fnlmnjhinlksssw............qhfeca------ca--------addc--aeffaaaaaaccb-a----a--bd.++udbbaba---ven....................++xy....++xywnfgllcbbabegkecba----ddddcaacdc
(PID.TID 0000.0001) //     23 abfida-aabchjk...................zz......zz.....nhhijz....tqq.....+ujgzgd---abci-cegklkkknols..xuu..........zgfdba------ba--------bcd---affaaadffabbb-----aa-bcc.+.+ufb-----l.gx...........s.........++z.....++zzkfilfccccoz..ulkcd---bccnfddddd
(PID.TID 0000.0001) //     22 -afhfaa---bfgi....................zz..rn..zz..rnjffggm...nlmn+....+sffzya--aabcieaaffdfhimrmp...yuu.++.......zudba------ba--------adc---dda-adffe-aa--------aaac....+ufc-baaqvhh..........dcfeeh......++......++zggqvifefhz......zobbaccfwuffeee
(PID.TID 0000.0001) //     21 babcgca----abe.....................ysstl...ysstlgeeeeoz..ijklt+....lfjzzf---adfcfdaadcehllotq....yy+++zzs.....+zcba-----cba-------cdd--aaa----df------------aaac.....+upjdcy.vohq.......+idcdfeeefwz....efwz....+hhn.vklox.........gdccfjwrigffh
(PID.TID 0000.0001) //     20 fbbbcgfcaa-aae+.......................lc......lcgfdddhq.+hiilnz++.+oquxyz--adgkfdcaabcfmtooyxz......+yuiiy....++gb------gb--------ddcca-a-----acbaa------bbaaaab........ywxy.lulo.lv...kcdgddffefffilyx+fffilyx+fffk.+xyyy.........mgeimvskjklll
(PID.TID 0000.0001) //     19 zmfeccdghfeegcbt......................aa......aafifccgnrzgghjry.+++sr+lq.--edfkkoxtkblwnnsp.vv......skhggt...+++t-------t---------bdaf---------edd-------adlaaaa+..........vnhzy.tllqiedccdhggfggffiiggfgffiiggfcbdgy..yz..........xigqophijkkii
(PID.TID 0000.0001) //     18 ..wifedfkhfegbbcivlqfoz..............jaa.....jaacfihggokeeffgt..++++..hhlfdeddkez..qcz+.zwxtsttz..ysrkhot++++++zig------ig--------b--f---------egqqqaa----frb---+........+kkrhw.vqmlnieddcdehgggffgigedbffgigedbaaceiy.............zilrddefikkhh
(PID.TID 0000.0001) //     17 ..+wfeefikhgcbbccaaacgn.............icaa....icaaccfihfoedddeedy..++...nnqwgfeekeyy.z++..+zsjjllllljllpjos+++.+zhhi-----ehi-----e-----ea--------foqqoqqo--hlwgea-.........+nk+..xiioonhfefddegihhghigfdbaghigfdbaaabdgx..............nheddefiklhg
(PID.TID 0000.0001) //     16 ....wiheddeccdfhfbabdfl............jdbad...jdbaddddgifkccccdccd+.++..++ynvz.tkkq.mu....++zyslllllkhggkmpy++...ihhi-----ehi-----ea---feb-----a-acnoohfghknvmwnuca..........qhu..hhhkojgffgeefghihhiieedbahiieedbaaabcdy..............ygddeghiljgf
(PID.TID 0000.0001) //     15 ......ylea--acfihebcbbes..........sfcbbn..sfcbbngfffigcaaabdbcac+.+++++zgmpx...y.mm....++..zslwz.yhhhhnz+++...rhgc----abgc----ab----ige----acaaalllkddfiy..yswxb..........thk.xgghiligfghfefhhhhiiheedcdiiheedcdbbabdmz.............zfdeghikkifd
(PID.TID 0000.0001) //     14 ........c---acgkhdcc--di..........ofddch..ofddchohffikaaaaabaaa-aw+.+ysnggox++...qrv..........yzzzzrjil+++....qhgd-----agd-----a-----i---cccdeabkklldinqssy..xxv...........+y.uhghikihgfghefgihhhgeeeeedhgeeeeeddbaadhw.............nedeghjjhfed
(PID.TID 0000.0001) //     13 .......+b----cfkhec---afz.........nhfdff..nhfdffholghkaaaaaba-a---flkkuswyy++++y+zr...........zzzzz++ry++......yd-------d--------------aeecdeidfkkqnqlmqquukqqmf..............iihiijjhfefgefhjihiffgggffiffgggffecaabelx...........zjecehijhfecc
(PID.TID 0000.0001) //     12 .......ec----chjhec---ag..........skiqdd..skiqddeiiiifaaabae--a---dd--iu+++.+++sxq++..........+z+++++.+++....++.s-------s------------a-ceccdejhlllkqlkklssiccdee.............wjkkkjjjigeefffgjiiighiiihhighiiihhhdaabdffghtxx......mfccehjiffdb-
(PID.TID 0000.0001) //     11 ......pdca--achlheba--ai..........nkn.fd..nkn.fdemijidaaaabi-------a--q+....++.ziis...........+++++..........+yyza----b-za----b-----a--ccccddkhieekkossssfbbbbcd............njjijhhihijhgggggjjjjijkkkkjjijkkkkjjhcaacddeegpy.....xfdccdhjgfdda-
(PID.TID 0000.0001) //     10 ......wfdb--achlhea---an.........uos..dc.uos..dcemikkfdcaabi-------equ+.........mk...........................zyvuq----ccuq----cc----a---dcfhkopqjeissrnpfbbcccde..........zslihhigghgijjihhhhkllkkkkkkjkkkkkkkjkkkedccdeeeeipz..zwhccbcdhgfddcam
(PID.TID 0000.0001) //      9 ......vgec---bfikca--cjl+.......+nnv.+cc+nnv.+ccffhkkiddaadha-----as++..........pvz++........................zxuuk------uk------a---a----djmqrrnlllsoiddcccccdjf.........+zjijhfgfggffhjkkkiillljihhghgijihhghgihighdeeffgghimnnjgecbbcdgfeccbas
(PID.TID 0000.0001) //      8 .....zleca---afjfca--hdfz.......vkky.jcevkky.jceddefijffdddhb--a-afv............nn..ss.........................+yku-----yku--------------ejnpqqnninnritqdccchkmf+.......wihgghgeffffeefhijkjkljiigeeffefigeeffefffhjhhikkklljklmhffeeeggfdcbaay.
(PID.TID 0000.0001) //      7 ...+zohec--abcfkhecbchbdx.......qiht.faaqiht.faaaabdgijgfededcdcb-f+............nn...pz.........................+zu-----+zu--------------edefqgqddsz+......+yuddmm+....tiggfggfeeeefeeefiiiijkiihhedddddhheddddddddjjllliijhfkmmkkjjhijgdcba--q.
(PID.TID 0000.0001) //      6 ..+yomfddcaabefkifdchaadt......uqdeisc--qdeisc----dfefgifffkklldc--v............up...pp.........................v.x-----v.x---------a----fbbpqgzenx+........zdbcmllkhhfffffffgfeeeeeeeefhhhhijihhffddcbbhffddcbbbbdhhiihedddb-cfhhhjjjieca----+.
(PID.TID 0000.0001) //      5 ..+nhgffkghccfhkhffgdaackz....uoibcimlaaibcimlaaacfbddfjjhijeehf-a-c............zs...su.........................qk.yi---qk.yi-------gha-fjddqs+xkrz.........q-bchikdccdeeeeeeedddedddddgghhhhjhhgffcbbaagffcbbaaaaddfegecca----dfeefhfgdb-----+.
(PID.TID 0000.0001) //      4 .+ujhgfllfhdffhkfffca-aady...llnabdopfcbabdopfcbdgdbcdehlihgfddc--ms............................................okn.zd--okn.zd---eciiiicfkeeqy.ysz..........n-aafgdcbbdeddedcdcccdddcddffggghiggfffdbaa-fffdbaa---acdcccba--abvfedeffdcca----b+.
(PID.TID 0000.0001) //      3 +vjggfcceeffffjlkjgaa---bfvheeln-aesphfd-aesphfdhgabddeflihhgfecbaaayq+++++.....................................kqnz.vtpkqnz.vtpkllgdccfkkkkk..++..........+g---fecaaadcdddcbbbbcdddcccdffffghgffffdcaa-fffdcaa----abcaaaa-acxxmecdjmdbba----r+.
(PID.TID 0000.0001) //      2 qifeecbbccddefilihecbaacbaajfega-aesqhff-aesqhffiea-cdeflkkljifeddcba---bry+...................................vkqn+.sghkqn+.sghfcbcbbbdgfdek.++++.........+l---caaaaaccdccbaaabbddddccdffffghfeeeeecba-eeeecba------baaaa-euwxqdbcdkud-----sy+.
(PID.TID 0000.0001) //      1 ebbbbaaaaaccdfhlhfefdcccaabjefbaaafonhglaafonhglid--adfgkkkklkhffddca-----s++++................................xsrxz.tedsrxz.tedcbbbbaaadddet.++++.........+l------a-accddba--bbbddddccdfffhhgfeeddccba-eddccba-------aaaabgns.qcbcchyzqngll++..
(PID.TID 0000.0001) //      0 -aaaaaaa-aacccfikkhecccbbbaaabaadfkllilmdfkllilmgebaadfijjiiikjhffdcba-----lllgn.............................++..u+..zmd.u+..zmdfbd---a-aeef.xx+..........+++s-------accdcb---bbbcdddddefffggfeeedcccbbaedcccbba----aa--alrwwy.kcbccc+...++++...
(PID.TID 0000.0001) //     -1 --aaaaa----aacffiljgfffcca--adfikkiikimikkiikimiiheccfurkiffhijjigfecb-----l----.............................+++++.z+.wq++.z+.wqgbf-------dgzpoy+........+ys+yrb--aa-abcccb---bbbbddddeffflhfeeeecbbcbbaecbbcbbaa----a--bdflm.yuibbcc.......+...
(PID.TID 0000.0001) //     -2 --aaa-------acdefinmlgiieb-chnnnmlmlfklkmlmlfklklkhednwwsheeghhijjgfdca----g---a.............................+++++wmu++y++wmu++ywn--------fwvmgy+........+r-.+++-abc--abbbb---abaaddddeedkmeddefdbbbdcbadbbbdcbaa-------ba-hv.susfbcc.......+...
(PID.TID 0000.0001) //     -3 a--a---aa---aedeegknmlgiigcdfhpokkimdkmkkkimdkmknoiedcfjvpddegghhhhgfdcbaa-n---a..............................+++yqd.++++yqd.+++zvq--dafz.lqnggw+........+b-....abcc---aaba------acdddcbcineddgdbaaaeedbbaaaeedbaa----------nysqssfcd...........
(PID.TID 0000.0001) // =======================================================
(PID.TID 0000.0001) // END OF FIELD                                          =
(PID.TID 0000.0001) // =======================================================
(PID.TID 0000.0001) 
(PID.TID 0000.0001) // =======================================================
(PID.TID 0000.0001) // Field Model Ro_surf (ini_masks_etc) at iteration          1
(PID.TID 0000.0001) // CMIN =         -7.105427357601002E-15
(PID.TID 0000.0001) // CMAX =         -7.105427357601002E-15
(PID.TID 0000.0001) // CINT =          0.000000000000000E+00
(PID.TID 0000.0001) // SYMBOLS (CMIN->CMAX): -abcdefghijklmnopqrstuvwxyz+
(PID.TID 0000.0001) //                  0.0: .
(PID.TID 0000.0001) // RANGE I (Lo:Hi:Step):(  -3: 196:   1)
(PID.TID 0000.0001) // RANGE J (Lo:Hi:Step):(  36:  -3:  -1)
(PID.TID 0000.0001) // RANGE K (Lo:Hi:Step):(   1:   1:   1)
(PID.TID 0000.0001) // =======================================================
(PID.TID 0000.0001) // =======================================================
(PID.TID 0000.0001) // END OF FIELD                                          =
(PID.TID 0000.0001) // =======================================================
(PID.TID 0000.0001) 
(PID.TID 0000.0001) // =======================================================
(PID.TID 0000.0001) // Field hFacC at iteration          1
(PID.TID 0000.0001) // CMIN =          1.000000000000000E+00
(PID.TID 0000.0001) // CMAX =          1.000000000000000E+00
(PID.TID 0000.0001) // CINT =          0.000000000000000E+00
(PID.TID 0000.0001) // SYMBOLS (CMIN->CMAX): -abcdefghijklmnopqrstuvwxyz+
(PID.TID 0000.0001) //                  0.0: .
(PID.TID 0000.0001) // RANGE I (Lo:Hi:Step):(  -3: 196:   1)
(PID.TID 0000.0001) // RANGE J (Lo:Hi:Step):(  36:  -3:  -1)
(PID.TID 0000.0001) // RANGE K (Lo:Hi:Step):(   1:   1:   1)
(PID.TID 0000.0001) // =======================================================
(PID.TID 0000.0001) // =======================================================
(PID.TID 0000.0001) // END OF FIELD                                          =
(PID.TID 0000.0001) // =======================================================
(PID.TID 0000.0001) 
(PID.TID 0000.0001) // =======================================================
(PID.TID 0000.0001) // Field hFacW at iteration          1
(PID.TID 0000.0001) // CMIN =          1.000000000000000E+00
(PID.TID 0000.0001) // CMAX =          1.000000000000000E+00
(PID.TID 0000.0001) // CINT =          0.000000000000000E+00
(PID.TID 0000.0001) // SYMBOLS (CMIN->CMAX): -abcdefghijklmnopqrstuvwxyz+
(PID.TID 0000.0001) //                  0.0: .
(PID.TID 0000.0001) // RANGE I (Lo:Hi:Step):(  -3: 196:   1)
(PID.TID 0000.0001) // RANGE J (Lo:Hi:Step):(  36:  -3:  -1)
(PID.TID 0000.0001) // RANGE K (Lo:Hi:Step):(   1:   1:   1)
(PID.TID 0000.0001) // =======================================================
(PID.TID 0000.0001) // =======================================================
(PID.TID 0000.0001) // END OF FIELD                                          =
(PID.TID 0000.0001) // =======================================================
(PID.TID 0000.0001) 
(PID.TID 0000.0001) // =======================================================
(PID.TID 0000.0001) // Field hFacS at iteration          1
(PID.TID 0000.0001) // CMIN =          1.000000000000000E+00
(PID.TID 0000.0001) // CMAX =          1.000000000000000E+00
(PID.TID 0000.0001) // CINT =          0.000000000000000E+00
(PID.TID 0000.0001) // SYMBOLS (CMIN->CMAX): -abcdefghijklmnopqrstuvwxyz+
(PID.TID 0000.0001) //                  0.0: .
(PID.TID 0000.0001) // RANGE I (Lo:Hi:Step):(  -3: 196:   1)
(PID.TID 0000.0001) // RANGE J (Lo:Hi:Step):(  36:  -3:  -1)
(PID.TID 0000.0001) // RANGE K (Lo:Hi:Step):(   1:   1:   1)
(PID.TID 0000.0001) // =======================================================
(PID.TID 0000.0001) // =======================================================
(PID.TID 0000.0001) // END OF FIELD                                          =
(PID.TID 0000.0001) // =======================================================
(PID.TID 0000.0001) 
(PID.TID 0000.0001) %MON ad_advcflfCori_max           =   1.4535016908525E-04
(PID.TID 0000.0001) %MON ad_advcflfCori_min           =  -1.4535016908525E-04
(PID.TID 0000.0001) %MON ad_advcflfCori_mean          =   0.0000000000000E+00
(PID.TID 0000.0001) %MON ad_advcflfCori_sd            =   8.3972192788621E-05
(PID.TID 0000.0001) %MON ad_advcflfCoriG_max          =   1.4544410433286E-04
(PID.TID 0000.0001) %MON ad_advcflfCoriG_min          =  -1.4544410433286E-04
(PID.TID 0000.0001) %MON ad_advcflfCoriG_mean         =   0.0000000000000E+00
(PID.TID 0000.0001) %MON ad_advcflfCoriG_sd           =   8.3972192788621E-05
(PID.TID 0000.0001) %MON ad_advcflfCoriCos_max        =   1.4540341538469E-04
(PID.TID 0000.0001) %MON ad_advcflfCoriCos_min        =   5.2264550201501E-06
(PID.TID 0000.0001) %MON ad_advcflfCoriCos_mean       =   1.1482595466044E-04
(PID.TID 0000.0001) %MON ad_advcflfCoriCos_sd         =   3.0292878037194E-05
(PID.TID 0000.0001) INI_CG2D: CG2D normalisation factor =  1.9156564154949553E-04
(PID.TID 0000.0001) INI_CG2D: cg2dTolerance = 5.809016360175293E-07 (Area=3.6388673751E+14)
(PID.TID 0000.0001) 
(PID.TID 0000.0001)  MDS_READ_META: opening file: pickup.0000072000.meta
(PID.TID 0000.0001)  nRecords = 123 ; filePrec =  64 ; fileIter =     72000
(PID.TID 0000.0001)     nDims =   2 , dims:
(PID.TID 0000.0001)    1: 192   1 192
(PID.TID 0000.0001)    2:  32   1  32
(PID.TID 0000.0001)     nFlds =  11 , nFl3D =   8 , fields:
(PID.TID 0000.0001)  >Uvel    < >GuNm1   < >Vvel    < >GvNm1   < >Theta   < >GtNm1   < >Salt    < >GsNm1   < >EtaN    < >dEtaHdt < >EtaH    <
(PID.TID 0000.0001)   nTimRec =   0 , timeList:
(PID.TID 0000.0001) READ_MFLDS_3D_RL: read field: "Uvel    ", #   1 in fldList, rec=   1
(PID.TID 0000.0001)  MDS_READ_FIELD: opening global file: pickup.0000072000
(PID.TID 0000.0001) READ_MFLDS_3D_RL: read field: "Vvel    ", #   3 in fldList, rec=   3
(PID.TID 0000.0001)  MDS_READ_FIELD: opening global file: pickup.0000072000
(PID.TID 0000.0001) READ_MFLDS_3D_RL: read field: "Theta   ", #   5 in fldList, rec=   5
(PID.TID 0000.0001)  MDS_READ_FIELD: opening global file: pickup.0000072000
(PID.TID 0000.0001) READ_MFLDS_3D_RL: read field: "Salt    ", #   7 in fldList, rec=   7
(PID.TID 0000.0001)  MDS_READ_FIELD: opening global file: pickup.0000072000
(PID.TID 0000.0001) READ_MFLDS_3D_RL: read field: "GuNm1   ", #   2 in fldList, rec=   2
(PID.TID 0000.0001)  MDS_READ_FIELD: opening global file: pickup.0000072000
(PID.TID 0000.0001) READ_MFLDS_3D_RL: read field: "GvNm1   ", #   4 in fldList, rec=   4
(PID.TID 0000.0001)  MDS_READ_FIELD: opening global file: pickup.0000072000
(PID.TID 0000.0001) READ_MFLDS_3D_RL: read field: "EtaN    ", #   9 in fldList, rec= 121
(PID.TID 0000.0001)  MDS_READ_FIELD: opening global file: pickup.0000072000
(PID.TID 0000.0001) READ_MFLDS_CHECK: - normal end ; reset MFLDS file-name: pickup.0000072000
(PID.TID 0000.0001)  MDS_READ_FIELD: opening global file: trenberth_taux.bin
(PID.TID 0000.0001)  MDS_READ_FIELD: opening global file: trenberth_tauy.bin
(PID.TID 0000.0001)  MDS_READ_FIELD: opening global file: shiQnet_cs32.bin
(PID.TID 0000.0001)  MDS_READ_FIELD: opening global file: shiEmPR_cs32.bin
(PID.TID 0000.0001)  MDS_READ_FIELD: opening global file: lev_surfT_cs_12m.bin
(PID.TID 0000.0001)  MDS_READ_FIELD: opening global file: lev_surfS_cs_12m.bin
(PID.TID 0000.0001)  MDS_READ_FIELD: opening file: xx_theta.0000000000.001.001.data
(PID.TID 0000.0001)  MDS_READ_FIELD: opening file: xx_theta.0000000000.002.001.data
(PID.TID 0000.0001)  MDS_READ_FIELD: opening file: xx_theta.0000000000.003.001.data
(PID.TID 0000.0001)  MDS_READ_FIELD: opening file: xx_theta.0000000000.004.001.data
(PID.TID 0000.0001)  MDS_READ_FIELD: opening file: xx_theta.0000000000.005.001.data
(PID.TID 0000.0001)  MDS_READ_FIELD: opening file: xx_theta.0000000000.006.001.data
(PID.TID 0000.0001)  MDS_READ_FIELD: opening file: xx_salt.0000000000.001.001.data
(PID.TID 0000.0001)  MDS_READ_FIELD: opening file: xx_salt.0000000000.002.001.data
(PID.TID 0000.0001)  MDS_READ_FIELD: opening file: xx_salt.0000000000.003.001.data
(PID.TID 0000.0001)  MDS_READ_FIELD: opening file: xx_salt.0000000000.004.001.data
(PID.TID 0000.0001)  MDS_READ_FIELD: opening file: xx_salt.0000000000.005.001.data
(PID.TID 0000.0001)  MDS_READ_FIELD: opening file: xx_salt.0000000000.006.001.data
(PID.TID 0000.0001)  MDS_READ_FIELD: opening file: xx_diffkr.0000000000.001.001.data
(PID.TID 0000.0001)  MDS_READ_FIELD: opening file: xx_diffkr.0000000000.002.001.data
(PID.TID 0000.0001)  MDS_READ_FIELD: opening file: xx_diffkr.0000000000.003.001.data
(PID.TID 0000.0001)  MDS_READ_FIELD: opening file: xx_diffkr.0000000000.004.001.data
(PID.TID 0000.0001)  MDS_READ_FIELD: opening file: xx_diffkr.0000000000.005.001.data
(PID.TID 0000.0001)  MDS_READ_FIELD: opening file: xx_diffkr.0000000000.006.001.data
(PID.TID 0000.0001) // =======================================================
(PID.TID 0000.0001) // Model current state
(PID.TID 0000.0001) // =======================================================
(PID.TID 0000.0001) 
S/R EXTERNAL_FIELDS_LOAD: Reading new data:   12    1     72000  6.220800000000E+09
(PID.TID 0000.0001)  MDS_READ_FIELD: opening global file: trenberth_taux.bin
(PID.TID 0000.0001)  MDS_READ_FIELD: opening global file: trenberth_taux.bin
(PID.TID 0000.0001)  MDS_READ_FIELD: opening global file: trenberth_tauy.bin
(PID.TID 0000.0001)  MDS_READ_FIELD: opening global file: trenberth_tauy.bin
(PID.TID 0000.0001)  MDS_READ_FIELD: opening global file: shiQnet_cs32.bin
(PID.TID 0000.0001)  MDS_READ_FIELD: opening global file: shiQnet_cs32.bin
(PID.TID 0000.0001)  MDS_READ_FIELD: opening global file: shiEmPR_cs32.bin
(PID.TID 0000.0001)  MDS_READ_FIELD: opening global file: shiEmPR_cs32.bin
(PID.TID 0000.0001)  MDS_READ_FIELD: opening global file: lev_surfT_cs_12m.bin
(PID.TID 0000.0001)  MDS_READ_FIELD: opening global file: lev_surfT_cs_12m.bin
(PID.TID 0000.0001)  MDS_READ_FIELD: opening global file: lev_surfS_cs_12m.bin
(PID.TID 0000.0001)  MDS_READ_FIELD: opening global file: lev_surfS_cs_12m.bin
(PID.TID 0000.0001)  MDS_READ_FIELD: opening file: xx_tauu.0000000000.001.001.data
(PID.TID 0000.0001)  MDS_READ_FIELD: opening file: xx_tauu.0000000000.002.001.data
(PID.TID 0000.0001)  MDS_READ_FIELD: opening file: xx_tauu.0000000000.003.001.data
(PID.TID 0000.0001)  MDS_READ_FIELD: opening file: xx_tauu.0000000000.004.001.data
(PID.TID 0000.0001)  MDS_READ_FIELD: opening file: xx_tauu.0000000000.005.001.data
(PID.TID 0000.0001)  MDS_READ_FIELD: opening file: xx_tauu.0000000000.006.001.data
(PID.TID 0000.0001)  MDS_READ_FIELD: opening file: xx_tauv.0000000000.001.001.data
(PID.TID 0000.0001)  MDS_READ_FIELD: opening file: xx_tauv.0000000000.002.001.data
(PID.TID 0000.0001)  MDS_READ_FIELD: opening file: xx_tauv.0000000000.003.001.data
(PID.TID 0000.0001)  MDS_READ_FIELD: opening file: xx_tauv.0000000000.004.001.data
(PID.TID 0000.0001)  MDS_READ_FIELD: opening file: xx_tauv.0000000000.005.001.data
(PID.TID 0000.0001)  MDS_READ_FIELD: opening file: xx_tauv.0000000000.006.001.data
(PID.TID 0000.0001)  MDS_READ_FIELD: opening file: xx_sfl.0000000000.001.001.data
(PID.TID 0000.0001)  MDS_READ_FIELD: opening file: xx_sfl.0000000000.002.001.data
(PID.TID 0000.0001)  MDS_READ_FIELD: opening file: xx_sfl.0000000000.003.001.data
(PID.TID 0000.0001)  MDS_READ_FIELD: opening file: xx_sfl.0000000000.004.001.data
(PID.TID 0000.0001)  MDS_READ_FIELD: opening file: xx_sfl.0000000000.005.001.data
(PID.TID 0000.0001)  MDS_READ_FIELD: opening file: xx_sfl.0000000000.006.001.data
(PID.TID 0000.0001)  MDS_READ_FIELD: opening file: xx_hfl.0000000000.001.001.data
(PID.TID 0000.0001)  MDS_READ_FIELD: opening file: xx_hfl.0000000000.002.001.data
(PID.TID 0000.0001)  MDS_READ_FIELD: opening file: xx_hfl.0000000000.003.001.data
(PID.TID 0000.0001)  MDS_READ_FIELD: opening file: xx_hfl.0000000000.004.001.data
(PID.TID 0000.0001)  MDS_READ_FIELD: opening file: xx_hfl.0000000000.005.001.data
(PID.TID 0000.0001)  MDS_READ_FIELD: opening file: xx_hfl.0000000000.006.001.data
 cg2d: Sum(rhs),rhsMax =  -9.60653778747655E-12  4.28505602916984E+00
 cg2d: Sum(rhs),rhsMax =  -4.20958252789205E-06  4.27911284989185E+00
 cg2d: Sum(rhs),rhsMax =  -8.11891030139122E-06  4.27329379410083E+00
 cg2d: Sum(rhs),rhsMax =  -1.18771350514635E-05  4.26739301249339E+00
 cg2d: Sum(rhs),rhsMax =  -1.52646440767512E-05  4.26144702576303E+00
 cg2d: Sum(rhs),rhsMax =  -1.79965289532902E-05  4.25555457939507E+00
 cg2d: Sum(rhs),rhsMax =  -2.08010535800440E-05  4.24977590315739E+00
 cg2d: Sum(rhs),rhsMax =  -2.30290912668352E-05  4.24417316832766E+00
 cg2d: Sum(rhs),rhsMax =  -2.54243527706421E-05  4.23881440403611E+00
 cg2d: Sum(rhs),rhsMax =  -2.69897840325939E-05  4.23376858173466E+00
 cg2d: Sum(rhs),rhsMax =  -2.89040565348841E-05  4.22909356514378E+00
 cg2d: Sum(rhs),rhsMax =  -3.15951502614098E-05  4.22483241907964E+00
 cg2d: Sum(rhs),rhsMax =  -3.51715561350829E-05  4.22101139544714E+00
 cg2d: Sum(rhs),rhsMax =  -3.94069369065164E-05  4.21764141451628E+00
 cg2d: Sum(rhs),rhsMax =  -4.22046272205989E-05  4.21471931783821E+00
S/R EXTERNAL_FIELDS_LOAD: Reading new data:    1    2     72015  6.222096000000E+09
(PID.TID 0000.0001)  MDS_READ_FIELD: opening global file: trenberth_taux.bin
(PID.TID 0000.0001)  MDS_READ_FIELD: opening global file: trenberth_taux.bin
(PID.TID 0000.0001)  MDS_READ_FIELD: opening global file: trenberth_tauy.bin
(PID.TID 0000.0001)  MDS_READ_FIELD: opening global file: trenberth_tauy.bin
(PID.TID 0000.0001)  MDS_READ_FIELD: opening global file: shiQnet_cs32.bin
(PID.TID 0000.0001)  MDS_READ_FIELD: opening global file: shiQnet_cs32.bin
(PID.TID 0000.0001)  MDS_READ_FIELD: opening global file: shiEmPR_cs32.bin
(PID.TID 0000.0001)  MDS_READ_FIELD: opening global file: shiEmPR_cs32.bin
(PID.TID 0000.0001)  MDS_READ_FIELD: opening global file: lev_surfT_cs_12m.bin
(PID.TID 0000.0001)  MDS_READ_FIELD: opening global file: lev_surfT_cs_12m.bin
(PID.TID 0000.0001)  MDS_READ_FIELD: opening global file: lev_surfS_cs_12m.bin
(PID.TID 0000.0001)  MDS_READ_FIELD: opening global file: lev_surfS_cs_12m.bin
 cg2d: Sum(rhs),rhsMax =  -4.27351609175730E-05  4.21222998052636E+00
 cg2d: Sum(rhs),rhsMax =  -4.17871409581494E-05  4.21005386347746E+00
 cg2d: Sum(rhs),rhsMax =  -4.00864360869946E-05  4.20835829759594E+00
 cg2d: Sum(rhs),rhsMax =  -3.79517794044659E-05  4.20701954081243E+00
 cg2d: Sum(rhs),rhsMax =  -3.56188118075806E-05  4.20598324525498E+00
(PID.TID 0000.0001) %CHECKPOINT     72020 ckptA
(PID.TID 0000.0001)  MDS_READ_FIELD: opening global file: lev_T_cs_15k.bin
 --> objf_test(bi,bj)   =  0.213611006982125E+05
 --> objf_tracer(bi,bj) =  0.000000000000000E+00
 --> objf_atl(bi,bj)    =  0.000000000000000E+00
 --> objf_test(bi,bj)   =  0.114876404772062E+05
 --> objf_tracer(bi,bj) =  0.000000000000000E+00
 --> objf_atl(bi,bj)    =  0.000000000000000E+00
 --> objf_test(bi,bj)   =  0.181712047568930E+05
 --> objf_tracer(bi,bj) =  0.000000000000000E+00
 --> objf_atl(bi,bj)    =  0.000000000000000E+00
 --> objf_test(bi,bj)   =  0.231640448952878E+05
 --> objf_tracer(bi,bj) =  0.000000000000000E+00
 --> objf_atl(bi,bj)    =  0.000000000000000E+00
 --> objf_test(bi,bj)   =  0.145315946547466E+05
 --> objf_tracer(bi,bj) =  0.000000000000000E+00
 --> objf_atl(bi,bj)    =  0.000000000000000E+00
 --> objf_test(bi,bj)   =  0.124822524459314E+05
 --> objf_tracer(bi,bj) =  0.000000000000000E+00
 --> objf_atl(bi,bj)    =  0.000000000000000E+00
  local fc =  0.101197837928277E+06
 global fc =  0.101197837928277E+06
(PID.TID 0000.0001)  MDS_READ_FIELD: opening file: xx_theta.0000000000.001.001.data
(PID.TID 0000.0001)  MDS_READ_FIELD: opening file: xx_theta.0000000000.002.001.data
(PID.TID 0000.0001)  MDS_READ_FIELD: opening file: xx_theta.0000000000.003.001.data
(PID.TID 0000.0001)  MDS_READ_FIELD: opening file: xx_theta.0000000000.004.001.data
(PID.TID 0000.0001)  MDS_READ_FIELD: opening file: xx_theta.0000000000.005.001.data
(PID.TID 0000.0001)  MDS_READ_FIELD: opening file: xx_theta.0000000000.006.001.data
grad-res -------------------------------
 grad-res     0    1    1    1    1    1    1    1   0.101197870851E+06 0.101197903797E+06 0.101197837928E+06
 grad-res     0    1    1    1  639    1    1    1   0.329349177775E+01 0.329345538194E+01 0.110508274530E-04
(PID.TID 0000.0001)   ADM  precision_derivative_cost =    1.01197870850837E+05
(PID.TID 0000.0001)   ADM  precision_derivative_grad =    3.29349177774528E+00
 ph-grd  ierr ---------------------------
 ph-grd  ierr =  0, icomp =  1, ichknum =  1
 ph-grd -->hit<--  2 1 1 1
(PID.TID 0000.0001)  MDS_READ_FIELD: opening file: adxx_theta.0000000000.001.001.data
(PID.TID 0000.0001)  MDS_READ_FIELD: opening file: adxx_theta.0000000000.002.001.data
(PID.TID 0000.0001)  MDS_READ_FIELD: opening file: adxx_theta.0000000000.003.001.data
(PID.TID 0000.0001)  MDS_READ_FIELD: opening file: adxx_theta.0000000000.004.001.data
(PID.TID 0000.0001)  MDS_READ_FIELD: opening file: adxx_theta.0000000000.005.001.data
(PID.TID 0000.0001)  MDS_READ_FIELD: opening file: adxx_theta.0000000000.006.001.data
(PID.TID 0000.0001)  MDS_READ_FIELD: opening file: xx_theta.0000000000.001.001.data
(PID.TID 0000.0001)  MDS_READ_FIELD: opening file: xx_theta.0000000000.002.001.data
(PID.TID 0000.0001)  MDS_READ_FIELD: opening file: xx_theta.0000000000.003.001.data
(PID.TID 0000.0001)  MDS_READ_FIELD: opening file: xx_theta.0000000000.004.001.data
(PID.TID 0000.0001)  MDS_READ_FIELD: opening file: xx_theta.0000000000.005.001.data
(PID.TID 0000.0001)  MDS_READ_FIELD: opening file: xx_theta.0000000000.006.001.data
(PID.TID 0000.0001)  MDS_READ_FIELD: opening global file: bathy_Hmin50.bin
(PID.TID 0000.0001) // =======================================================
(PID.TID 0000.0001) // Field Model R_low (ini_masks_etc) at iteration          1
(PID.TID 0000.0001) // CMIN =         -5.200000000000000E+03
(PID.TID 0000.0001) // CMAX =         -5.000000000000000E+01
(PID.TID 0000.0001) // CINT =          1.907407407407407E+02
(PID.TID 0000.0001) // SYMBOLS (CMIN->CMAX): -abcdefghijklmnopqrstuvwxyz+
(PID.TID 0000.0001) //                  0.0: .
(PID.TID 0000.0001) // RANGE I (Lo:Hi:Step):(  -3: 196:   1)
(PID.TID 0000.0001) // RANGE J (Lo:Hi:Step):(  36:  -3:  -1)
(PID.TID 0000.0001) // RANGE K (Lo:Hi:Step):(   1:   1:   1)
(PID.TID 0000.0001) // =======================================================
(PID.TID 0000.0001) K =   1
(PID.TID 0000.0001) //                I=6       I=16      I=26      I=36      I=38      I=48      I=58      I=68      I=70      I=80      I=90      I=100     I=102     I=112     I=122     I=132     I=134     I=144     I=154     I=164     I=166     I=176     I=186     I=196
(PID.TID 0000.0001) // |--J--|321012345|789012345|789012345|789012345|901234567|901234567|901234567|901234567|123456789|123456789|123456789|123456789|345678901|345678901|345678901|345678901|567890123|567890123|567890123|567890123|789012345|789012345|789012345|789012345|
(PID.TID 0000.0001) //     36 cbbc-ddcbcdehkhhmn..++..................................................okn.skko--a-fc----bba-cp.............tfeecccbbdeecccbbdeddedcdcccdddcddffggghiggfffdeeffijlihjlica---a--cgffel.+edfgeedflcbahgfllcbahgfllfhdffhkfffca-aady...llnabdoa--a
(PID.TID 0000.0001) //     35 dcac--cbbeefjkfefw+..........zpu........................................kqnzrqqk--b-da----bbbbfu..............fdddccaadcddccaadcdddcbbbbcdddcccdffffghgffffddefflligfiljfba---aafddehy...pwvlhfffcbagfccfcbagfcceeffffjlkjgaa---bfvheeln-aesaaab
(PID.TID 0000.0001) //     34 d--ba-abcehjnldcclz+........spps.......................................vkqn+xnnncabbcbba--aabfu+..............hcbaaaaaccbaaaaaccdccbaaabbddddccdffffghfeeeeedeffjiffefilhfcaaaacgceei.......zomggfcaecbbgfcaecbbccddefilihecbaacbaajfega-aesfeed
(PID.TID 0000.0001) //     33 --abbbccceiomkfdbbc+.......+s..........................................xsrxzz+z.fdcddb-----adu+...............hcbaa--accbaa--accddba--bbbddddccdfffhhgfeeddcceddhfeddfgikhfffdfgccffw........zohhgebbaaahgebbaaaaaccdfhlhfefdcccaabjefbaaafoosso
(PID.TID 0000.0001) //     32 --bddefhhkqqlgfaakqz..v.+..+.........................................++..u+....zigfdba----adu+................kdcaaa-acccaaa-accdcb---bbbcdddddefffggfeeedcccccbccbbdcdfgghhiihcbeiw.........+ynjgebaaaajgebaaaa-aacccfikkhecccbbbaaabaadfklnqpp
(PID.TID 0000.0001) //     31 abbcffijnpnqneaaat..umrr+s.z.........................................+++++.ztsvdlifeb--dfdfu+................+lkdca--abcdca--abcccb---bbbbddddeffflhfeeeecbbbbaaba-abbacbcdceffbbfw+..........++ujfbaaa-ujfbaaa----aacffiljgfffcca--adfikkiihhhf
(PID.TID 0000.0001) //     30 --adgillkkkifcadcx.ymmqzqikvnnps.....................................+++++wmegt-jlifcacdlqx+++...............mligea---abgea---abbbb---abaaddddeedkmeddefdbbbaaaabc---b--aaaaabaabm..............+viba---+viba-------acdefinmlgiieb-chnnnmlmlgffc
(PID.TID 0000.0001) //     29 --cfiljigfjd--efdozy...+ximpnnuz......................................+++yqddhp-iljhcbbchz+......++.........+mmhffc----affc----aaba------acdddcbcineddgdbaaa----cdd--a------aa-bfz...............+qe---a.+qe---aa---aedeegknmlgiigcdfhpokkimlfdb
(PID.TID 0000.0001) //     28 -abgkhfcccea-bdei........t............................................++zwgfcfk-gknhccbbhwwy.....+++........+njfeed-----eed-----aa-------abddcabcnfddegcaaa-----hlf------------dk+................+ja---..+ja------bffdddehfd--bedaacfhpnligiihd
(PID.TID 0000.0001) //     27 -acghfbaaaa-achmy......................+.......+++....................++vnbbbclefkpkeeecflmqxy....++........+lhfeecc----eecc------------aaadcbabcfhddccba-------zqd-----------irw.................++e---..++e-----mhmijddda--------ahhfiokhedegg
(PID.TID 0000.0001) //     26 -adhfca-----bfiv.......................+.......++sy...................+tq-fdbblcjknqiheddefhiksz++++........zkhfdccb----dccb------------aabdcaaaacfddbca-------a+xfa-abb-----vvv...................+wa--...+wa---mlmkijhc----------cjjffiheb-aad
(PID.TID 0000.0001) //     25 -achfa------ch+..................w.......w.......njo+................+x-----bcgidiqqojfefiiiijmy.++.........zkhfdbaa----dbaa-------daa---acccaaaacccca--------ac.+udaabbb----tei...................++qde...++qdeqnghiljcaaaaidaa----beedeeca--bb
(PID.TID 0000.0001) //     24 aaeifa--acbcei...................w.......w.......likn+.....++.....++znpa----bbdi-fnlmnjhinlksssw............qhfeca------ca--------addc--aeffaaaaaaccb-a----a--bd.++udbbaba---ven....................++xy....++xywnfgllcbbabegkecba----ddddcaacdc
(PID.TID 0000.0001) //     23 abfida-aabchjk...................zz......zz.....nhhijz....tqq.....+ujgzgd---abci-cegklkkknols..xuu..........zgfdba------ba--------bcd---affaaadffabbb-----aa-bcc.+.+ufb-----l.gx...........s.........++z.....++zzkfilfccccoz..ulkcd---bccnfddddd
(PID.TID 0000.0001) //     22 -afhfaa---bfgi....................zz..rn..zz..rnjffggm...nlmn+....+sffzya--aabcieaaffdfhimrmp...yuu.++.......zudba------ba--------adc---dda-adffe-aa--------aaac....+ufc-baaqvhh..........dcfeeh......++......++zggqvifefhz......zobbaccfwuffeee
(PID.TID 0000.0001) //     21 babcgca----abe.....................ysstl...ysstlgeeeeoz..ijklt+....lfjzzf---adfcfdaadcehllotq....yy+++zzs.....+zcba-----cba-------cdd--aaa----df------------aaac.....+upjdcy.vohq.......+idcdfeeefwz....efwz....+hhn.vklox.........gdccfjwrigffh
(PID.TID 0000.0001) //     20 fbbbcgfcaa-aae+.......................lc......lcgfdddhq.+hiilnz++.+oquxyz--adgkfdcaabcfmtooyxz......+yuiiy....++gb------gb--------ddcca-a-----acbaa------bbaaaab........ywxy.lulo.lv...kcdgddffefffilyx+fffilyx+fffk.+xyyy.........mgeimvskjklll
(PID.TID 0000.0001) //     19 zmfeccdghfeegcbt......................aa......aafifccgnrzgghjry.+++sr+lq.--edfkkoxtkblwnnsp.vv......skhggt...+++t-------t---------bdaf---------edd-------adlaaaa+..........vnhzy.tllqiedccdhggfggffiiggfgffiiggfcbdgy..yz..........xigqophijkkii
(PID.TID 0000.0001) //     18 ..wifedfkhfegbbcivlqfoz..............jaa.....jaacfihggokeeffgt..++++..hhlfdeddkez..qcz+.zwxtsttz..ysrkhot++++++zig------ig--------b--f---------egqqqaa----frb---+........+kkrhw.vqmlnieddcdehgggffgigedbffgigedbaaceiy.............zilrddefikkhh
(PID.TID 0000.0001) //     17 ..+wfeefikhgcbbccaaacgn.............icaa....icaaccfihfoedddeedy..++...nnqwgfeekeyy.z++..+zsjjllllljllpjos+++.+zhhi-----ehi-----e-----ea--------foqqoqqo--hlwgea-.........+nk+..xiioonhfefddegihhghigfdbaghigfdbaaabdgx..............nheddefiklhg
(PID.TID 0000.0001) //     16 ....wiheddeccdfhfbabdfl............jdbad...jdbaddddgifkccccdccd+.++..++ynvz.tkkq.mu....++zyslllllkhggkmpy++...ihhi-----ehi-----ea---feb-----a-acnoohfghknvmwnuca..........qhu..hhhkojgffgeefghihhiieedbahiieedbaaabcdy..............ygddeghiljgf
(PID.TID 0000.0001) //     15 ......ylea--acfihebcbbes..........sfcbbn..sfcbbngfffigcaaabdbcac+.+++++zgmpx...y.mm....++..zslwz.yhhhhnz+++...rhgc----abgc----ab----ige----acaaalllkddfiy..yswxb..........thk.xgghiligfghfefhhhhiiheedcdiiheedcdbbabdmz.............zfdeghikkifd
(PID.TID 0000.0001) //     14 ........c---acgkhdcc--di..........ofddch..ofddchohffikaaaaabaaa-aw+.+ysnggox++...qrv..........yzzzzrjil+++....qhgd-----agd-----a-----i---cccdeabkklldinqssy..xxv...........+y.uhghikihgfghefgihhhgeeeeedhgeeeeeddbaadhw.............nedeghjjhfed
(PID.TID 0000.0001) //     13 .......+b----cfkhec---afz.........nhfdff..nhfdffholghkaaaaaba-a---flkkuswyy++++y+zr...........zzzzz++ry++......yd-------d--------------aeecdeidfkkqnqlmqquukqqmf..............iihiijjhfefgefhjihiffgggffiffgggffecaabelx...........zjecehijhfecc
(PID.TID 0000.0001) //     12 .......ec----chjhec---ag..........skiqdd..skiqddeiiiifaaabae--a---dd--iu+++.+++sxq++..........+z+++++.+++....++.s-------s------------a-ceccdejhlllkqlkklssiccdee.............wjkkkjjjigeefffgjiiighiiihhighiiihhhdaabdffghtxx......mfccehjiffdb-
(PID.TID 0000.0001) //     11 ......pdca--achlheba--ai..........nkn.fd..nkn.fdemijidaaaabi-------a--q+....++.ziis...........+++++..........+yyza----b-za----b-----a--ccccddkhieekkossssfbbbbcd............njjijhhihijhgggggjjjjijkkkkjjijkkkkjjhcaacddeegpy.....xfdccdhjgfdda-
(PID.TID 0000.0001) //     10 ......wfdb--achlhea---an.........uos..dc.uos..dcemikkfdcaabi-------equ+.........mk...........................zyvuq----ccuq----cc----a---dcfhkopqjeissrnpfbbcccde..........zslihhigghgijjihhhhkllkkkkkkjkkkkkkkjkkkedccdeeeeipz..zwhccbcdhgfddcam
(PID.TID 0000.0001) //      9 ......vgec---bfikca--cjl+.......+nnv.+cc+nnv.+ccffhkkiddaadha-----as++..........pvz++........................zxuuk------uk------a---a----djmqrrnlllsoiddcccccdjf.........+zjijhfgfggffhjkkkiillljihhghgijihhghgihighdeeffgghimnnjgecbbcdgfeccbas
(PID.TID 0000.0001) //      8 .....zleca---afjfca--hdfz.......vkky.jcevkky.jceddefijffdddhb--a-afv............nn..ss.........................+yku-----yku--------------ejnpqqnninnritqdccchkmf+.......wihgghgeffffeefhijkjkljiigeeffefigeeffefffhjhhikkklljklmhffeeeggfdcbaay.
(PID.TID 0000.0001) //      7 ...+zohec--abcfkhecbchbdx.......qiht.faaqiht.faaaabdgijgfededcdcb-f+............nn...pz.........................+zu-----+zu--------------edefqgqddsz+......+yuddmm+....tiggfggfeeeefeeefiiiijkiihhedddddhheddddddddjjllliijhfkmmkkjjhijgdcba--q.
(PID.TID 0000.0001) //      6 ..+yomfddcaabefkifdchaadt......uqdeisc--qdeisc----dfefgifffkklldc--v............up...pp.........................v.x-----v.x---------a----fbbpqgzenx+........zdbcmllkhhfffffffgfeeeeeeeefhhhhijihhffddcbbhffddcbbbbdhhiihedddb-cfhhhjjjieca----+.
(PID.TID 0000.0001) //      5 ..+nhgffkghccfhkhffgdaackz....uoibcimlaaibcimlaaacfbddfjjhijeehf-a-c............zs...su.........................qk.yi---qk.yi-------gha-fjddqs+xkrz.........q-bchikdccdeeeeeeedddedddddgghhhhjhhgffcbbaagffcbbaaaaddfegecca----dfeefhfgdb-----+.
(PID.TID 0000.0001) //      4 .+ujhgfllfhdffhkfffca-aady...llnabdopfcbabdopfcbdgdbcdehlihgfddc--ms............................................okn.zd--okn.zd---eciiiicfkeeqy.ysz..........n-aafgdcbbdeddedcdcccdddcddffggghiggfffdbaa-fffdbaa---acdcccba--abvfedeffdcca----b+.
(PID.TID 0000.0001) //      3 +vjggfcceeffffjlkjgaa---bfvheeln-aesphfd-aesphfdhgabddeflihhgfecbaaayq+++++.....................................kqnz.vtpkqnz.vtpkllgdccfkkkkk..++..........+g---fecaaadcdddcbbbbcdddcccdffffghgffffdcaa-fffdcaa----abcaaaa-acxxmecdjmdbba----r+.
(PID.TID 0000.0001) //      2 qifeecbbccddefilihecbaacbaajfega-aesqhff-aesqhffiea-cdeflkkljifeddcba---bry+...................................vkqn+.sghkqn+.sghfcbcbbbdgfdek.++++.........+l---caaaaaccdccbaaabbddddccdffffghfeeeeecba-eeeecba------baaaa-euwxqdbcdkud-----sy+.
(PID.TID 0000.0001) //      1 ebbbbaaaaaccdfhlhfefdcccaabjefbaaafonhglaafonhglid--adfgkkkklkhffddca-----s++++................................xsrxz.tedsrxz.tedcbbbbaaadddet.++++.........+l------a-accddba--bbbddddccdfffhhgfeeddccba-eddccba-------aaaabgns.qcbcchyzqngll++..
(PID.TID 0000.0001) //      0 -aaaaaaa-aacccfikkhecccbbbaaabaadfkllilmdfkllilmgebaadfijjiiikjhffdcba-----lllgn.............................++..u+..zmd.u+..zmdfbd---a-aeef.xx+..........+++s-------accdcb---bbbcdddddefffggfeeedcccbbaedcccbba----aa--alrwwy.kcbccc+...++++...
(PID.TID 0000.0001) //     -1 --aaaaa----aacffiljgfffcca--adfikkiikimikkiikimiiheccfurkiffhijjigfecb-----l----.............................+++++.z+.wq++.z+.wqgbf-------dgzpoy+........+ys+yrb--aa-abcccb---bbbbddddeffflhfeeeecbbcbbaecbbcbbaa----a--bdflm.yuibbcc.......+...
(PID.TID 0000.0001) //     -2 --aaa-------acdefinmlgiieb-chnnnmlmlfklkmlmlfklklkhednwwsheeghhijjgfdca----g---a.............................+++++wmu++y++wmu++ywn--------fwvmgy+........+r-.+++-abc--abbbb---abaaddddeedkmeddefdbbbdcbadbbbdcbaa-------ba-hv.susfbcc.......+...
(PID.TID 0000.0001) //     -3 a--a---aa---aedeegknmlgiigcdfhpokkimdkmkkkimdkmknoiedcfjvpddegghhhhgfdcbaa-n---a..............................+++yqd.++++yqd.+++zvq--dafz.lqnggw+........+b-....abcc---aaba------acdddcbcineddgdbaaaeedbbaaaeedbaa----------nysqssfcd...........
(PID.TID 0000.0001) // =======================================================
(PID.TID 0000.0001) // END OF FIELD                                          =
(PID.TID 0000.0001) // =======================================================
(PID.TID 0000.0001) 
(PID.TID 0000.0001) // =======================================================
(PID.TID 0000.0001) // Field Model Ro_surf (ini_masks_etc) at iteration          1
(PID.TID 0000.0001) // CMIN =         -7.105427357601002E-15
(PID.TID 0000.0001) // CMAX =         -7.105427357601002E-15
(PID.TID 0000.0001) // CINT =          0.000000000000000E+00
(PID.TID 0000.0001) // SYMBOLS (CMIN->CMAX): -abcdefghijklmnopqrstuvwxyz+
(PID.TID 0000.0001) //                  0.0: .
(PID.TID 0000.0001) // RANGE I (Lo:Hi:Step):(  -3: 196:   1)
(PID.TID 0000.0001) // RANGE J (Lo:Hi:Step):(  36:  -3:  -1)
(PID.TID 0000.0001) // RANGE K (Lo:Hi:Step):(   1:   1:   1)
(PID.TID 0000.0001) // =======================================================
(PID.TID 0000.0001) // =======================================================
(PID.TID 0000.0001) // END OF FIELD                                          =
(PID.TID 0000.0001) // =======================================================
(PID.TID 0000.0001) 
(PID.TID 0000.0001) // =======================================================
(PID.TID 0000.0001) // Field hFacC at iteration          1
(PID.TID 0000.0001) // CMIN =          1.000000000000000E+00
(PID.TID 0000.0001) // CMAX =          1.000000000000000E+00
(PID.TID 0000.0001) // CINT =          0.000000000000000E+00
(PID.TID 0000.0001) // SYMBOLS (CMIN->CMAX): -abcdefghijklmnopqrstuvwxyz+
(PID.TID 0000.0001) //                  0.0: .
(PID.TID 0000.0001) // RANGE I (Lo:Hi:Step):(  -3: 196:   1)
(PID.TID 0000.0001) // RANGE J (Lo:Hi:Step):(  36:  -3:  -1)
(PID.TID 0000.0001) // RANGE K (Lo:Hi:Step):(   1:   1:   1)
(PID.TID 0000.0001) // =======================================================
(PID.TID 0000.0001) // =======================================================
(PID.TID 0000.0001) // END OF FIELD                                          =
(PID.TID 0000.0001) // =======================================================
(PID.TID 0000.0001) 
(PID.TID 0000.0001) // =======================================================
(PID.TID 0000.0001) // Field hFacW at iteration          1
(PID.TID 0000.0001) // CMIN =          1.000000000000000E+00
(PID.TID 0000.0001) // CMAX =          1.000000000000000E+00
(PID.TID 0000.0001) // CINT =          0.000000000000000E+00
(PID.TID 0000.0001) // SYMBOLS (CMIN->CMAX): -abcdefghijklmnopqrstuvwxyz+
(PID.TID 0000.0001) //                  0.0: .
(PID.TID 0000.0001) // RANGE I (Lo:Hi:Step):(  -3: 196:   1)
(PID.TID 0000.0001) // RANGE J (Lo:Hi:Step):(  36:  -3:  -1)
(PID.TID 0000.0001) // RANGE K (Lo:Hi:Step):(   1:   1:   1)
(PID.TID 0000.0001) // =======================================================
(PID.TID 0000.0001) // =======================================================
(PID.TID 0000.0001) // END OF FIELD                                          =
(PID.TID 0000.0001) // =======================================================
(PID.TID 0000.0001) 
(PID.TID 0000.0001) // =======================================================
(PID.TID 0000.0001) // Field hFacS at iteration          1
(PID.TID 0000.0001) // CMIN =          1.000000000000000E+00
(PID.TID 0000.0001) // CMAX =          1.000000000000000E+00
(PID.TID 0000.0001) // CINT =          0.000000000000000E+00
(PID.TID 0000.0001) // SYMBOLS (CMIN->CMAX): -abcdefghijklmnopqrstuvwxyz+
(PID.TID 0000.0001) //                  0.0: .
(PID.TID 0000.0001) // RANGE I (Lo:Hi:Step):(  -3: 196:   1)
(PID.TID 0000.0001) // RANGE J (Lo:Hi:Step):(  36:  -3:  -1)
(PID.TID 0000.0001) // RANGE K (Lo:Hi:Step):(   1:   1:   1)
(PID.TID 0000.0001) // =======================================================
(PID.TID 0000.0001) // =======================================================
(PID.TID 0000.0001) // END OF FIELD                                          =
(PID.TID 0000.0001) // =======================================================
(PID.TID 0000.0001) 
(PID.TID 0000.0001) %MON ad_advcflfCori_max           =   1.4535016908525E-04
(PID.TID 0000.0001) %MON ad_advcflfCori_min           =  -1.4535016908525E-04
(PID.TID 0000.0001) %MON ad_advcflfCori_mean          =   0.0000000000000E+00
(PID.TID 0000.0001) %MON ad_advcflfCori_sd            =   8.3972192788621E-05
(PID.TID 0000.0001) %MON ad_advcflfCoriG_max          =   1.4544410433286E-04
(PID.TID 0000.0001) %MON ad_advcflfCoriG_min          =  -1.4544410433286E-04
(PID.TID 0000.0001) %MON ad_advcflfCoriG_mean         =   0.0000000000000E+00
(PID.TID 0000.0001) %MON ad_advcflfCoriG_sd           =   8.3972192788621E-05
(PID.TID 0000.0001) %MON ad_advcflfCoriCos_max        =   1.4540341538469E-04
(PID.TID 0000.0001) %MON ad_advcflfCoriCos_min        =   5.2264550201501E-06
(PID.TID 0000.0001) %MON ad_advcflfCoriCos_mean       =   1.1482595466044E-04
(PID.TID 0000.0001) %MON ad_advcflfCoriCos_sd         =   3.0292878037194E-05
(PID.TID 0000.0001) INI_CG2D: CG2D normalisation factor =  1.9156564154949553E-04
(PID.TID 0000.0001) INI_CG2D: cg2dTolerance = 5.809016360175293E-07 (Area=3.6388673751E+14)
(PID.TID 0000.0001) 
(PID.TID 0000.0001)  MDS_READ_META: opening file: pickup.0000072000.meta
(PID.TID 0000.0001)  nRecords = 123 ; filePrec =  64 ; fileIter =     72000
(PID.TID 0000.0001)     nDims =   2 , dims:
(PID.TID 0000.0001)    1: 192   1 192
(PID.TID 0000.0001)    2:  32   1  32
(PID.TID 0000.0001)     nFlds =  11 , nFl3D =   8 , fields:
(PID.TID 0000.0001)  >Uvel    < >GuNm1   < >Vvel    < >GvNm1   < >Theta   < >GtNm1   < >Salt    < >GsNm1   < >EtaN    < >dEtaHdt < >EtaH    <
(PID.TID 0000.0001)   nTimRec =   0 , timeList:
(PID.TID 0000.0001) READ_MFLDS_3D_RL: read field: "Uvel    ", #   1 in fldList, rec=   1
(PID.TID 0000.0001)  MDS_READ_FIELD: opening global file: pickup.0000072000
(PID.TID 0000.0001) READ_MFLDS_3D_RL: read field: "Vvel    ", #   3 in fldList, rec=   3
(PID.TID 0000.0001)  MDS_READ_FIELD: opening global file: pickup.0000072000
(PID.TID 0000.0001) READ_MFLDS_3D_RL: read field: "Theta   ", #   5 in fldList, rec=   5
(PID.TID 0000.0001)  MDS_READ_FIELD: opening global file: pickup.0000072000
(PID.TID 0000.0001) READ_MFLDS_3D_RL: read field: "Salt    ", #   7 in fldList, rec=   7
(PID.TID 0000.0001)  MDS_READ_FIELD: opening global file: pickup.0000072000
(PID.TID 0000.0001) READ_MFLDS_3D_RL: read field: "GuNm1   ", #   2 in fldList, rec=   2
(PID.TID 0000.0001)  MDS_READ_FIELD: opening global file: pickup.0000072000
(PID.TID 0000.0001) READ_MFLDS_3D_RL: read field: "GvNm1   ", #   4 in fldList, rec=   4
(PID.TID 0000.0001)  MDS_READ_FIELD: opening global file: pickup.0000072000
(PID.TID 0000.0001) READ_MFLDS_3D_RL: read field: "EtaN    ", #   9 in fldList, rec= 121
(PID.TID 0000.0001)  MDS_READ_FIELD: opening global file: pickup.0000072000
(PID.TID 0000.0001) READ_MFLDS_CHECK: - normal end ; reset MFLDS file-name: pickup.0000072000
(PID.TID 0000.0001)  MDS_READ_FIELD: opening global file: trenberth_taux.bin
(PID.TID 0000.0001)  MDS_READ_FIELD: opening global file: trenberth_tauy.bin
(PID.TID 0000.0001)  MDS_READ_FIELD: opening global file: shiQnet_cs32.bin
(PID.TID 0000.0001)  MDS_READ_FIELD: opening global file: shiEmPR_cs32.bin
(PID.TID 0000.0001)  MDS_READ_FIELD: opening global file: lev_surfT_cs_12m.bin
(PID.TID 0000.0001)  MDS_READ_FIELD: opening global file: lev_surfS_cs_12m.bin
(PID.TID 0000.0001)  MDS_READ_FIELD: opening file: xx_theta.0000000000.001.001.data
(PID.TID 0000.0001)  MDS_READ_FIELD: opening file: xx_theta.0000000000.002.001.data
(PID.TID 0000.0001)  MDS_READ_FIELD: opening file: xx_theta.0000000000.003.001.data
(PID.TID 0000.0001)  MDS_READ_FIELD: opening file: xx_theta.0000000000.004.001.data
(PID.TID 0000.0001)  MDS_READ_FIELD: opening file: xx_theta.0000000000.005.001.data
(PID.TID 0000.0001)  MDS_READ_FIELD: opening file: xx_theta.0000000000.006.001.data
(PID.TID 0000.0001)  MDS_READ_FIELD: opening file: xx_salt.0000000000.001.001.data
(PID.TID 0000.0001)  MDS_READ_FIELD: opening file: xx_salt.0000000000.002.001.data
(PID.TID 0000.0001)  MDS_READ_FIELD: opening file: xx_salt.0000000000.003.001.data
(PID.TID 0000.0001)  MDS_READ_FIELD: opening file: xx_salt.0000000000.004.001.data
(PID.TID 0000.0001)  MDS_READ_FIELD: opening file: xx_salt.0000000000.005.001.data
(PID.TID 0000.0001)  MDS_READ_FIELD: opening file: xx_salt.0000000000.006.001.data
(PID.TID 0000.0001)  MDS_READ_FIELD: opening file: xx_diffkr.0000000000.001.001.data
(PID.TID 0000.0001)  MDS_READ_FIELD: opening file: xx_diffkr.0000000000.002.001.data
(PID.TID 0000.0001)  MDS_READ_FIELD: opening file: xx_diffkr.0000000000.003.001.data
(PID.TID 0000.0001)  MDS_READ_FIELD: opening file: xx_diffkr.0000000000.004.001.data
(PID.TID 0000.0001)  MDS_READ_FIELD: opening file: xx_diffkr.0000000000.005.001.data
(PID.TID 0000.0001)  MDS_READ_FIELD: opening file: xx_diffkr.0000000000.006.001.data
(PID.TID 0000.0001) // =======================================================
(PID.TID 0000.0001) // Model current state
(PID.TID 0000.0001) // =======================================================
(PID.TID 0000.0001) 
S/R EXTERNAL_FIELDS_LOAD: Reading new data:   12    1     72000  6.220800000000E+09
(PID.TID 0000.0001)  MDS_READ_FIELD: opening global file: trenberth_taux.bin
(PID.TID 0000.0001)  MDS_READ_FIELD: opening global file: trenberth_taux.bin
(PID.TID 0000.0001)  MDS_READ_FIELD: opening global file: trenberth_tauy.bin
(PID.TID 0000.0001)  MDS_READ_FIELD: opening global file: trenberth_tauy.bin
(PID.TID 0000.0001)  MDS_READ_FIELD: opening global file: shiQnet_cs32.bin
(PID.TID 0000.0001)  MDS_READ_FIELD: opening global file: shiQnet_cs32.bin
(PID.TID 0000.0001)  MDS_READ_FIELD: opening global file: shiEmPR_cs32.bin
(PID.TID 0000.0001)  MDS_READ_FIELD: opening global file: shiEmPR_cs32.bin
(PID.TID 0000.0001)  MDS_READ_FIELD: opening global file: lev_surfT_cs_12m.bin
(PID.TID 0000.0001)  MDS_READ_FIELD: opening global file: lev_surfT_cs_12m.bin
(PID.TID 0000.0001)  MDS_READ_FIELD: opening global file: lev_surfS_cs_12m.bin
(PID.TID 0000.0001)  MDS_READ_FIELD: opening global file: lev_surfS_cs_12m.bin
(PID.TID 0000.0001)  MDS_READ_FIELD: opening file: xx_tauu.0000000000.001.001.data
(PID.TID 0000.0001)  MDS_READ_FIELD: opening file: xx_tauu.0000000000.002.001.data
(PID.TID 0000.0001)  MDS_READ_FIELD: opening file: xx_tauu.0000000000.003.001.data
(PID.TID 0000.0001)  MDS_READ_FIELD: opening file: xx_tauu.0000000000.004.001.data
(PID.TID 0000.0001)  MDS_READ_FIELD: opening file: xx_tauu.0000000000.005.001.data
(PID.TID 0000.0001)  MDS_READ_FIELD: opening file: xx_tauu.0000000000.006.001.data
(PID.TID 0000.0001)  MDS_READ_FIELD: opening file: xx_tauv.0000000000.001.001.data
(PID.TID 0000.0001)  MDS_READ_FIELD: opening file: xx_tauv.0000000000.002.001.data
(PID.TID 0000.0001)  MDS_READ_FIELD: opening file: xx_tauv.0000000000.003.001.data
(PID.TID 0000.0001)  MDS_READ_FIELD: opening file: xx_tauv.0000000000.004.001.data
(PID.TID 0000.0001)  MDS_READ_FIELD: opening file: xx_tauv.0000000000.005.001.data
(PID.TID 0000.0001)  MDS_READ_FIELD: opening file: xx_tauv.0000000000.006.001.data
(PID.TID 0000.0001)  MDS_READ_FIELD: opening file: xx_sfl.0000000000.001.001.data
(PID.TID 0000.0001)  MDS_READ_FIELD: opening file: xx_sfl.0000000000.002.001.data
(PID.TID 0000.0001)  MDS_READ_FIELD: opening file: xx_sfl.0000000000.003.001.data
(PID.TID 0000.0001)  MDS_READ_FIELD: opening file: xx_sfl.0000000000.004.001.data
(PID.TID 0000.0001)  MDS_READ_FIELD: opening file: xx_sfl.0000000000.005.001.data
(PID.TID 0000.0001)  MDS_READ_FIELD: opening file: xx_sfl.0000000000.006.001.data
(PID.TID 0000.0001)  MDS_READ_FIELD: opening file: xx_hfl.0000000000.001.001.data
(PID.TID 0000.0001)  MDS_READ_FIELD: opening file: xx_hfl.0000000000.002.001.data
(PID.TID 0000.0001)  MDS_READ_FIELD: opening file: xx_hfl.0000000000.003.001.data
(PID.TID 0000.0001)  MDS_READ_FIELD: opening file: xx_hfl.0000000000.004.001.data
(PID.TID 0000.0001)  MDS_READ_FIELD: opening file: xx_hfl.0000000000.005.001.data
(PID.TID 0000.0001)  MDS_READ_FIELD: opening file: xx_hfl.0000000000.006.001.data
 cg2d: Sum(rhs),rhsMax =  -9.60653778747655E-12  4.28505602916984E+00
 cg2d: Sum(rhs),rhsMax =  -4.21031208475142E-06  4.27911284976332E+00
 cg2d: Sum(rhs),rhsMax =  -8.11975374404028E-06  4.27329379356980E+00
 cg2d: Sum(rhs),rhsMax =  -1.18779838089722E-05  4.26739301123074E+00
 cg2d: Sum(rhs),rhsMax =  -1.52654320118017E-05  4.26144702358647E+00
 cg2d: Sum(rhs),rhsMax =  -1.79972269052087E-05  4.25555457619980E+00
 cg2d: Sum(rhs),rhsMax =  -2.08016802503153E-05  4.24977589888308E+00
 cg2d: Sum(rhs),rhsMax =  -2.30296846837064E-05  4.24417316302920E+00
 cg2d: Sum(rhs),rhsMax =  -2.54249144973073E-05  4.23881439791761E+00
 cg2d: Sum(rhs),rhsMax =  -2.69902854768134E-05  4.23376857506902E+00
 cg2d: Sum(rhs),rhsMax =  -2.89044344299327E-05  4.22909355816842E+00
 cg2d: Sum(rhs),rhsMax =  -3.15954357290593E-05  4.22483241192602E+00
 cg2d: Sum(rhs),rhsMax =  -3.51718162789894E-05  4.22101138820619E+00
 cg2d: Sum(rhs),rhsMax =  -3.94076519398823E-05  4.21764140730437E+00
 cg2d: Sum(rhs),rhsMax =  -4.22093473844143E-05  4.21471931093643E+00
S/R EXTERNAL_FIELDS_LOAD: Reading new data:    1    2     72015  6.222096000000E+09
(PID.TID 0000.0001)  MDS_READ_FIELD: opening global file: trenberth_taux.bin
(PID.TID 0000.0001)  MDS_READ_FIELD: opening global file: trenberth_taux.bin
(PID.TID 0000.0001)  MDS_READ_FIELD: opening global file: trenberth_tauy.bin
(PID.TID 0000.0001)  MDS_READ_FIELD: opening global file: trenberth_tauy.bin
(PID.TID 0000.0001)  MDS_READ_FIELD: opening global file: shiQnet_cs32.bin
(PID.TID 0000.0001)  MDS_READ_FIELD: opening global file: shiQnet_cs32.bin
(PID.TID 0000.0001)  MDS_READ_FIELD: opening global file: shiEmPR_cs32.bin
(PID.TID 0000.0001)  MDS_READ_FIELD: opening global file: shiEmPR_cs32.bin
(PID.TID 0000.0001)  MDS_READ_FIELD: opening global file: lev_surfT_cs_12m.bin
(PID.TID 0000.0001)  MDS_READ_FIELD: opening global file: lev_surfT_cs_12m.bin
(PID.TID 0000.0001)  MDS_READ_FIELD: opening global file: lev_surfS_cs_12m.bin
(PID.TID 0000.0001)  MDS_READ_FIELD: opening global file: lev_surfS_cs_12m.bin
 cg2d: Sum(rhs),rhsMax =  -4.27390669983652E-05  4.21222997394718E+00
 cg2d: Sum(rhs),rhsMax =  -4.17910027579182E-05  4.21005385763764E+00
 cg2d: Sum(rhs),rhsMax =  -4.00903114154971E-05  4.20835829272140E+00
 cg2d: Sum(rhs),rhsMax =  -3.79556717575724E-05  4.20701953703838E+00
 cg2d: Sum(rhs),rhsMax =  -3.56227113229579E-05  4.20598324262455E+00
(PID.TID 0000.0001) %CHECKPOINT     72020 ckptB
(PID.TID 0000.0001)  MDS_READ_FIELD: opening global file: lev_T_cs_15k.bin
 --> objf_test(bi,bj)   =  0.213611533510873E+05
 --> objf_tracer(bi,bj) =  0.000000000000000E+00
 --> objf_atl(bi,bj)    =  0.000000000000000E+00
 --> objf_test(bi,bj)   =  0.114876404779777E+05
 --> objf_tracer(bi,bj) =  0.000000000000000E+00
 --> objf_atl(bi,bj)    =  0.000000000000000E+00
 --> objf_test(bi,bj)   =  0.181712047574859E+05
 --> objf_tracer(bi,bj) =  0.000000000000000E+00
 --> objf_atl(bi,bj)    =  0.000000000000000E+00
 --> objf_test(bi,bj)   =  0.231640448917253E+05
 --> objf_tracer(bi,bj) =  0.000000000000000E+00
 --> objf_atl(bi,bj)    =  0.000000000000000E+00
 --> objf_test(bi,bj)   =  0.145315994763372E+05
 --> objf_tracer(bi,bj) =  0.000000000000000E+00
 --> objf_atl(bi,bj)    =  0.000000000000000E+00
 --> objf_test(bi,bj)   =  0.124822651321619E+05
 --> objf_tracer(bi,bj) =  0.000000000000000E+00
 --> objf_atl(bi,bj)    =  0.000000000000000E+00
  local fc =  0.101197908086775E+06
 global fc =  0.101197908086775E+06
 ph-check fcpertplus =   101197.908
(PID.TID 0000.0001)  MDS_READ_FIELD: opening file: xx_theta.0000000000.001.001.data
(PID.TID 0000.0001)  MDS_READ_FIELD: opening file: xx_theta.0000000000.002.001.data
(PID.TID 0000.0001)  MDS_READ_FIELD: opening file: xx_theta.0000000000.003.001.data
(PID.TID 0000.0001)  MDS_READ_FIELD: opening file: xx_theta.0000000000.004.001.data
(PID.TID 0000.0001)  MDS_READ_FIELD: opening file: xx_theta.0000000000.005.001.data
(PID.TID 0000.0001)  MDS_READ_FIELD: opening file: xx_theta.0000000000.006.001.data
 ph-check fcpertminus =   101197.871
(PID.TID 0000.0001)  MDS_READ_FIELD: opening file: xx_theta.0000000000.001.001.data
(PID.TID 0000.0001)  MDS_READ_FIELD: opening file: xx_theta.0000000000.002.001.data
(PID.TID 0000.0001)  MDS_READ_FIELD: opening file: xx_theta.0000000000.003.001.data
(PID.TID 0000.0001)  MDS_READ_FIELD: opening file: xx_theta.0000000000.004.001.data
(PID.TID 0000.0001)  MDS_READ_FIELD: opening file: xx_theta.0000000000.005.001.data
(PID.TID 0000.0001)  MDS_READ_FIELD: opening file: xx_theta.0000000000.006.001.data
(PID.TID 0000.0001)  MDS_READ_FIELD: opening global file: bathy_Hmin50.bin
(PID.TID 0000.0001) // =======================================================
(PID.TID 0000.0001) // Field Model R_low (ini_masks_etc) at iteration          1
(PID.TID 0000.0001) // CMIN =         -5.200000000000000E+03
(PID.TID 0000.0001) // CMAX =         -5.000000000000000E+01
(PID.TID 0000.0001) // CINT =          1.907407407407407E+02
(PID.TID 0000.0001) // SYMBOLS (CMIN->CMAX): -abcdefghijklmnopqrstuvwxyz+
(PID.TID 0000.0001) //                  0.0: .
(PID.TID 0000.0001) // RANGE I (Lo:Hi:Step):(  -3: 196:   1)
(PID.TID 0000.0001) // RANGE J (Lo:Hi:Step):(  36:  -3:  -1)
(PID.TID 0000.0001) // RANGE K (Lo:Hi:Step):(   1:   1:   1)
(PID.TID 0000.0001) // =======================================================
(PID.TID 0000.0001) K =   1
(PID.TID 0000.0001) //                I=6       I=16      I=26      I=36      I=38      I=48      I=58      I=68      I=70      I=80      I=90      I=100     I=102     I=112     I=122     I=132     I=134     I=144     I=154     I=164     I=166     I=176     I=186     I=196
(PID.TID 0000.0001) // |--J--|321012345|789012345|789012345|789012345|901234567|901234567|901234567|901234567|123456789|123456789|123456789|123456789|345678901|345678901|345678901|345678901|567890123|567890123|567890123|567890123|789012345|789012345|789012345|789012345|
(PID.TID 0000.0001) //     36 cbbc-ddcbcdehkhhmn..++..................................................okn.skko--a-fc----bba-cp.............tfeecccbbdeecccbbdeddedcdcccdddcddffggghiggfffdeeffijlihjlica---a--cgffel.+edfgeedflcbahgfllcbahgfllfhdffhkfffca-aady...llnabdoa--a
(PID.TID 0000.0001) //     35 dcac--cbbeefjkfefw+..........zpu........................................kqnzrqqk--b-da----bbbbfu..............fdddccaadcddccaadcdddcbbbbcdddcccdffffghgffffddefflligfiljfba---aafddehy...pwvlhfffcbagfccfcbagfcceeffffjlkjgaa---bfvheeln-aesaaab
(PID.TID 0000.0001) //     34 d--ba-abcehjnldcclz+........spps.......................................vkqn+xnnncabbcbba--aabfu+..............hcbaaaaaccbaaaaaccdccbaaabbddddccdffffghfeeeeedeffjiffefilhfcaaaacgceei.......zomggfcaecbbgfcaecbbccddefilihecbaacbaajfega-aesfeed
(PID.TID 0000.0001) //     33 --abbbccceiomkfdbbc+.......+s..........................................xsrxzz+z.fdcddb-----adu+...............hcbaa--accbaa--accddba--bbbddddccdfffhhgfeeddcceddhfeddfgikhfffdfgccffw........zohhgebbaaahgebbaaaaaccdfhlhfefdcccaabjefbaaafoosso
(PID.TID 0000.0001) //     32 --bddefhhkqqlgfaakqz..v.+..+.........................................++..u+....zigfdba----adu+................kdcaaa-acccaaa-accdcb---bbbcdddddefffggfeeedcccccbccbbdcdfgghhiihcbeiw.........+ynjgebaaaajgebaaaa-aacccfikkhecccbbbaaabaadfklnqpp
(PID.TID 0000.0001) //     31 abbcffijnpnqneaaat..umrr+s.z.........................................+++++.ztsvdlifeb--dfdfu+................+lkdca--abcdca--abcccb---bbbbddddeffflhfeeeecbbbbaaba-abbacbcdceffbbfw+..........++ujfbaaa-ujfbaaa----aacffiljgfffcca--adfikkiihhhf
(PID.TID 0000.0001) //     30 --adgillkkkifcadcx.ymmqzqikvnnps.....................................+++++wmegt-jlifcacdlqx+++...............mligea---abgea---abbbb---abaaddddeedkmeddefdbbbaaaabc---b--aaaaabaabm..............+viba---+viba-------acdefinmlgiieb-chnnnmlmlgffc
(PID.TID 0000.0001) //     29 --cfiljigfjd--efdozy...+ximpnnuz......................................+++yqddhp-iljhcbbchz+......++.........+mmhffc----affc----aaba------acdddcbcineddgdbaaa----cdd--a------aa-bfz...............+qe---a.+qe---aa---aedeegknmlgiigcdfhpokkimlfdb
(PID.TID 0000.0001) //     28 -abgkhfcccea-bdei........t............................................++zwgfcfk-gknhccbbhwwy.....+++........+njfeed-----eed-----aa-------abddcabcnfddegcaaa-----hlf------------dk+................+ja---..+ja------bffdddehfd--bedaacfhpnligiihd
(PID.TID 0000.0001) //     27 -acghfbaaaa-achmy......................+.......+++....................++vnbbbclefkpkeeecflmqxy....++........+lhfeecc----eecc------------aaadcbabcfhddccba-------zqd-----------irw.................++e---..++e-----mhmijddda--------ahhfiokhedegg
(PID.TID 0000.0001) //     26 -adhfca-----bfiv.......................+.......++sy...................+tq-fdbblcjknqiheddefhiksz++++........zkhfdccb----dccb------------aabdcaaaacfddbca-------a+xfa-abb-----vvv...................+wa--...+wa---mlmkijhc----------cjjffiheb-aad
(PID.TID 0000.0001) //     25 -achfa------ch+..................w.......w.......njo+................+x-----bcgidiqqojfefiiiijmy.++.........zkhfdbaa----dbaa-------daa---acccaaaacccca--------ac.+udaabbb----tei...................++qde...++qdeqnghiljcaaaaidaa----beedeeca--bb
(PID.TID 0000.0001) //     24 aaeifa--acbcei...................w.......w.......likn+.....++.....++znpa----bbdi-fnlmnjhinlksssw............qhfeca------ca--------addc--aeffaaaaaaccb-a----a--bd.++udbbaba---ven....................++xy....++xywnfgllcbbabegkecba----ddddcaacdc
(PID.TID 0000.0001) //     23 abfida-aabchjk...................zz......zz.....nhhijz....tqq.....+ujgzgd---abci-cegklkkknols..xuu..........zgfdba------ba--------bcd---affaaadffabbb-----aa-bcc.+.+ufb-----l.gx...........s.........++z.....++zzkfilfccccoz..ulkcd---bccnfddddd
(PID.TID 0000.0001) //     22 -afhfaa---bfgi....................zz..rn..zz..rnjffggm...nlmn+....+sffzya--aabcieaaffdfhimrmp...yuu.++.......zudba------ba--------adc---dda-adffe-aa--------aaac....+ufc-baaqvhh..........dcfeeh......++......++zggqvifefhz......zobbaccfwuffeee
(PID.TID 0000.0001) //     21 babcgca----abe.....................ysstl...ysstlgeeeeoz..ijklt+....lfjzzf---adfcfdaadcehllotq....yy+++zzs.....+zcba-----cba-------cdd--aaa----df------------aaac.....+upjdcy.vohq.......+idcdfeeefwz....efwz....+hhn.vklox.........gdccfjwrigffh
(PID.TID 0000.0001) //     20 fbbbcgfcaa-aae+.......................lc......lcgfdddhq.+hiilnz++.+oquxyz--adgkfdcaabcfmtooyxz......+yuiiy....++gb------gb--------ddcca-a-----acbaa------bbaaaab........ywxy.lulo.lv...kcdgddffefffilyx+fffilyx+fffk.+xyyy.........mgeimvskjklll
(PID.TID 0000.0001) //     19 zmfeccdghfeegcbt......................aa......aafifccgnrzgghjry.+++sr+lq.--edfkkoxtkblwnnsp.vv......skhggt...+++t-------t---------bdaf---------edd-------adlaaaa+..........vnhzy.tllqiedccdhggfggffiiggfgffiiggfcbdgy..yz..........xigqophijkkii
(PID.TID 0000.0001) //     18 ..wifedfkhfegbbcivlqfoz..............jaa.....jaacfihggokeeffgt..++++..hhlfdeddkez..qcz+.zwxtsttz..ysrkhot++++++zig------ig--------b--f---------egqqqaa----frb---+........+kkrhw.vqmlnieddcdehgggffgigedbffgigedbaaceiy.............zilrddefikkhh
(PID.TID 0000.0001) //     17 ..+wfeefikhgcbbccaaacgn.............icaa....icaaccfihfoedddeedy..++...nnqwgfeekeyy.z++..+zsjjllllljllpjos+++.+zhhi-----ehi-----e-----ea--------foqqoqqo--hlwgea-.........+nk+..xiioonhfefddegihhghigfdbaghigfdbaaabdgx..............nheddefiklhg
(PID.TID 0000.0001) //     16 ....wiheddeccdfhfbabdfl............jdbad...jdbaddddgifkccccdccd+.++..++ynvz.tkkq.mu....++zyslllllkhggkmpy++...ihhi-----ehi-----ea---feb-----a-acnoohfghknvmwnuca..........qhu..hhhkojgffgeefghihhiieedbahiieedbaaabcdy..............ygddeghiljgf
(PID.TID 0000.0001) //     15 ......ylea--acfihebcbbes..........sfcbbn..sfcbbngfffigcaaabdbcac+.+++++zgmpx...y.mm....++..zslwz.yhhhhnz+++...rhgc----abgc----ab----ige----acaaalllkddfiy..yswxb..........thk.xgghiligfghfefhhhhiiheedcdiiheedcdbbabdmz.............zfdeghikkifd
(PID.TID 0000.0001) //     14 ........c---acgkhdcc--di..........ofddch..ofddchohffikaaaaabaaa-aw+.+ysnggox++...qrv..........yzzzzrjil+++....qhgd-----agd-----a-----i---cccdeabkklldinqssy..xxv...........+y.uhghikihgfghefgihhhgeeeeedhgeeeeeddbaadhw.............nedeghjjhfed
(PID.TID 0000.0001) //     13 .......+b----cfkhec---afz.........nhfdff..nhfdffholghkaaaaaba-a---flkkuswyy++++y+zr...........zzzzz++ry++......yd-------d--------------aeecdeidfkkqnqlmqquukqqmf..............iihiijjhfefgefhjihiffgggffiffgggffecaabelx...........zjecehijhfecc
(PID.TID 0000.0001) //     12 .......ec----chjhec---ag..........skiqdd..skiqddeiiiifaaabae--a---dd--iu+++.+++sxq++..........+z+++++.+++....++.s-------s------------a-ceccdejhlllkqlkklssiccdee.............wjkkkjjjigeefffgjiiighiiihhighiiihhhdaabdffghtxx......mfccehjiffdb-
(PID.TID 0000.0001) //     11 ......pdca--achlheba--ai..........nkn.fd..nkn.fdemijidaaaabi-------a--q+....++.ziis...........+++++..........+yyza----b-za----b-----a--ccccddkhieekkossssfbbbbcd............njjijhhihijhgggggjjjjijkkkkjjijkkkkjjhcaacddeegpy.....xfdccdhjgfdda-
(PID.TID 0000.0001) //     10 ......wfdb--achlhea---an.........uos..dc.uos..dcemikkfdcaabi-------equ+.........mk...........................zyvuq----ccuq----cc----a---dcfhkopqjeissrnpfbbcccde..........zslihhigghgijjihhhhkllkkkkkkjkkkkkkkjkkkedccdeeeeipz..zwhccbcdhgfddcam
(PID.TID 0000.0001) //      9 ......vgec---bfikca--cjl+.......+nnv.+cc+nnv.+ccffhkkiddaadha-----as++..........pvz++........................zxuuk------uk------a---a----djmqrrnlllsoiddcccccdjf.........+zjijhfgfggffhjkkkiillljihhghgijihhghgihighdeeffgghimnnjgecbbcdgfeccbas
(PID.TID 0000.0001) //      8 .....zleca---afjfca--hdfz.......vkky.jcevkky.jceddefijffdddhb--a-afv............nn..ss.........................+yku-----yku--------------ejnpqqnninnritqdccchkmf+.......wihgghgeffffeefhijkjkljiigeeffefigeeffefffhjhhikkklljklmhffeeeggfdcbaay.
(PID.TID 0000.0001) //      7 ...+zohec--abcfkhecbchbdx.......qiht.faaqiht.faaaabdgijgfededcdcb-f+............nn...pz.........................+zu-----+zu--------------edefqgqddsz+......+yuddmm+....tiggfggfeeeefeeefiiiijkiihhedddddhheddddddddjjllliijhfkmmkkjjhijgdcba--q.
(PID.TID 0000.0001) //      6 ..+yomfddcaabefkifdchaadt......uqdeisc--qdeisc----dfefgifffkklldc--v............up...pp.........................v.x-----v.x---------a----fbbpqgzenx+........zdbcmllkhhfffffffgfeeeeeeeefhhhhijihhffddcbbhffddcbbbbdhhiihedddb-cfhhhjjjieca----+.
(PID.TID 0000.0001) //      5 ..+nhgffkghccfhkhffgdaackz....uoibcimlaaibcimlaaacfbddfjjhijeehf-a-c............zs...su.........................qk.yi---qk.yi-------gha-fjddqs+xkrz.........q-bchikdccdeeeeeeedddedddddgghhhhjhhgffcbbaagffcbbaaaaddfegecca----dfeefhfgdb-----+.
(PID.TID 0000.0001) //      4 .+ujhgfllfhdffhkfffca-aady...llnabdopfcbabdopfcbdgdbcdehlihgfddc--ms............................................okn.zd--okn.zd---eciiiicfkeeqy.ysz..........n-aafgdcbbdeddedcdcccdddcddffggghiggfffdbaa-fffdbaa---acdcccba--abvfedeffdcca----b+.
(PID.TID 0000.0001) //      3 +vjggfcceeffffjlkjgaa---bfvheeln-aesphfd-aesphfdhgabddeflihhgfecbaaayq+++++.....................................kqnz.vtpkqnz.vtpkllgdccfkkkkk..++..........+g---fecaaadcdddcbbbbcdddcccdffffghgffffdcaa-fffdcaa----abcaaaa-acxxmecdjmdbba----r+.
(PID.TID 0000.0001) //      2 qifeecbbccddefilihecbaacbaajfega-aesqhff-aesqhffiea-cdeflkkljifeddcba---bry+...................................vkqn+.sghkqn+.sghfcbcbbbdgfdek.++++.........+l---caaaaaccdccbaaabbddddccdffffghfeeeeecba-eeeecba------baaaa-euwxqdbcdkud-----sy+.
(PID.TID 0000.0001) //      1 ebbbbaaaaaccdfhlhfefdcccaabjefbaaafonhglaafonhglid--adfgkkkklkhffddca-----s++++................................xsrxz.tedsrxz.tedcbbbbaaadddet.++++.........+l------a-accddba--bbbddddccdfffhhgfeeddccba-eddccba-------aaaabgns.qcbcchyzqngll++..
(PID.TID 0000.0001) //      0 -aaaaaaa-aacccfikkhecccbbbaaabaadfkllilmdfkllilmgebaadfijjiiikjhffdcba-----lllgn.............................++..u+..zmd.u+..zmdfbd---a-aeef.xx+..........+++s-------accdcb---bbbcdddddefffggfeeedcccbbaedcccbba----aa--alrwwy.kcbccc+...++++...
(PID.TID 0000.0001) //     -1 --aaaaa----aacffiljgfffcca--adfikkiikimikkiikimiiheccfurkiffhijjigfecb-----l----.............................+++++.z+.wq++.z+.wqgbf-------dgzpoy+........+ys+yrb--aa-abcccb---bbbbddddeffflhfeeeecbbcbbaecbbcbbaa----a--bdflm.yuibbcc.......+...
(PID.TID 0000.0001) //     -2 --aaa-------acdefinmlgiieb-chnnnmlmlfklkmlmlfklklkhednwwsheeghhijjgfdca----g---a.............................+++++wmu++y++wmu++ywn--------fwvmgy+........+r-.+++-abc--abbbb---abaaddddeedkmeddefdbbbdcbadbbbdcbaa-------ba-hv.susfbcc.......+...
(PID.TID 0000.0001) //     -3 a--a---aa---aedeegknmlgiigcdfhpokkimdkmkkkimdkmknoiedcfjvpddegghhhhgfdcbaa-n---a..............................+++yqd.++++yqd.+++zvq--dafz.lqnggw+........+b-....abcc---aaba------acdddcbcineddgdbaaaeedbbaaaeedbaa----------nysqssfcd...........
(PID.TID 0000.0001) // =======================================================
(PID.TID 0000.0001) // END OF FIELD                                          =
(PID.TID 0000.0001) // =======================================================
(PID.TID 0000.0001) 
(PID.TID 0000.0001) // =======================================================
(PID.TID 0000.0001) // Field Model Ro_surf (ini_masks_etc) at iteration          1
(PID.TID 0000.0001) // CMIN =         -7.105427357601002E-15
(PID.TID 0000.0001) // CMAX =         -7.105427357601002E-15
(PID.TID 0000.0001) // CINT =          0.000000000000000E+00
(PID.TID 0000.0001) // SYMBOLS (CMIN->CMAX): -abcdefghijklmnopqrstuvwxyz+
(PID.TID 0000.0001) //                  0.0: .
(PID.TID 0000.0001) // RANGE I (Lo:Hi:Step):(  -3: 196:   1)
(PID.TID 0000.0001) // RANGE J (Lo:Hi:Step):(  36:  -3:  -1)
(PID.TID 0000.0001) // RANGE K (Lo:Hi:Step):(   1:   1:   1)
(PID.TID 0000.0001) // =======================================================
(PID.TID 0000.0001) // =======================================================
(PID.TID 0000.0001) // END OF FIELD                                          =
(PID.TID 0000.0001) // =======================================================
(PID.TID 0000.0001) 
(PID.TID 0000.0001) // =======================================================
(PID.TID 0000.0001) // Field hFacC at iteration          1
(PID.TID 0000.0001) // CMIN =          1.000000000000000E+00
(PID.TID 0000.0001) // CMAX =          1.000000000000000E+00
(PID.TID 0000.0001) // CINT =          0.000000000000000E+00
(PID.TID 0000.0001) // SYMBOLS (CMIN->CMAX): -abcdefghijklmnopqrstuvwxyz+
(PID.TID 0000.0001) //                  0.0: .
(PID.TID 0000.0001) // RANGE I (Lo:Hi:Step):(  -3: 196:   1)
(PID.TID 0000.0001) // RANGE J (Lo:Hi:Step):(  36:  -3:  -1)
(PID.TID 0000.0001) // RANGE K (Lo:Hi:Step):(   1:   1:   1)
(PID.TID 0000.0001) // =======================================================
(PID.TID 0000.0001) // =======================================================
(PID.TID 0000.0001) // END OF FIELD                                          =
(PID.TID 0000.0001) // =======================================================
(PID.TID 0000.0001) 
(PID.TID 0000.0001) // =======================================================
(PID.TID 0000.0001) // Field hFacW at iteration          1
(PID.TID 0000.0001) // CMIN =          1.000000000000000E+00
(PID.TID 0000.0001) // CMAX =          1.000000000000000E+00
(PID.TID 0000.0001) // CINT =          0.000000000000000E+00
(PID.TID 0000.0001) // SYMBOLS (CMIN->CMAX): -abcdefghijklmnopqrstuvwxyz+
(PID.TID 0000.0001) //                  0.0: .
(PID.TID 0000.0001) // RANGE I (Lo:Hi:Step):(  -3: 196:   1)
(PID.TID 0000.0001) // RANGE J (Lo:Hi:Step):(  36:  -3:  -1)
(PID.TID 0000.0001) // RANGE K (Lo:Hi:Step):(   1:   1:   1)
(PID.TID 0000.0001) // =======================================================
(PID.TID 0000.0001) // =======================================================
(PID.TID 0000.0001) // END OF FIELD                                          =
(PID.TID 0000.0001) // =======================================================
(PID.TID 0000.0001) 
(PID.TID 0000.0001) // =======================================================
(PID.TID 0000.0001) // Field hFacS at iteration          1
(PID.TID 0000.0001) // CMIN =          1.000000000000000E+00
(PID.TID 0000.0001) // CMAX =          1.000000000000000E+00
(PID.TID 0000.0001) // CINT =          0.000000000000000E+00
(PID.TID 0000.0001) // SYMBOLS (CMIN->CMAX): -abcdefghijklmnopqrstuvwxyz+
(PID.TID 0000.0001) //                  0.0: .
(PID.TID 0000.0001) // RANGE I (Lo:Hi:Step):(  -3: 196:   1)
(PID.TID 0000.0001) // RANGE J (Lo:Hi:Step):(  36:  -3:  -1)
(PID.TID 0000.0001) // RANGE K (Lo:Hi:Step):(   1:   1:   1)
(PID.TID 0000.0001) // =======================================================
(PID.TID 0000.0001) // =======================================================
(PID.TID 0000.0001) // END OF FIELD                                          =
(PID.TID 0000.0001) // =======================================================
(PID.TID 0000.0001) 
(PID.TID 0000.0001) %MON ad_advcflfCori_max           =   1.4535016908525E-04
(PID.TID 0000.0001) %MON ad_advcflfCori_min           =  -1.4535016908525E-04
(PID.TID 0000.0001) %MON ad_advcflfCori_mean          =   0.0000000000000E+00
(PID.TID 0000.0001) %MON ad_advcflfCori_sd            =   8.3972192788621E-05
(PID.TID 0000.0001) %MON ad_advcflfCoriG_max          =   1.4544410433286E-04
(PID.TID 0000.0001) %MON ad_advcflfCoriG_min          =  -1.4544410433286E-04
(PID.TID 0000.0001) %MON ad_advcflfCoriG_mean         =   0.0000000000000E+00
(PID.TID 0000.0001) %MON ad_advcflfCoriG_sd           =   8.3972192788621E-05
(PID.TID 0000.0001) %MON ad_advcflfCoriCos_max        =   1.4540341538469E-04
(PID.TID 0000.0001) %MON ad_advcflfCoriCos_min        =   5.2264550201501E-06
(PID.TID 0000.0001) %MON ad_advcflfCoriCos_mean       =   1.1482595466044E-04
(PID.TID 0000.0001) %MON ad_advcflfCoriCos_sd         =   3.0292878037194E-05
(PID.TID 0000.0001) INI_CG2D: CG2D normalisation factor =  1.9156564154949553E-04
(PID.TID 0000.0001) INI_CG2D: cg2dTolerance = 5.809016360175293E-07 (Area=3.6388673751E+14)
(PID.TID 0000.0001) 
(PID.TID 0000.0001)  MDS_READ_META: opening file: pickup.0000072000.meta
(PID.TID 0000.0001)  nRecords = 123 ; filePrec =  64 ; fileIter =     72000
(PID.TID 0000.0001)     nDims =   2 , dims:
(PID.TID 0000.0001)    1: 192   1 192
(PID.TID 0000.0001)    2:  32   1  32
(PID.TID 0000.0001)     nFlds =  11 , nFl3D =   8 , fields:
(PID.TID 0000.0001)  >Uvel    < >GuNm1   < >Vvel    < >GvNm1   < >Theta   < >GtNm1   < >Salt    < >GsNm1   < >EtaN    < >dEtaHdt < >EtaH    <
(PID.TID 0000.0001)   nTimRec =   0 , timeList:
(PID.TID 0000.0001) READ_MFLDS_3D_RL: read field: "Uvel    ", #   1 in fldList, rec=   1
(PID.TID 0000.0001)  MDS_READ_FIELD: opening global file: pickup.0000072000
(PID.TID 0000.0001) READ_MFLDS_3D_RL: read field: "Vvel    ", #   3 in fldList, rec=   3
(PID.TID 0000.0001)  MDS_READ_FIELD: opening global file: pickup.0000072000
(PID.TID 0000.0001) READ_MFLDS_3D_RL: read field: "Theta   ", #   5 in fldList, rec=   5
(PID.TID 0000.0001)  MDS_READ_FIELD: opening global file: pickup.0000072000
(PID.TID 0000.0001) READ_MFLDS_3D_RL: read field: "Salt    ", #   7 in fldList, rec=   7
(PID.TID 0000.0001)  MDS_READ_FIELD: opening global file: pickup.0000072000
(PID.TID 0000.0001) READ_MFLDS_3D_RL: read field: "GuNm1   ", #   2 in fldList, rec=   2
(PID.TID 0000.0001)  MDS_READ_FIELD: opening global file: pickup.0000072000
(PID.TID 0000.0001) READ_MFLDS_3D_RL: read field: "GvNm1   ", #   4 in fldList, rec=   4
(PID.TID 0000.0001)  MDS_READ_FIELD: opening global file: pickup.0000072000
(PID.TID 0000.0001) READ_MFLDS_3D_RL: read field: "EtaN    ", #   9 in fldList, rec= 121
(PID.TID 0000.0001)  MDS_READ_FIELD: opening global file: pickup.0000072000
(PID.TID 0000.0001) READ_MFLDS_CHECK: - normal end ; reset MFLDS file-name: pickup.0000072000
(PID.TID 0000.0001)  MDS_READ_FIELD: opening global file: trenberth_taux.bin
(PID.TID 0000.0001)  MDS_READ_FIELD: opening global file: trenberth_tauy.bin
(PID.TID 0000.0001)  MDS_READ_FIELD: opening global file: shiQnet_cs32.bin
(PID.TID 0000.0001)  MDS_READ_FIELD: opening global file: shiEmPR_cs32.bin
(PID.TID 0000.0001)  MDS_READ_FIELD: opening global file: lev_surfT_cs_12m.bin
(PID.TID 0000.0001)  MDS_READ_FIELD: opening global file: lev_surfS_cs_12m.bin
(PID.TID 0000.0001)  MDS_READ_FIELD: opening file: xx_theta.0000000000.001.001.data
(PID.TID 0000.0001)  MDS_READ_FIELD: opening file: xx_theta.0000000000.002.001.data
(PID.TID 0000.0001)  MDS_READ_FIELD: opening file: xx_theta.0000000000.003.001.data
(PID.TID 0000.0001)  MDS_READ_FIELD: opening file: xx_theta.0000000000.004.001.data
(PID.TID 0000.0001)  MDS_READ_FIELD: opening file: xx_theta.0000000000.005.001.data
(PID.TID 0000.0001)  MDS_READ_FIELD: opening file: xx_theta.0000000000.006.001.data
(PID.TID 0000.0001)  MDS_READ_FIELD: opening file: xx_salt.0000000000.001.001.data
(PID.TID 0000.0001)  MDS_READ_FIELD: opening file: xx_salt.0000000000.002.001.data
(PID.TID 0000.0001)  MDS_READ_FIELD: opening file: xx_salt.0000000000.003.001.data
(PID.TID 0000.0001)  MDS_READ_FIELD: opening file: xx_salt.0000000000.004.001.data
(PID.TID 0000.0001)  MDS_READ_FIELD: opening file: xx_salt.0000000000.005.001.data
(PID.TID 0000.0001)  MDS_READ_FIELD: opening file: xx_salt.0000000000.006.001.data
(PID.TID 0000.0001)  MDS_READ_FIELD: opening file: xx_diffkr.0000000000.001.001.data
(PID.TID 0000.0001)  MDS_READ_FIELD: opening file: xx_diffkr.0000000000.002.001.data
(PID.TID 0000.0001)  MDS_READ_FIELD: opening file: xx_diffkr.0000000000.003.001.data
(PID.TID 0000.0001)  MDS_READ_FIELD: opening file: xx_diffkr.0000000000.004.001.data
(PID.TID 0000.0001)  MDS_READ_FIELD: opening file: xx_diffkr.0000000000.005.001.data
(PID.TID 0000.0001)  MDS_READ_FIELD: opening file: xx_diffkr.0000000000.006.001.data
(PID.TID 0000.0001) // =======================================================
(PID.TID 0000.0001) // Model current state
(PID.TID 0000.0001) // =======================================================
(PID.TID 0000.0001) 
S/R EXTERNAL_FIELDS_LOAD: Reading new data:   12    1     72000  6.220800000000E+09
(PID.TID 0000.0001)  MDS_READ_FIELD: opening global file: trenberth_taux.bin
(PID.TID 0000.0001)  MDS_READ_FIELD: opening global file: trenberth_taux.bin
(PID.TID 0000.0001)  MDS_READ_FIELD: opening global file: trenberth_tauy.bin
(PID.TID 0000.0001)  MDS_READ_FIELD: opening global file: trenberth_tauy.bin
(PID.TID 0000.0001)  MDS_READ_FIELD: opening global file: shiQnet_cs32.bin
(PID.TID 0000.0001)  MDS_READ_FIELD: opening global file: shiQnet_cs32.bin
(PID.TID 0000.0001)  MDS_READ_FIELD: opening global file: shiEmPR_cs32.bin
(PID.TID 0000.0001)  MDS_READ_FIELD: opening global file: shiEmPR_cs32.bin
(PID.TID 0000.0001)  MDS_READ_FIELD: opening global file: lev_surfT_cs_12m.bin
(PID.TID 0000.0001)  MDS_READ_FIELD: opening global file: lev_surfT_cs_12m.bin
(PID.TID 0000.0001)  MDS_READ_FIELD: opening global file: lev_surfS_cs_12m.bin
(PID.TID 0000.0001)  MDS_READ_FIELD: opening global file: lev_surfS_cs_12m.bin
(PID.TID 0000.0001)  MDS_READ_FIELD: opening file: xx_tauu.0000000000.001.001.data
(PID.TID 0000.0001)  MDS_READ_FIELD: opening file: xx_tauu.0000000000.002.001.data
(PID.TID 0000.0001)  MDS_READ_FIELD: opening file: xx_tauu.0000000000.003.001.data
(PID.TID 0000.0001)  MDS_READ_FIELD: opening file: xx_tauu.0000000000.004.001.data
(PID.TID 0000.0001)  MDS_READ_FIELD: opening file: xx_tauu.0000000000.005.001.data
(PID.TID 0000.0001)  MDS_READ_FIELD: opening file: xx_tauu.0000000000.006.001.data
(PID.TID 0000.0001)  MDS_READ_FIELD: opening file: xx_tauv.0000000000.001.001.data
(PID.TID 0000.0001)  MDS_READ_FIELD: opening file: xx_tauv.0000000000.002.001.data
(PID.TID 0000.0001)  MDS_READ_FIELD: opening file: xx_tauv.0000000000.003.001.data
(PID.TID 0000.0001)  MDS_READ_FIELD: opening file: xx_tauv.0000000000.004.001.data
(PID.TID 0000.0001)  MDS_READ_FIELD: opening file: xx_tauv.0000000000.005.001.data
(PID.TID 0000.0001)  MDS_READ_FIELD: opening file: xx_tauv.0000000000.006.001.data
(PID.TID 0000.0001)  MDS_READ_FIELD: opening file: xx_sfl.0000000000.001.001.data
(PID.TID 0000.0001)  MDS_READ_FIELD: opening file: xx_sfl.0000000000.002.001.data
(PID.TID 0000.0001)  MDS_READ_FIELD: opening file: xx_sfl.0000000000.003.001.data
(PID.TID 0000.0001)  MDS_READ_FIELD: opening file: xx_sfl.0000000000.004.001.data
(PID.TID 0000.0001)  MDS_READ_FIELD: opening file: xx_sfl.0000000000.005.001.data
(PID.TID 0000.0001)  MDS_READ_FIELD: opening file: xx_sfl.0000000000.006.001.data
(PID.TID 0000.0001)  MDS_READ_FIELD: opening file: xx_hfl.0000000000.001.001.data
(PID.TID 0000.0001)  MDS_READ_FIELD: opening file: xx_hfl.0000000000.002.001.data
(PID.TID 0000.0001)  MDS_READ_FIELD: opening file: xx_hfl.0000000000.003.001.data
(PID.TID 0000.0001)  MDS_READ_FIELD: opening file: xx_hfl.0000000000.004.001.data
(PID.TID 0000.0001)  MDS_READ_FIELD: opening file: xx_hfl.0000000000.005.001.data
(PID.TID 0000.0001)  MDS_READ_FIELD: opening file: xx_hfl.0000000000.006.001.data
 cg2d: Sum(rhs),rhsMax =  -9.57811607804615E-12  4.28505602916984E+00
 cg2d: Sum(rhs),rhsMax =  -4.20949075419230E-06  4.27911284988648E+00
 cg2d: Sum(rhs),rhsMax =  -8.11879300499641E-06  4.27329379424906E+00
 cg2d: Sum(rhs),rhsMax =  -1.18770063579632E-05  4.26739301284564E+00
 cg2d: Sum(rhs),rhsMax =  -1.52645164632759E-05  4.26144702636135E+00
 cg2d: Sum(rhs),rhsMax =  -1.79964036703950E-05  4.25555458026095E+00
 cg2d: Sum(rhs),rhsMax =  -2.08009312530066E-05  4.24977590430702E+00
 cg2d: Sum(rhs),rhsMax =  -2.30289659555183E-05  4.24417316973687E+00
 cg2d: Sum(rhs),rhsMax =  -2.54241995207849E-05  4.23881440564762E+00
 cg2d: Sum(rhs),rhsMax =  -2.69896085569599E-05  4.23376858348910E+00
 cg2d: Sum(rhs),rhsMax =  -2.89038810876718E-05  4.22909356697916E+00
 cg2d: Sum(rhs),rhsMax =  -3.15949881724009E-05  4.22483242095512E+00
 cg2d: Sum(rhs),rhsMax =  -3.51714174655626E-05  4.22101139733951E+00
 cg2d: Sum(rhs),rhsMax =  -3.94071618075031E-05  4.21764141640785E+00
 cg2d: Sum(rhs),rhsMax =  -4.22083742535051E-05  4.21471931976565E+00
S/R EXTERNAL_FIELDS_LOAD: Reading new data:    1    2     72015  6.222096000000E+09
(PID.TID 0000.0001)  MDS_READ_FIELD: opening global file: trenberth_taux.bin
(PID.TID 0000.0001)  MDS_READ_FIELD: opening global file: trenberth_taux.bin
(PID.TID 0000.0001)  MDS_READ_FIELD: opening global file: trenberth_tauy.bin
(PID.TID 0000.0001)  MDS_READ_FIELD: opening global file: trenberth_tauy.bin
(PID.TID 0000.0001)  MDS_READ_FIELD: opening global file: shiQnet_cs32.bin
(PID.TID 0000.0001)  MDS_READ_FIELD: opening global file: shiQnet_cs32.bin
(PID.TID 0000.0001)  MDS_READ_FIELD: opening global file: shiEmPR_cs32.bin
(PID.TID 0000.0001)  MDS_READ_FIELD: opening global file: shiEmPR_cs32.bin
(PID.TID 0000.0001)  MDS_READ_FIELD: opening global file: lev_surfT_cs_12m.bin
(PID.TID 0000.0001)  MDS_READ_FIELD: opening global file: lev_surfT_cs_12m.bin
(PID.TID 0000.0001)  MDS_READ_FIELD: opening global file: lev_surfS_cs_12m.bin
(PID.TID 0000.0001)  MDS_READ_FIELD: opening global file: lev_surfS_cs_12m.bin
 cg2d: Sum(rhs),rhsMax =  -4.27380859946425E-05  4.21222998219295E+00
 cg2d: Sum(rhs),rhsMax =  -4.17899784963538E-05  4.21005386495195E+00
 cg2d: Sum(rhs),rhsMax =  -4.00892592153923E-05  4.20835829881575E+00
 cg2d: Sum(rhs),rhsMax =  -3.79545979001250E-05  4.20701954174029E+00
 cg2d: Sum(rhs),rhsMax =  -3.56216268357912E-05  4.20598324588117E+00
(PID.TID 0000.0001) %CHECKPOINT     72020 ckptA
(PID.TID 0000.0001)  MDS_READ_FIELD: opening global file: lev_T_cs_15k.bin
 --> objf_test(bi,bj)   =  0.213610922936792E+05
 --> objf_tracer(bi,bj) =  0.000000000000000E+00
 --> objf_atl(bi,bj)    =  0.000000000000000E+00
 --> objf_test(bi,bj)   =  0.114876404770112E+05
 --> objf_tracer(bi,bj) =  0.000000000000000E+00
 --> objf_atl(bi,bj)    =  0.000000000000000E+00
 --> objf_test(bi,bj)   =  0.181712047567711E+05
 --> objf_tracer(bi,bj) =  0.000000000000000E+00
 --> objf_atl(bi,bj)    =  0.000000000000000E+00
 --> objf_test(bi,bj)   =  0.231640448962358E+05
 --> objf_tracer(bi,bj) =  0.000000000000000E+00
 --> objf_atl(bi,bj)    =  0.000000000000000E+00
 --> objf_test(bi,bj)   =  0.145315977025656E+05
 --> objf_tracer(bi,bj) =  0.000000000000000E+00
 --> objf_atl(bi,bj)    =  0.000000000000000E+00
 --> objf_test(bi,bj)   =  0.124822535223523E+05
 --> objf_tracer(bi,bj) =  0.000000000000000E+00
 --> objf_atl(bi,bj)    =  0.000000000000000E+00
  local fc =  0.101197833648615E+06
 global fc =  0.101197833648615E+06
(PID.TID 0000.0001)  MDS_READ_FIELD: opening file: xx_theta.0000000000.001.001.data
(PID.TID 0000.0001)  MDS_READ_FIELD: opening file: xx_theta.0000000000.002.001.data
(PID.TID 0000.0001)  MDS_READ_FIELD: opening file: xx_theta.0000000000.003.001.data
(PID.TID 0000.0001)  MDS_READ_FIELD: opening file: xx_theta.0000000000.004.001.data
(PID.TID 0000.0001)  MDS_READ_FIELD: opening file: xx_theta.0000000000.005.001.data
(PID.TID 0000.0001)  MDS_READ_FIELD: opening file: xx_theta.0000000000.006.001.data
grad-res -------------------------------
 grad-res     0    2    2    1    1    1    1    1   0.101197870851E+06 0.101197908087E+06 0.101197833649E+06
 grad-res     0    2    2    2  639    1    1    1   0.372188889184E+01 0.372190800554E+01 -.513548377401E-05
(PID.TID 0000.0001)   ADM  precision_derivative_cost =    1.01197870850837E+05
(PID.TID 0000.0001)   ADM  precision_derivative_grad =    3.72188889183652E+00
 ph-grd  ierr ---------------------------
 ph-grd  ierr =  0, icomp =  2, ichknum =  2
 ph-grd -->hit<--  3 1 1 1
(PID.TID 0000.0001)  MDS_READ_FIELD: opening file: adxx_theta.0000000000.001.001.data
(PID.TID 0000.0001)  MDS_READ_FIELD: opening file: adxx_theta.0000000000.002.001.data
(PID.TID 0000.0001)  MDS_READ_FIELD: opening file: adxx_theta.0000000000.003.001.data
(PID.TID 0000.0001)  MDS_READ_FIELD: opening file: adxx_theta.0000000000.004.001.data
(PID.TID 0000.0001)  MDS_READ_FIELD: opening file: adxx_theta.0000000000.005.001.data
(PID.TID 0000.0001)  MDS_READ_FIELD: opening file: adxx_theta.0000000000.006.001.data
(PID.TID 0000.0001)  MDS_READ_FIELD: opening file: xx_theta.0000000000.001.001.data
(PID.TID 0000.0001)  MDS_READ_FIELD: opening file: xx_theta.0000000000.002.001.data
(PID.TID 0000.0001)  MDS_READ_FIELD: opening file: xx_theta.0000000000.003.001.data
(PID.TID 0000.0001)  MDS_READ_FIELD: opening file: xx_theta.0000000000.004.001.data
(PID.TID 0000.0001)  MDS_READ_FIELD: opening file: xx_theta.0000000000.005.001.data
(PID.TID 0000.0001)  MDS_READ_FIELD: opening file: xx_theta.0000000000.006.001.data
(PID.TID 0000.0001)  MDS_READ_FIELD: opening global file: bathy_Hmin50.bin
(PID.TID 0000.0001) // =======================================================
(PID.TID 0000.0001) // Field Model R_low (ini_masks_etc) at iteration          1
(PID.TID 0000.0001) // CMIN =         -5.200000000000000E+03
(PID.TID 0000.0001) // CMAX =         -5.000000000000000E+01
(PID.TID 0000.0001) // CINT =          1.907407407407407E+02
(PID.TID 0000.0001) // SYMBOLS (CMIN->CMAX): -abcdefghijklmnopqrstuvwxyz+
(PID.TID 0000.0001) //                  0.0: .
(PID.TID 0000.0001) // RANGE I (Lo:Hi:Step):(  -3: 196:   1)
(PID.TID 0000.0001) // RANGE J (Lo:Hi:Step):(  36:  -3:  -1)
(PID.TID 0000.0001) // RANGE K (Lo:Hi:Step):(   1:   1:   1)
(PID.TID 0000.0001) // =======================================================
(PID.TID 0000.0001) K =   1
(PID.TID 0000.0001) //                I=6       I=16      I=26      I=36      I=38      I=48      I=58      I=68      I=70      I=80      I=90      I=100     I=102     I=112     I=122     I=132     I=134     I=144     I=154     I=164     I=166     I=176     I=186     I=196
(PID.TID 0000.0001) // |--J--|321012345|789012345|789012345|789012345|901234567|901234567|901234567|901234567|123456789|123456789|123456789|123456789|345678901|345678901|345678901|345678901|567890123|567890123|567890123|567890123|789012345|789012345|789012345|789012345|
(PID.TID 0000.0001) //     36 cbbc-ddcbcdehkhhmn..++..................................................okn.skko--a-fc----bba-cp.............tfeecccbbdeecccbbdeddedcdcccdddcddffggghiggfffdeeffijlihjlica---a--cgffel.+edfgeedflcbahgfllcbahgfllfhdffhkfffca-aady...llnabdoa--a
(PID.TID 0000.0001) //     35 dcac--cbbeefjkfefw+..........zpu........................................kqnzrqqk--b-da----bbbbfu..............fdddccaadcddccaadcdddcbbbbcdddcccdffffghgffffddefflligfiljfba---aafddehy...pwvlhfffcbagfccfcbagfcceeffffjlkjgaa---bfvheeln-aesaaab
(PID.TID 0000.0001) //     34 d--ba-abcehjnldcclz+........spps.......................................vkqn+xnnncabbcbba--aabfu+..............hcbaaaaaccbaaaaaccdccbaaabbddddccdffffghfeeeeedeffjiffefilhfcaaaacgceei.......zomggfcaecbbgfcaecbbccddefilihecbaacbaajfega-aesfeed
(PID.TID 0000.0001) //     33 --abbbccceiomkfdbbc+.......+s..........................................xsrxzz+z.fdcddb-----adu+...............hcbaa--accbaa--accddba--bbbddddccdfffhhgfeeddcceddhfeddfgikhfffdfgccffw........zohhgebbaaahgebbaaaaaccdfhlhfefdcccaabjefbaaafoosso
(PID.TID 0000.0001) //     32 --bddefhhkqqlgfaakqz..v.+..+.........................................++..u+....zigfdba----adu+................kdcaaa-acccaaa-accdcb---bbbcdddddefffggfeeedcccccbccbbdcdfgghhiihcbeiw.........+ynjgebaaaajgebaaaa-aacccfikkhecccbbbaaabaadfklnqpp
(PID.TID 0000.0001) //     31 abbcffijnpnqneaaat..umrr+s.z.........................................+++++.ztsvdlifeb--dfdfu+................+lkdca--abcdca--abcccb---bbbbddddeffflhfeeeecbbbbaaba-abbacbcdceffbbfw+..........++ujfbaaa-ujfbaaa----aacffiljgfffcca--adfikkiihhhf
(PID.TID 0000.0001) //     30 --adgillkkkifcadcx.ymmqzqikvnnps.....................................+++++wmegt-jlifcacdlqx+++...............mligea---abgea---abbbb---abaaddddeedkmeddefdbbbaaaabc---b--aaaaabaabm..............+viba---+viba-------acdefinmlgiieb-chnnnmlmlgffc
(PID.TID 0000.0001) //     29 --cfiljigfjd--efdozy...+ximpnnuz......................................+++yqddhp-iljhcbbchz+......++.........+mmhffc----affc----aaba------acdddcbcineddgdbaaa----cdd--a------aa-bfz...............+qe---a.+qe---aa---aedeegknmlgiigcdfhpokkimlfdb
(PID.TID 0000.0001) //     28 -abgkhfcccea-bdei........t............................................++zwgfcfk-gknhccbbhwwy.....+++........+njfeed-----eed-----aa-------abddcabcnfddegcaaa-----hlf------------dk+................+ja---..+ja------bffdddehfd--bedaacfhpnligiihd
(PID.TID 0000.0001) //     27 -acghfbaaaa-achmy......................+.......+++....................++vnbbbclefkpkeeecflmqxy....++........+lhfeecc----eecc------------aaadcbabcfhddccba-------zqd-----------irw.................++e---..++e-----mhmijddda--------ahhfiokhedegg
(PID.TID 0000.0001) //     26 -adhfca-----bfiv.......................+.......++sy...................+tq-fdbblcjknqiheddefhiksz++++........zkhfdccb----dccb------------aabdcaaaacfddbca-------a+xfa-abb-----vvv...................+wa--...+wa---mlmkijhc----------cjjffiheb-aad
(PID.TID 0000.0001) //     25 -achfa------ch+..................w.......w.......njo+................+x-----bcgidiqqojfefiiiijmy.++.........zkhfdbaa----dbaa-------daa---acccaaaacccca--------ac.+udaabbb----tei...................++qde...++qdeqnghiljcaaaaidaa----beedeeca--bb
(PID.TID 0000.0001) //     24 aaeifa--acbcei...................w.......w.......likn+.....++.....++znpa----bbdi-fnlmnjhinlksssw............qhfeca------ca--------addc--aeffaaaaaaccb-a----a--bd.++udbbaba---ven....................++xy....++xywnfgllcbbabegkecba----ddddcaacdc
(PID.TID 0000.0001) //     23 abfida-aabchjk...................zz......zz.....nhhijz....tqq.....+ujgzgd---abci-cegklkkknols..xuu..........zgfdba------ba--------bcd---affaaadffabbb-----aa-bcc.+.+ufb-----l.gx...........s.........++z.....++zzkfilfccccoz..ulkcd---bccnfddddd
(PID.TID 0000.0001) //     22 -afhfaa---bfgi....................zz..rn..zz..rnjffggm...nlmn+....+sffzya--aabcieaaffdfhimrmp...yuu.++.......zudba------ba--------adc---dda-adffe-aa--------aaac....+ufc-baaqvhh..........dcfeeh......++......++zggqvifefhz......zobbaccfwuffeee
(PID.TID 0000.0001) //     21 babcgca----abe.....................ysstl...ysstlgeeeeoz..ijklt+....lfjzzf---adfcfdaadcehllotq....yy+++zzs.....+zcba-----cba-------cdd--aaa----df------------aaac.....+upjdcy.vohq.......+idcdfeeefwz....efwz....+hhn.vklox.........gdccfjwrigffh
(PID.TID 0000.0001) //     20 fbbbcgfcaa-aae+.......................lc......lcgfdddhq.+hiilnz++.+oquxyz--adgkfdcaabcfmtooyxz......+yuiiy....++gb------gb--------ddcca-a-----acbaa------bbaaaab........ywxy.lulo.lv...kcdgddffefffilyx+fffilyx+fffk.+xyyy.........mgeimvskjklll
(PID.TID 0000.0001) //     19 zmfeccdghfeegcbt......................aa......aafifccgnrzgghjry.+++sr+lq.--edfkkoxtkblwnnsp.vv......skhggt...+++t-------t---------bdaf---------edd-------adlaaaa+..........vnhzy.tllqiedccdhggfggffiiggfgffiiggfcbdgy..yz..........xigqophijkkii
(PID.TID 0000.0001) //     18 ..wifedfkhfegbbcivlqfoz..............jaa.....jaacfihggokeeffgt..++++..hhlfdeddkez..qcz+.zwxtsttz..ysrkhot++++++zig------ig--------b--f---------egqqqaa----frb---+........+kkrhw.vqmlnieddcdehgggffgigedbffgigedbaaceiy.............zilrddefikkhh
(PID.TID 0000.0001) //     17 ..+wfeefikhgcbbccaaacgn.............icaa....icaaccfihfoedddeedy..++...nnqwgfeekeyy.z++..+zsjjllllljllpjos+++.+zhhi-----ehi-----e-----ea--------foqqoqqo--hlwgea-.........+nk+..xiioonhfefddegihhghigfdbaghigfdbaaabdgx..............nheddefiklhg
(PID.TID 0000.0001) //     16 ....wiheddeccdfhfbabdfl............jdbad...jdbaddddgifkccccdccd+.++..++ynvz.tkkq.mu....++zyslllllkhggkmpy++...ihhi-----ehi-----ea---feb-----a-acnoohfghknvmwnuca..........qhu..hhhkojgffgeefghihhiieedbahiieedbaaabcdy..............ygddeghiljgf
(PID.TID 0000.0001) //     15 ......ylea--acfihebcbbes..........sfcbbn..sfcbbngfffigcaaabdbcac+.+++++zgmpx...y.mm....++..zslwz.yhhhhnz+++...rhgc----abgc----ab----ige----acaaalllkddfiy..yswxb..........thk.xgghiligfghfefhhhhiiheedcdiiheedcdbbabdmz.............zfdeghikkifd
(PID.TID 0000.0001) //     14 ........c---acgkhdcc--di..........ofddch..ofddchohffikaaaaabaaa-aw+.+ysnggox++...qrv..........yzzzzrjil+++....qhgd-----agd-----a-----i---cccdeabkklldinqssy..xxv...........+y.uhghikihgfghefgihhhgeeeeedhgeeeeeddbaadhw.............nedeghjjhfed
(PID.TID 0000.0001) //     13 .......+b----cfkhec---afz.........nhfdff..nhfdffholghkaaaaaba-a---flkkuswyy++++y+zr...........zzzzz++ry++......yd-------d--------------aeecdeidfkkqnqlmqquukqqmf..............iihiijjhfefgefhjihiffgggffiffgggffecaabelx...........zjecehijhfecc
(PID.TID 0000.0001) //     12 .......ec----chjhec---ag..........skiqdd..skiqddeiiiifaaabae--a---dd--iu+++.+++sxq++..........+z+++++.+++....++.s-------s------------a-ceccdejhlllkqlkklssiccdee.............wjkkkjjjigeefffgjiiighiiihhighiiihhhdaabdffghtxx......mfccehjiffdb-
(PID.TID 0000.0001) //     11 ......pdca--achlheba--ai..........nkn.fd..nkn.fdemijidaaaabi-------a--q+....++.ziis...........+++++..........+yyza----b-za----b-----a--ccccddkhieekkossssfbbbbcd............njjijhhihijhgggggjjjjijkkkkjjijkkkkjjhcaacddeegpy.....xfdccdhjgfdda-
(PID.TID 0000.0001) //     10 ......wfdb--achlhea---an.........uos..dc.uos..dcemikkfdcaabi-------equ+.........mk...........................zyvuq----ccuq----cc----a---dcfhkopqjeissrnpfbbcccde..........zslihhigghgijjihhhhkllkkkkkkjkkkkkkkjkkkedccdeeeeipz..zwhccbcdhgfddcam
(PID.TID 0000.0001) //      9 ......vgec---bfikca--cjl+.......+nnv.+cc+nnv.+ccffhkkiddaadha-----as++..........pvz++........................zxuuk------uk------a---a----djmqrrnlllsoiddcccccdjf.........+zjijhfgfggffhjkkkiillljihhghgijihhghgihighdeeffgghimnnjgecbbcdgfeccbas
(PID.TID 0000.0001) //      8 .....zleca---afjfca--hdfz.......vkky.jcevkky.jceddefijffdddhb--a-afv............nn..ss.........................+yku-----yku--------------ejnpqqnninnritqdccchkmf+.......wihgghgeffffeefhijkjkljiigeeffefigeeffefffhjhhikkklljklmhffeeeggfdcbaay.
(PID.TID 0000.0001) //      7 ...+zohec--abcfkhecbchbdx.......qiht.faaqiht.faaaabdgijgfededcdcb-f+............nn...pz.........................+zu-----+zu--------------edefqgqddsz+......+yuddmm+....tiggfggfeeeefeeefiiiijkiihhedddddhheddddddddjjllliijhfkmmkkjjhijgdcba--q.
(PID.TID 0000.0001) //      6 ..+yomfddcaabefkifdchaadt......uqdeisc--qdeisc----dfefgifffkklldc--v............up...pp.........................v.x-----v.x---------a----fbbpqgzenx+........zdbcmllkhhfffffffgfeeeeeeeefhhhhijihhffddcbbhffddcbbbbdhhiihedddb-cfhhhjjjieca----+.
(PID.TID 0000.0001) //      5 ..+nhgffkghccfhkhffgdaackz....uoibcimlaaibcimlaaacfbddfjjhijeehf-a-c............zs...su.........................qk.yi---qk.yi-------gha-fjddqs+xkrz.........q-bchikdccdeeeeeeedddedddddgghhhhjhhgffcbbaagffcbbaaaaddfegecca----dfeefhfgdb-----+.
(PID.TID 0000.0001) //      4 .+ujhgfllfhdffhkfffca-aady...llnabdopfcbabdopfcbdgdbcdehlihgfddc--ms............................................okn.zd--okn.zd---eciiiicfkeeqy.ysz..........n-aafgdcbbdeddedcdcccdddcddffggghiggfffdbaa-fffdbaa---acdcccba--abvfedeffdcca----b+.
(PID.TID 0000.0001) //      3 +vjggfcceeffffjlkjgaa---bfvheeln-aesphfd-aesphfdhgabddeflihhgfecbaaayq+++++.....................................kqnz.vtpkqnz.vtpkllgdccfkkkkk..++..........+g---fecaaadcdddcbbbbcdddcccdffffghgffffdcaa-fffdcaa----abcaaaa-acxxmecdjmdbba----r+.
(PID.TID 0000.0001) //      2 qifeecbbccddefilihecbaacbaajfega-aesqhff-aesqhffiea-cdeflkkljifeddcba---bry+...................................vkqn+.sghkqn+.sghfcbcbbbdgfdek.++++.........+l---caaaaaccdccbaaabbddddccdffffghfeeeeecba-eeeecba------baaaa-euwxqdbcdkud-----sy+.
(PID.TID 0000.0001) //      1 ebbbbaaaaaccdfhlhfefdcccaabjefbaaafonhglaafonhglid--adfgkkkklkhffddca-----s++++................................xsrxz.tedsrxz.tedcbbbbaaadddet.++++.........+l------a-accddba--bbbddddccdfffhhgfeeddccba-eddccba-------aaaabgns.qcbcchyzqngll++..
(PID.TID 0000.0001) //      0 -aaaaaaa-aacccfikkhecccbbbaaabaadfkllilmdfkllilmgebaadfijjiiikjhffdcba-----lllgn.............................++..u+..zmd.u+..zmdfbd---a-aeef.xx+..........+++s-------accdcb---bbbcdddddefffggfeeedcccbbaedcccbba----aa--alrwwy.kcbccc+...++++...
(PID.TID 0000.0001) //     -1 --aaaaa----aacffiljgfffcca--adfikkiikimikkiikimiiheccfurkiffhijjigfecb-----l----.............................+++++.z+.wq++.z+.wqgbf-------dgzpoy+........+ys+yrb--aa-abcccb---bbbbddddeffflhfeeeecbbcbbaecbbcbbaa----a--bdflm.yuibbcc.......+...
(PID.TID 0000.0001) //     -2 --aaa-------acdefinmlgiieb-chnnnmlmlfklkmlmlfklklkhednwwsheeghhijjgfdca----g---a.............................+++++wmu++y++wmu++ywn--------fwvmgy+........+r-.+++-abc--abbbb---abaaddddeedkmeddefdbbbdcbadbbbdcbaa-------ba-hv.susfbcc.......+...
(PID.TID 0000.0001) //     -3 a--a---aa---aedeegknmlgiigcdfhpokkimdkmkkkimdkmknoiedcfjvpddegghhhhgfdcbaa-n---a..............................+++yqd.++++yqd.+++zvq--dafz.lqnggw+........+b-....abcc---aaba------acdddcbcineddgdbaaaeedbbaaaeedbaa----------nysqssfcd...........
(PID.TID 0000.0001) // =======================================================
(PID.TID 0000.0001) // END OF FIELD                                          =
(PID.TID 0000.0001) // =======================================================
(PID.TID 0000.0001) 
(PID.TID 0000.0001) // =======================================================
(PID.TID 0000.0001) // Field Model Ro_surf (ini_masks_etc) at iteration          1
(PID.TID 0000.0001) // CMIN =         -7.105427357601002E-15
(PID.TID 0000.0001) // CMAX =         -7.105427357601002E-15
(PID.TID 0000.0001) // CINT =          0.000000000000000E+00
(PID.TID 0000.0001) // SYMBOLS (CMIN->CMAX): -abcdefghijklmnopqrstuvwxyz+
(PID.TID 0000.0001) //                  0.0: .
(PID.TID 0000.0001) // RANGE I (Lo:Hi:Step):(  -3: 196:   1)
(PID.TID 0000.0001) // RANGE J (Lo:Hi:Step):(  36:  -3:  -1)
(PID.TID 0000.0001) // RANGE K (Lo:Hi:Step):(   1:   1:   1)
(PID.TID 0000.0001) // =======================================================
(PID.TID 0000.0001) // =======================================================
(PID.TID 0000.0001) // END OF FIELD                                          =
(PID.TID 0000.0001) // =======================================================
(PID.TID 0000.0001) 
(PID.TID 0000.0001) // =======================================================
(PID.TID 0000.0001) // Field hFacC at iteration          1
(PID.TID 0000.0001) // CMIN =          1.000000000000000E+00
(PID.TID 0000.0001) // CMAX =          1.000000000000000E+00
(PID.TID 0000.0001) // CINT =          0.000000000000000E+00
(PID.TID 0000.0001) // SYMBOLS (CMIN->CMAX): -abcdefghijklmnopqrstuvwxyz+
(PID.TID 0000.0001) //                  0.0: .
(PID.TID 0000.0001) // RANGE I (Lo:Hi:Step):(  -3: 196:   1)
(PID.TID 0000.0001) // RANGE J (Lo:Hi:Step):(  36:  -3:  -1)
(PID.TID 0000.0001) // RANGE K (Lo:Hi:Step):(   1:   1:   1)
(PID.TID 0000.0001) // =======================================================
(PID.TID 0000.0001) // =======================================================
(PID.TID 0000.0001) // END OF FIELD                                          =
(PID.TID 0000.0001) // =======================================================
(PID.TID 0000.0001) 
(PID.TID 0000.0001) // =======================================================
(PID.TID 0000.0001) // Field hFacW at iteration          1
(PID.TID 0000.0001) // CMIN =          1.000000000000000E+00
(PID.TID 0000.0001) // CMAX =          1.000000000000000E+00
(PID.TID 0000.0001) // CINT =          0.000000000000000E+00
(PID.TID 0000.0001) // SYMBOLS (CMIN->CMAX): -abcdefghijklmnopqrstuvwxyz+
(PID.TID 0000.0001) //                  0.0: .
(PID.TID 0000.0001) // RANGE I (Lo:Hi:Step):(  -3: 196:   1)
(PID.TID 0000.0001) // RANGE J (Lo:Hi:Step):(  36:  -3:  -1)
(PID.TID 0000.0001) // RANGE K (Lo:Hi:Step):(   1:   1:   1)
(PID.TID 0000.0001) // =======================================================
(PID.TID 0000.0001) // =======================================================
(PID.TID 0000.0001) // END OF FIELD                                          =
(PID.TID 0000.0001) // =======================================================
(PID.TID 0000.0001) 
(PID.TID 0000.0001) // =======================================================
(PID.TID 0000.0001) // Field hFacS at iteration          1
(PID.TID 0000.0001) // CMIN =          1.000000000000000E+00
(PID.TID 0000.0001) // CMAX =          1.000000000000000E+00
(PID.TID 0000.0001) // CINT =          0.000000000000000E+00
(PID.TID 0000.0001) // SYMBOLS (CMIN->CMAX): -abcdefghijklmnopqrstuvwxyz+
(PID.TID 0000.0001) //                  0.0: .
(PID.TID 0000.0001) // RANGE I (Lo:Hi:Step):(  -3: 196:   1)
(PID.TID 0000.0001) // RANGE J (Lo:Hi:Step):(  36:  -3:  -1)
(PID.TID 0000.0001) // RANGE K (Lo:Hi:Step):(   1:   1:   1)
(PID.TID 0000.0001) // =======================================================
(PID.TID 0000.0001) // =======================================================
(PID.TID 0000.0001) // END OF FIELD                                          =
(PID.TID 0000.0001) // =======================================================
(PID.TID 0000.0001) 
(PID.TID 0000.0001) %MON ad_advcflfCori_max           =   1.4535016908525E-04
(PID.TID 0000.0001) %MON ad_advcflfCori_min           =  -1.4535016908525E-04
(PID.TID 0000.0001) %MON ad_advcflfCori_mean          =   0.0000000000000E+00
(PID.TID 0000.0001) %MON ad_advcflfCori_sd            =   8.3972192788621E-05
(PID.TID 0000.0001) %MON ad_advcflfCoriG_max          =   1.4544410433286E-04
(PID.TID 0000.0001) %MON ad_advcflfCoriG_min          =  -1.4544410433286E-04
(PID.TID 0000.0001) %MON ad_advcflfCoriG_mean         =   0.0000000000000E+00
(PID.TID 0000.0001) %MON ad_advcflfCoriG_sd           =   8.3972192788621E-05
(PID.TID 0000.0001) %MON ad_advcflfCoriCos_max        =   1.4540341538469E-04
(PID.TID 0000.0001) %MON ad_advcflfCoriCos_min        =   5.2264550201501E-06
(PID.TID 0000.0001) %MON ad_advcflfCoriCos_mean       =   1.1482595466044E-04
(PID.TID 0000.0001) %MON ad_advcflfCoriCos_sd         =   3.0292878037194E-05
(PID.TID 0000.0001) INI_CG2D: CG2D normalisation factor =  1.9156564154949553E-04
(PID.TID 0000.0001) INI_CG2D: cg2dTolerance = 5.809016360175293E-07 (Area=3.6388673751E+14)
(PID.TID 0000.0001) 
(PID.TID 0000.0001)  MDS_READ_META: opening file: pickup.0000072000.meta
(PID.TID 0000.0001)  nRecords = 123 ; filePrec =  64 ; fileIter =     72000
(PID.TID 0000.0001)     nDims =   2 , dims:
(PID.TID 0000.0001)    1: 192   1 192
(PID.TID 0000.0001)    2:  32   1  32
(PID.TID 0000.0001)     nFlds =  11 , nFl3D =   8 , fields:
(PID.TID 0000.0001)  >Uvel    < >GuNm1   < >Vvel    < >GvNm1   < >Theta   < >GtNm1   < >Salt    < >GsNm1   < >EtaN    < >dEtaHdt < >EtaH    <
(PID.TID 0000.0001)   nTimRec =   0 , timeList:
(PID.TID 0000.0001) READ_MFLDS_3D_RL: read field: "Uvel    ", #   1 in fldList, rec=   1
(PID.TID 0000.0001)  MDS_READ_FIELD: opening global file: pickup.0000072000
(PID.TID 0000.0001) READ_MFLDS_3D_RL: read field: "Vvel    ", #   3 in fldList, rec=   3
(PID.TID 0000.0001)  MDS_READ_FIELD: opening global file: pickup.0000072000
(PID.TID 0000.0001) READ_MFLDS_3D_RL: read field: "Theta   ", #   5 in fldList, rec=   5
(PID.TID 0000.0001)  MDS_READ_FIELD: opening global file: pickup.0000072000
(PID.TID 0000.0001) READ_MFLDS_3D_RL: read field: "Salt    ", #   7 in fldList, rec=   7
(PID.TID 0000.0001)  MDS_READ_FIELD: opening global file: pickup.0000072000
(PID.TID 0000.0001) READ_MFLDS_3D_RL: read field: "GuNm1   ", #   2 in fldList, rec=   2
(PID.TID 0000.0001)  MDS_READ_FIELD: opening global file: pickup.0000072000
(PID.TID 0000.0001) READ_MFLDS_3D_RL: read field: "GvNm1   ", #   4 in fldList, rec=   4
(PID.TID 0000.0001)  MDS_READ_FIELD: opening global file: pickup.0000072000
(PID.TID 0000.0001) READ_MFLDS_3D_RL: read field: "EtaN    ", #   9 in fldList, rec= 121
(PID.TID 0000.0001)  MDS_READ_FIELD: opening global file: pickup.0000072000
(PID.TID 0000.0001) READ_MFLDS_CHECK: - normal end ; reset MFLDS file-name: pickup.0000072000
(PID.TID 0000.0001)  MDS_READ_FIELD: opening global file: trenberth_taux.bin
(PID.TID 0000.0001)  MDS_READ_FIELD: opening global file: trenberth_tauy.bin
(PID.TID 0000.0001)  MDS_READ_FIELD: opening global file: shiQnet_cs32.bin
(PID.TID 0000.0001)  MDS_READ_FIELD: opening global file: shiEmPR_cs32.bin
(PID.TID 0000.0001)  MDS_READ_FIELD: opening global file: lev_surfT_cs_12m.bin
(PID.TID 0000.0001)  MDS_READ_FIELD: opening global file: lev_surfS_cs_12m.bin
(PID.TID 0000.0001)  MDS_READ_FIELD: opening file: xx_theta.0000000000.001.001.data
(PID.TID 0000.0001)  MDS_READ_FIELD: opening file: xx_theta.0000000000.002.001.data
(PID.TID 0000.0001)  MDS_READ_FIELD: opening file: xx_theta.0000000000.003.001.data
(PID.TID 0000.0001)  MDS_READ_FIELD: opening file: xx_theta.0000000000.004.001.data
(PID.TID 0000.0001)  MDS_READ_FIELD: opening file: xx_theta.0000000000.005.001.data
(PID.TID 0000.0001)  MDS_READ_FIELD: opening file: xx_theta.0000000000.006.001.data
(PID.TID 0000.0001)  MDS_READ_FIELD: opening file: xx_salt.0000000000.001.001.data
(PID.TID 0000.0001)  MDS_READ_FIELD: opening file: xx_salt.0000000000.002.001.data
(PID.TID 0000.0001)  MDS_READ_FIELD: opening file: xx_salt.0000000000.003.001.data
(PID.TID 0000.0001)  MDS_READ_FIELD: opening file: xx_salt.0000000000.004.001.data
(PID.TID 0000.0001)  MDS_READ_FIELD: opening file: xx_salt.0000000000.005.001.data
(PID.TID 0000.0001)  MDS_READ_FIELD: opening file: xx_salt.0000000000.006.001.data
(PID.TID 0000.0001)  MDS_READ_FIELD: opening file: xx_diffkr.0000000000.001.001.data
(PID.TID 0000.0001)  MDS_READ_FIELD: opening file: xx_diffkr.0000000000.002.001.data
(PID.TID 0000.0001)  MDS_READ_FIELD: opening file: xx_diffkr.0000000000.003.001.data
(PID.TID 0000.0001)  MDS_READ_FIELD: opening file: xx_diffkr.0000000000.004.001.data
(PID.TID 0000.0001)  MDS_READ_FIELD: opening file: xx_diffkr.0000000000.005.001.data
(PID.TID 0000.0001)  MDS_READ_FIELD: opening file: xx_diffkr.0000000000.006.001.data
(PID.TID 0000.0001) // =======================================================
(PID.TID 0000.0001) // Model current state
(PID.TID 0000.0001) // =======================================================
(PID.TID 0000.0001) 
S/R EXTERNAL_FIELDS_LOAD: Reading new data:   12    1     72000  6.220800000000E+09
(PID.TID 0000.0001)  MDS_READ_FIELD: opening global file: trenberth_taux.bin
(PID.TID 0000.0001)  MDS_READ_FIELD: opening global file: trenberth_taux.bin
(PID.TID 0000.0001)  MDS_READ_FIELD: opening global file: trenberth_tauy.bin
(PID.TID 0000.0001)  MDS_READ_FIELD: opening global file: trenberth_tauy.bin
(PID.TID 0000.0001)  MDS_READ_FIELD: opening global file: shiQnet_cs32.bin
(PID.TID 0000.0001)  MDS_READ_FIELD: opening global file: shiQnet_cs32.bin
(PID.TID 0000.0001)  MDS_READ_FIELD: opening global file: shiEmPR_cs32.bin
(PID.TID 0000.0001)  MDS_READ_FIELD: opening global file: shiEmPR_cs32.bin
(PID.TID 0000.0001)  MDS_READ_FIELD: opening global file: lev_surfT_cs_12m.bin
(PID.TID 0000.0001)  MDS_READ_FIELD: opening global file: lev_surfT_cs_12m.bin
(PID.TID 0000.0001)  MDS_READ_FIELD: opening global file: lev_surfS_cs_12m.bin
(PID.TID 0000.0001)  MDS_READ_FIELD: opening global file: lev_surfS_cs_12m.bin
(PID.TID 0000.0001)  MDS_READ_FIELD: opening file: xx_tauu.0000000000.001.001.data
(PID.TID 0000.0001)  MDS_READ_FIELD: opening file: xx_tauu.0000000000.002.001.data
(PID.TID 0000.0001)  MDS_READ_FIELD: opening file: xx_tauu.0000000000.003.001.data
(PID.TID 0000.0001)  MDS_READ_FIELD: opening file: xx_tauu.0000000000.004.001.data
(PID.TID 0000.0001)  MDS_READ_FIELD: opening file: xx_tauu.0000000000.005.001.data
(PID.TID 0000.0001)  MDS_READ_FIELD: opening file: xx_tauu.0000000000.006.001.data
(PID.TID 0000.0001)  MDS_READ_FIELD: opening file: xx_tauv.0000000000.001.001.data
(PID.TID 0000.0001)  MDS_READ_FIELD: opening file: xx_tauv.0000000000.002.001.data
(PID.TID 0000.0001)  MDS_READ_FIELD: opening file: xx_tauv.0000000000.003.001.data
(PID.TID 0000.0001)  MDS_READ_FIELD: opening file: xx_tauv.0000000000.004.001.data
(PID.TID 0000.0001)  MDS_READ_FIELD: opening file: xx_tauv.0000000000.005.001.data
(PID.TID 0000.0001)  MDS_READ_FIELD: opening file: xx_tauv.0000000000.006.001.data
(PID.TID 0000.0001)  MDS_READ_FIELD: opening file: xx_sfl.0000000000.001.001.data
(PID.TID 0000.0001)  MDS_READ_FIELD: opening file: xx_sfl.0000000000.002.001.data
(PID.TID 0000.0001)  MDS_READ_FIELD: opening file: xx_sfl.0000000000.003.001.data
(PID.TID 0000.0001)  MDS_READ_FIELD: opening file: xx_sfl.0000000000.004.001.data
(PID.TID 0000.0001)  MDS_READ_FIELD: opening file: xx_sfl.0000000000.005.001.data
(PID.TID 0000.0001)  MDS_READ_FIELD: opening file: xx_sfl.0000000000.006.001.data
(PID.TID 0000.0001)  MDS_READ_FIELD: opening file: xx_hfl.0000000000.001.001.data
(PID.TID 0000.0001)  MDS_READ_FIELD: opening file: xx_hfl.0000000000.002.001.data
(PID.TID 0000.0001)  MDS_READ_FIELD: opening file: xx_hfl.0000000000.003.001.data
(PID.TID 0000.0001)  MDS_READ_FIELD: opening file: xx_hfl.0000000000.004.001.data
(PID.TID 0000.0001)  MDS_READ_FIELD: opening file: xx_hfl.0000000000.005.001.data
(PID.TID 0000.0001)  MDS_READ_FIELD: opening file: xx_hfl.0000000000.006.001.data
 cg2d: Sum(rhs),rhsMax =  -9.54969436861575E-12  4.28505602916984E+00
 cg2d: Sum(rhs),rhsMax =  -4.21033476527555E-06  4.27911284971512E+00
 cg2d: Sum(rhs),rhsMax =  -8.11980820003555E-06  4.27329379345002E+00
 cg2d: Sum(rhs),rhsMax =  -1.18780505147242E-05  4.26739301095579E+00
 cg2d: Sum(rhs),rhsMax =  -1.52654941985020E-05  4.26144702310127E+00
 cg2d: Sum(rhs),rhsMax =  -1.79972758758140E-05  4.25555457548449E+00
 cg2d: Sum(rhs),rhsMax =  -2.08017277714134E-05  4.24977589794773E+00
 cg2d: Sum(rhs),rhsMax =  -2.30297376333510E-05  4.24417316189114E+00
 cg2d: Sum(rhs),rhsMax =  -2.54249810041074E-05  4.23881439661031E+00
 cg2d: Sum(rhs),rhsMax =  -2.69903625280676E-05  4.23376857365364E+00
 cg2d: Sum(rhs),rhsMax =  -2.89045212014116E-05  4.22909355667992E+00
 cg2d: Sum(rhs),rhsMax =  -3.15955158782799E-05  4.22483241039873E+00
 cg2d: Sum(rhs),rhsMax =  -3.51718837805493E-05  4.22101138665949E+00
 cg2d: Sum(rhs),rhsMax =  -3.94075708811670E-05  4.21764140577229E+00
 cg2d: Sum(rhs),rhsMax =  -4.22080992734664E-05  4.21471930943461E+00
S/R EXTERNAL_FIELDS_LOAD: Reading new data:    1    2     72015  6.222096000000E+09
(PID.TID 0000.0001)  MDS_READ_FIELD: opening global file: trenberth_taux.bin
(PID.TID 0000.0001)  MDS_READ_FIELD: opening global file: trenberth_taux.bin
(PID.TID 0000.0001)  MDS_READ_FIELD: opening global file: trenberth_tauy.bin
(PID.TID 0000.0001)  MDS_READ_FIELD: opening global file: trenberth_tauy.bin
(PID.TID 0000.0001)  MDS_READ_FIELD: opening global file: shiQnet_cs32.bin
(PID.TID 0000.0001)  MDS_READ_FIELD: opening global file: shiQnet_cs32.bin
(PID.TID 0000.0001)  MDS_READ_FIELD: opening global file: shiEmPR_cs32.bin
(PID.TID 0000.0001)  MDS_READ_FIELD: opening global file: shiEmPR_cs32.bin
(PID.TID 0000.0001)  MDS_READ_FIELD: opening global file: lev_surfT_cs_12m.bin
(PID.TID 0000.0001)  MDS_READ_FIELD: opening global file: lev_surfT_cs_12m.bin
(PID.TID 0000.0001)  MDS_READ_FIELD: opening global file: lev_surfS_cs_12m.bin
(PID.TID 0000.0001)  MDS_READ_FIELD: opening global file: lev_surfS_cs_12m.bin
 cg2d: Sum(rhs),rhsMax =  -4.27380897463081E-05  4.21222997259769E+00
 cg2d: Sum(rhs),rhsMax =  -4.17900603508770E-05  4.21005385646484E+00
 cg2d: Sum(rhs),rhsMax =  -4.00893781034029E-05  4.20835829177646E+00
 cg2d: Sum(rhs),rhsMax =  -3.79547387012735E-05  4.20701953635772E+00
 cg2d: Sum(rhs),rhsMax =  -3.56217747423671E-05  4.20598324220973E+00
(PID.TID 0000.0001) %CHECKPOINT     72020 ckptB
(PID.TID 0000.0001)  MDS_READ_FIELD: opening global file: lev_T_cs_15k.bin
 --> objf_test(bi,bj)   =  0.213611533929127E+05
 --> objf_tracer(bi,bj) =  0.000000000000000E+00
 --> objf_atl(bi,bj)    =  0.000000000000000E+00
 --> objf_test(bi,bj)   =  0.114876404781289E+05
 --> objf_tracer(bi,bj) =  0.000000000000000E+00
 --> objf_atl(bi,bj)    =  0.000000000000000E+00
 --> objf_test(bi,bj)   =  0.181712047576314E+05
 --> objf_tracer(bi,bj) =  0.000000000000000E+00
 --> objf_atl(bi,bj)    =  0.000000000000000E+00
 --> objf_test(bi,bj)   =  0.231640448908777E+05
 --> objf_tracer(bi,bj) =  0.000000000000000E+00
 --> objf_atl(bi,bj)    =  0.000000000000000E+00
 --> objf_test(bi,bj)   =  0.145315986997331E+05
 --> objf_tracer(bi,bj) =  0.000000000000000E+00
 --> objf_atl(bi,bj)    =  0.000000000000000E+00
 --> objf_test(bi,bj)   =  0.124822624498024E+05
 --> objf_tracer(bi,bj) =  0.000000000000000E+00
 --> objf_atl(bi,bj)    =  0.000000000000000E+00
  local fc =  0.101197904669086E+06
 global fc =  0.101197904669086E+06
 ph-check fcpertplus =   101197.905
(PID.TID 0000.0001)  MDS_READ_FIELD: opening file: xx_theta.0000000000.001.001.data
(PID.TID 0000.0001)  MDS_READ_FIELD: opening file: xx_theta.0000000000.002.001.data
(PID.TID 0000.0001)  MDS_READ_FIELD: opening file: xx_theta.0000000000.003.001.data
(PID.TID 0000.0001)  MDS_READ_FIELD: opening file: xx_theta.0000000000.004.001.data
(PID.TID 0000.0001)  MDS_READ_FIELD: opening file: xx_theta.0000000000.005.001.data
(PID.TID 0000.0001)  MDS_READ_FIELD: opening file: xx_theta.0000000000.006.001.data
 ph-check fcpertminus =   101197.871
(PID.TID 0000.0001)  MDS_READ_FIELD: opening file: xx_theta.0000000000.001.001.data
(PID.TID 0000.0001)  MDS_READ_FIELD: opening file: xx_theta.0000000000.002.001.data
(PID.TID 0000.0001)  MDS_READ_FIELD: opening file: xx_theta.0000000000.003.001.data
(PID.TID 0000.0001)  MDS_READ_FIELD: opening file: xx_theta.0000000000.004.001.data
(PID.TID 0000.0001)  MDS_READ_FIELD: opening file: xx_theta.0000000000.005.001.data
(PID.TID 0000.0001)  MDS_READ_FIELD: opening file: xx_theta.0000000000.006.001.data
(PID.TID 0000.0001)  MDS_READ_FIELD: opening global file: bathy_Hmin50.bin
(PID.TID 0000.0001) // =======================================================
(PID.TID 0000.0001) // Field Model R_low (ini_masks_etc) at iteration          1
(PID.TID 0000.0001) // CMIN =         -5.200000000000000E+03
(PID.TID 0000.0001) // CMAX =         -5.000000000000000E+01
(PID.TID 0000.0001) // CINT =          1.907407407407407E+02
(PID.TID 0000.0001) // SYMBOLS (CMIN->CMAX): -abcdefghijklmnopqrstuvwxyz+
(PID.TID 0000.0001) //                  0.0: .
(PID.TID 0000.0001) // RANGE I (Lo:Hi:Step):(  -3: 196:   1)
(PID.TID 0000.0001) // RANGE J (Lo:Hi:Step):(  36:  -3:  -1)
(PID.TID 0000.0001) // RANGE K (Lo:Hi:Step):(   1:   1:   1)
(PID.TID 0000.0001) // =======================================================
(PID.TID 0000.0001) K =   1
(PID.TID 0000.0001) //                I=6       I=16      I=26      I=36      I=38      I=48      I=58      I=68      I=70      I=80      I=90      I=100     I=102     I=112     I=122     I=132     I=134     I=144     I=154     I=164     I=166     I=176     I=186     I=196
(PID.TID 0000.0001) // |--J--|321012345|789012345|789012345|789012345|901234567|901234567|901234567|901234567|123456789|123456789|123456789|123456789|345678901|345678901|345678901|345678901|567890123|567890123|567890123|567890123|789012345|789012345|789012345|789012345|
(PID.TID 0000.0001) //     36 cbbc-ddcbcdehkhhmn..++..................................................okn.skko--a-fc----bba-cp.............tfeecccbbdeecccbbdeddedcdcccdddcddffggghiggfffdeeffijlihjlica---a--cgffel.+edfgeedflcbahgfllcbahgfllfhdffhkfffca-aady...llnabdoa--a
(PID.TID 0000.0001) //     35 dcac--cbbeefjkfefw+..........zpu........................................kqnzrqqk--b-da----bbbbfu..............fdddccaadcddccaadcdddcbbbbcdddcccdffffghgffffddefflligfiljfba---aafddehy...pwvlhfffcbagfccfcbagfcceeffffjlkjgaa---bfvheeln-aesaaab
(PID.TID 0000.0001) //     34 d--ba-abcehjnldcclz+........spps.......................................vkqn+xnnncabbcbba--aabfu+..............hcbaaaaaccbaaaaaccdccbaaabbddddccdffffghfeeeeedeffjiffefilhfcaaaacgceei.......zomggfcaecbbgfcaecbbccddefilihecbaacbaajfega-aesfeed
(PID.TID 0000.0001) //     33 --abbbccceiomkfdbbc+.......+s..........................................xsrxzz+z.fdcddb-----adu+...............hcbaa--accbaa--accddba--bbbddddccdfffhhgfeeddcceddhfeddfgikhfffdfgccffw........zohhgebbaaahgebbaaaaaccdfhlhfefdcccaabjefbaaafoosso
(PID.TID 0000.0001) //     32 --bddefhhkqqlgfaakqz..v.+..+.........................................++..u+....zigfdba----adu+................kdcaaa-acccaaa-accdcb---bbbcdddddefffggfeeedcccccbccbbdcdfgghhiihcbeiw.........+ynjgebaaaajgebaaaa-aacccfikkhecccbbbaaabaadfklnqpp
(PID.TID 0000.0001) //     31 abbcffijnpnqneaaat..umrr+s.z.........................................+++++.ztsvdlifeb--dfdfu+................+lkdca--abcdca--abcccb---bbbbddddeffflhfeeeecbbbbaaba-abbacbcdceffbbfw+..........++ujfbaaa-ujfbaaa----aacffiljgfffcca--adfikkiihhhf
(PID.TID 0000.0001) //     30 --adgillkkkifcadcx.ymmqzqikvnnps.....................................+++++wmegt-jlifcacdlqx+++...............mligea---abgea---abbbb---abaaddddeedkmeddefdbbbaaaabc---b--aaaaabaabm..............+viba---+viba-------acdefinmlgiieb-chnnnmlmlgffc
(PID.TID 0000.0001) //     29 --cfiljigfjd--efdozy...+ximpnnuz......................................+++yqddhp-iljhcbbchz+......++.........+mmhffc----affc----aaba------acdddcbcineddgdbaaa----cdd--a------aa-bfz...............+qe---a.+qe---aa---aedeegknmlgiigcdfhpokkimlfdb
(PID.TID 0000.0001) //     28 -abgkhfcccea-bdei........t............................................++zwgfcfk-gknhccbbhwwy.....+++........+njfeed-----eed-----aa-------abddcabcnfddegcaaa-----hlf------------dk+................+ja---..+ja------bffdddehfd--bedaacfhpnligiihd
(PID.TID 0000.0001) //     27 -acghfbaaaa-achmy......................+.......+++....................++vnbbbclefkpkeeecflmqxy....++........+lhfeecc----eecc------------aaadcbabcfhddccba-------zqd-----------irw.................++e---..++e-----mhmijddda--------ahhfiokhedegg
(PID.TID 0000.0001) //     26 -adhfca-----bfiv.......................+.......++sy...................+tq-fdbblcjknqiheddefhiksz++++........zkhfdccb----dccb------------aabdcaaaacfddbca-------a+xfa-abb-----vvv...................+wa--...+wa---mlmkijhc----------cjjffiheb-aad
(PID.TID 0000.0001) //     25 -achfa------ch+..................w.......w.......njo+................+x-----bcgidiqqojfefiiiijmy.++.........zkhfdbaa----dbaa-------daa---acccaaaacccca--------ac.+udaabbb----tei...................++qde...++qdeqnghiljcaaaaidaa----beedeeca--bb
(PID.TID 0000.0001) //     24 aaeifa--acbcei...................w.......w.......likn+.....++.....++znpa----bbdi-fnlmnjhinlksssw............qhfeca------ca--------addc--aeffaaaaaaccb-a----a--bd.++udbbaba---ven....................++xy....++xywnfgllcbbabegkecba----ddddcaacdc
(PID.TID 0000.0001) //     23 abfida-aabchjk...................zz......zz.....nhhijz....tqq.....+ujgzgd---abci-cegklkkknols..xuu..........zgfdba------ba--------bcd---affaaadffabbb-----aa-bcc.+.+ufb-----l.gx...........s.........++z.....++zzkfilfccccoz..ulkcd---bccnfddddd
(PID.TID 0000.0001) //     22 -afhfaa---bfgi....................zz..rn..zz..rnjffggm...nlmn+....+sffzya--aabcieaaffdfhimrmp...yuu.++.......zudba------ba--------adc---dda-adffe-aa--------aaac....+ufc-baaqvhh..........dcfeeh......++......++zggqvifefhz......zobbaccfwuffeee
(PID.TID 0000.0001) //     21 babcgca----abe.....................ysstl...ysstlgeeeeoz..ijklt+....lfjzzf---adfcfdaadcehllotq....yy+++zzs.....+zcba-----cba-------cdd--aaa----df------------aaac.....+upjdcy.vohq.......+idcdfeeefwz....efwz....+hhn.vklox.........gdccfjwrigffh
(PID.TID 0000.0001) //     20 fbbbcgfcaa-aae+.......................lc......lcgfdddhq.+hiilnz++.+oquxyz--adgkfdcaabcfmtooyxz......+yuiiy....++gb------gb--------ddcca-a-----acbaa------bbaaaab........ywxy.lulo.lv...kcdgddffefffilyx+fffilyx+fffk.+xyyy.........mgeimvskjklll
(PID.TID 0000.0001) //     19 zmfeccdghfeegcbt......................aa......aafifccgnrzgghjry.+++sr+lq.--edfkkoxtkblwnnsp.vv......skhggt...+++t-------t---------bdaf---------edd-------adlaaaa+..........vnhzy.tllqiedccdhggfggffiiggfgffiiggfcbdgy..yz..........xigqophijkkii
(PID.TID 0000.0001) //     18 ..wifedfkhfegbbcivlqfoz..............jaa.....jaacfihggokeeffgt..++++..hhlfdeddkez..qcz+.zwxtsttz..ysrkhot++++++zig------ig--------b--f---------egqqqaa----frb---+........+kkrhw.vqmlnieddcdehgggffgigedbffgigedbaaceiy.............zilrddefikkhh
(PID.TID 0000.0001) //     17 ..+wfeefikhgcbbccaaacgn.............icaa....icaaccfihfoedddeedy..++...nnqwgfeekeyy.z++..+zsjjllllljllpjos+++.+zhhi-----ehi-----e-----ea--------foqqoqqo--hlwgea-.........+nk+..xiioonhfefddegihhghigfdbaghigfdbaaabdgx..............nheddefiklhg
(PID.TID 0000.0001) //     16 ....wiheddeccdfhfbabdfl............jdbad...jdbaddddgifkccccdccd+.++..++ynvz.tkkq.mu....++zyslllllkhggkmpy++...ihhi-----ehi-----ea---feb-----a-acnoohfghknvmwnuca..........qhu..hhhkojgffgeefghihhiieedbahiieedbaaabcdy..............ygddeghiljgf
(PID.TID 0000.0001) //     15 ......ylea--acfihebcbbes..........sfcbbn..sfcbbngfffigcaaabdbcac+.+++++zgmpx...y.mm....++..zslwz.yhhhhnz+++...rhgc----abgc----ab----ige----acaaalllkddfiy..yswxb..........thk.xgghiligfghfefhhhhiiheedcdiiheedcdbbabdmz.............zfdeghikkifd
(PID.TID 0000.0001) //     14 ........c---acgkhdcc--di..........ofddch..ofddchohffikaaaaabaaa-aw+.+ysnggox++...qrv..........yzzzzrjil+++....qhgd-----agd-----a-----i---cccdeabkklldinqssy..xxv...........+y.uhghikihgfghefgihhhgeeeeedhgeeeeeddbaadhw.............nedeghjjhfed
(PID.TID 0000.0001) //     13 .......+b----cfkhec---afz.........nhfdff..nhfdffholghkaaaaaba-a---flkkuswyy++++y+zr...........zzzzz++ry++......yd-------d--------------aeecdeidfkkqnqlmqquukqqmf..............iihiijjhfefgefhjihiffgggffiffgggffecaabelx...........zjecehijhfecc
(PID.TID 0000.0001) //     12 .......ec----chjhec---ag..........skiqdd..skiqddeiiiifaaabae--a---dd--iu+++.+++sxq++..........+z+++++.+++....++.s-------s------------a-ceccdejhlllkqlkklssiccdee.............wjkkkjjjigeefffgjiiighiiihhighiiihhhdaabdffghtxx......mfccehjiffdb-
(PID.TID 0000.0001) //     11 ......pdca--achlheba--ai..........nkn.fd..nkn.fdemijidaaaabi-------a--q+....++.ziis...........+++++..........+yyza----b-za----b-----a--ccccddkhieekkossssfbbbbcd............njjijhhihijhgggggjjjjijkkkkjjijkkkkjjhcaacddeegpy.....xfdccdhjgfdda-
(PID.TID 0000.0001) //     10 ......wfdb--achlhea---an.........uos..dc.uos..dcemikkfdcaabi-------equ+.........mk...........................zyvuq----ccuq----cc----a---dcfhkopqjeissrnpfbbcccde..........zslihhigghgijjihhhhkllkkkkkkjkkkkkkkjkkkedccdeeeeipz..zwhccbcdhgfddcam
(PID.TID 0000.0001) //      9 ......vgec---bfikca--cjl+.......+nnv.+cc+nnv.+ccffhkkiddaadha-----as++..........pvz++........................zxuuk------uk------a---a----djmqrrnlllsoiddcccccdjf.........+zjijhfgfggffhjkkkiillljihhghgijihhghgihighdeeffgghimnnjgecbbcdgfeccbas
(PID.TID 0000.0001) //      8 .....zleca---afjfca--hdfz.......vkky.jcevkky.jceddefijffdddhb--a-afv............nn..ss.........................+yku-----yku--------------ejnpqqnninnritqdccchkmf+.......wihgghgeffffeefhijkjkljiigeeffefigeeffefffhjhhikkklljklmhffeeeggfdcbaay.
(PID.TID 0000.0001) //      7 ...+zohec--abcfkhecbchbdx.......qiht.faaqiht.faaaabdgijgfededcdcb-f+............nn...pz.........................+zu-----+zu--------------edefqgqddsz+......+yuddmm+....tiggfggfeeeefeeefiiiijkiihhedddddhheddddddddjjllliijhfkmmkkjjhijgdcba--q.
(PID.TID 0000.0001) //      6 ..+yomfddcaabefkifdchaadt......uqdeisc--qdeisc----dfefgifffkklldc--v............up...pp.........................v.x-----v.x---------a----fbbpqgzenx+........zdbcmllkhhfffffffgfeeeeeeeefhhhhijihhffddcbbhffddcbbbbdhhiihedddb-cfhhhjjjieca----+.
(PID.TID 0000.0001) //      5 ..+nhgffkghccfhkhffgdaackz....uoibcimlaaibcimlaaacfbddfjjhijeehf-a-c............zs...su.........................qk.yi---qk.yi-------gha-fjddqs+xkrz.........q-bchikdccdeeeeeeedddedddddgghhhhjhhgffcbbaagffcbbaaaaddfegecca----dfeefhfgdb-----+.
(PID.TID 0000.0001) //      4 .+ujhgfllfhdffhkfffca-aady...llnabdopfcbabdopfcbdgdbcdehlihgfddc--ms............................................okn.zd--okn.zd---eciiiicfkeeqy.ysz..........n-aafgdcbbdeddedcdcccdddcddffggghiggfffdbaa-fffdbaa---acdcccba--abvfedeffdcca----b+.
(PID.TID 0000.0001) //      3 +vjggfcceeffffjlkjgaa---bfvheeln-aesphfd-aesphfdhgabddeflihhgfecbaaayq+++++.....................................kqnz.vtpkqnz.vtpkllgdccfkkkkk..++..........+g---fecaaadcdddcbbbbcdddcccdffffghgffffdcaa-fffdcaa----abcaaaa-acxxmecdjmdbba----r+.
(PID.TID 0000.0001) //      2 qifeecbbccddefilihecbaacbaajfega-aesqhff-aesqhffiea-cdeflkkljifeddcba---bry+...................................vkqn+.sghkqn+.sghfcbcbbbdgfdek.++++.........+l---caaaaaccdccbaaabbddddccdffffghfeeeeecba-eeeecba------baaaa-euwxqdbcdkud-----sy+.
(PID.TID 0000.0001) //      1 ebbbbaaaaaccdfhlhfefdcccaabjefbaaafonhglaafonhglid--adfgkkkklkhffddca-----s++++................................xsrxz.tedsrxz.tedcbbbbaaadddet.++++.........+l------a-accddba--bbbddddccdfffhhgfeeddccba-eddccba-------aaaabgns.qcbcchyzqngll++..
(PID.TID 0000.0001) //      0 -aaaaaaa-aacccfikkhecccbbbaaabaadfkllilmdfkllilmgebaadfijjiiikjhffdcba-----lllgn.............................++..u+..zmd.u+..zmdfbd---a-aeef.xx+..........+++s-------accdcb---bbbcdddddefffggfeeedcccbbaedcccbba----aa--alrwwy.kcbccc+...++++...
(PID.TID 0000.0001) //     -1 --aaaaa----aacffiljgfffcca--adfikkiikimikkiikimiiheccfurkiffhijjigfecb-----l----.............................+++++.z+.wq++.z+.wqgbf-------dgzpoy+........+ys+yrb--aa-abcccb---bbbbddddeffflhfeeeecbbcbbaecbbcbbaa----a--bdflm.yuibbcc.......+...
(PID.TID 0000.0001) //     -2 --aaa-------acdefinmlgiieb-chnnnmlmlfklkmlmlfklklkhednwwsheeghhijjgfdca----g---a.............................+++++wmu++y++wmu++ywn--------fwvmgy+........+r-.+++-abc--abbbb---abaaddddeedkmeddefdbbbdcbadbbbdcbaa-------ba-hv.susfbcc.......+...
(PID.TID 0000.0001) //     -3 a--a---aa---aedeegknmlgiigcdfhpokkimdkmkkkimdkmknoiedcfjvpddegghhhhgfdcbaa-n---a..............................+++yqd.++++yqd.+++zvq--dafz.lqnggw+........+b-....abcc---aaba------acdddcbcineddgdbaaaeedbbaaaeedbaa----------nysqssfcd...........
(PID.TID 0000.0001) // =======================================================
(PID.TID 0000.0001) // END OF FIELD                                          =
(PID.TID 0000.0001) // =======================================================
(PID.TID 0000.0001) 
(PID.TID 0000.0001) // =======================================================
(PID.TID 0000.0001) // Field Model Ro_surf (ini_masks_etc) at iteration          1
(PID.TID 0000.0001) // CMIN =         -7.105427357601002E-15
(PID.TID 0000.0001) // CMAX =         -7.105427357601002E-15
(PID.TID 0000.0001) // CINT =          0.000000000000000E+00
(PID.TID 0000.0001) // SYMBOLS (CMIN->CMAX): -abcdefghijklmnopqrstuvwxyz+
(PID.TID 0000.0001) //                  0.0: .
(PID.TID 0000.0001) // RANGE I (Lo:Hi:Step):(  -3: 196:   1)
(PID.TID 0000.0001) // RANGE J (Lo:Hi:Step):(  36:  -3:  -1)
(PID.TID 0000.0001) // RANGE K (Lo:Hi:Step):(   1:   1:   1)
(PID.TID 0000.0001) // =======================================================
(PID.TID 0000.0001) // =======================================================
(PID.TID 0000.0001) // END OF FIELD                                          =
(PID.TID 0000.0001) // =======================================================
(PID.TID 0000.0001) 
(PID.TID 0000.0001) // =======================================================
(PID.TID 0000.0001) // Field hFacC at iteration          1
(PID.TID 0000.0001) // CMIN =          1.000000000000000E+00
(PID.TID 0000.0001) // CMAX =          1.000000000000000E+00
(PID.TID 0000.0001) // CINT =          0.000000000000000E+00
(PID.TID 0000.0001) // SYMBOLS (CMIN->CMAX): -abcdefghijklmnopqrstuvwxyz+
(PID.TID 0000.0001) //                  0.0: .
(PID.TID 0000.0001) // RANGE I (Lo:Hi:Step):(  -3: 196:   1)
(PID.TID 0000.0001) // RANGE J (Lo:Hi:Step):(  36:  -3:  -1)
(PID.TID 0000.0001) // RANGE K (Lo:Hi:Step):(   1:   1:   1)
(PID.TID 0000.0001) // =======================================================
(PID.TID 0000.0001) // =======================================================
(PID.TID 0000.0001) // END OF FIELD                                          =
(PID.TID 0000.0001) // =======================================================
(PID.TID 0000.0001) 
(PID.TID 0000.0001) // =======================================================
(PID.TID 0000.0001) // Field hFacW at iteration          1
(PID.TID 0000.0001) // CMIN =          1.000000000000000E+00
(PID.TID 0000.0001) // CMAX =          1.000000000000000E+00
(PID.TID 0000.0001) // CINT =          0.000000000000000E+00
(PID.TID 0000.0001) // SYMBOLS (CMIN->CMAX): -abcdefghijklmnopqrstuvwxyz+
(PID.TID 0000.0001) //                  0.0: .
(PID.TID 0000.0001) // RANGE I (Lo:Hi:Step):(  -3: 196:   1)
(PID.TID 0000.0001) // RANGE J (Lo:Hi:Step):(  36:  -3:  -1)
(PID.TID 0000.0001) // RANGE K (Lo:Hi:Step):(   1:   1:   1)
(PID.TID 0000.0001) // =======================================================
(PID.TID 0000.0001) // =======================================================
(PID.TID 0000.0001) // END OF FIELD                                          =
(PID.TID 0000.0001) // =======================================================
(PID.TID 0000.0001) 
(PID.TID 0000.0001) // =======================================================
(PID.TID 0000.0001) // Field hFacS at iteration          1
(PID.TID 0000.0001) // CMIN =          1.000000000000000E+00
(PID.TID 0000.0001) // CMAX =          1.000000000000000E+00
(PID.TID 0000.0001) // CINT =          0.000000000000000E+00
(PID.TID 0000.0001) // SYMBOLS (CMIN->CMAX): -abcdefghijklmnopqrstuvwxyz+
(PID.TID 0000.0001) //                  0.0: .
(PID.TID 0000.0001) // RANGE I (Lo:Hi:Step):(  -3: 196:   1)
(PID.TID 0000.0001) // RANGE J (Lo:Hi:Step):(  36:  -3:  -1)
(PID.TID 0000.0001) // RANGE K (Lo:Hi:Step):(   1:   1:   1)
(PID.TID 0000.0001) // =======================================================
(PID.TID 0000.0001) // =======================================================
(PID.TID 0000.0001) // END OF FIELD                                          =
(PID.TID 0000.0001) // =======================================================
(PID.TID 0000.0001) 
(PID.TID 0000.0001) %MON ad_advcflfCori_max           =   1.4535016908525E-04
(PID.TID 0000.0001) %MON ad_advcflfCori_min           =  -1.4535016908525E-04
(PID.TID 0000.0001) %MON ad_advcflfCori_mean          =   0.0000000000000E+00
(PID.TID 0000.0001) %MON ad_advcflfCori_sd            =   8.3972192788621E-05
(PID.TID 0000.0001) %MON ad_advcflfCoriG_max          =   1.4544410433286E-04
(PID.TID 0000.0001) %MON ad_advcflfCoriG_min          =  -1.4544410433286E-04
(PID.TID 0000.0001) %MON ad_advcflfCoriG_mean         =   0.0000000000000E+00
(PID.TID 0000.0001) %MON ad_advcflfCoriG_sd           =   8.3972192788621E-05
(PID.TID 0000.0001) %MON ad_advcflfCoriCos_max        =   1.4540341538469E-04
(PID.TID 0000.0001) %MON ad_advcflfCoriCos_min        =   5.2264550201501E-06
(PID.TID 0000.0001) %MON ad_advcflfCoriCos_mean       =   1.1482595466044E-04
(PID.TID 0000.0001) %MON ad_advcflfCoriCos_sd         =   3.0292878037194E-05
(PID.TID 0000.0001) INI_CG2D: CG2D normalisation factor =  1.9156564154949553E-04
(PID.TID 0000.0001) INI_CG2D: cg2dTolerance = 5.809016360175293E-07 (Area=3.6388673751E+14)
(PID.TID 0000.0001) 
(PID.TID 0000.0001)  MDS_READ_META: opening file: pickup.0000072000.meta
(PID.TID 0000.0001)  nRecords = 123 ; filePrec =  64 ; fileIter =     72000
(PID.TID 0000.0001)     nDims =   2 , dims:
(PID.TID 0000.0001)    1: 192   1 192
(PID.TID 0000.0001)    2:  32   1  32
(PID.TID 0000.0001)     nFlds =  11 , nFl3D =   8 , fields:
(PID.TID 0000.0001)  >Uvel    < >GuNm1   < >Vvel    < >GvNm1   < >Theta   < >GtNm1   < >Salt    < >GsNm1   < >EtaN    < >dEtaHdt < >EtaH    <
(PID.TID 0000.0001)   nTimRec =   0 , timeList:
(PID.TID 0000.0001) READ_MFLDS_3D_RL: read field: "Uvel    ", #   1 in fldList, rec=   1
(PID.TID 0000.0001)  MDS_READ_FIELD: opening global file: pickup.0000072000
(PID.TID 0000.0001) READ_MFLDS_3D_RL: read field: "Vvel    ", #   3 in fldList, rec=   3
(PID.TID 0000.0001)  MDS_READ_FIELD: opening global file: pickup.0000072000
(PID.TID 0000.0001) READ_MFLDS_3D_RL: read field: "Theta   ", #   5 in fldList, rec=   5
(PID.TID 0000.0001)  MDS_READ_FIELD: opening global file: pickup.0000072000
(PID.TID 0000.0001) READ_MFLDS_3D_RL: read field: "Salt    ", #   7 in fldList, rec=   7
(PID.TID 0000.0001)  MDS_READ_FIELD: opening global file: pickup.0000072000
(PID.TID 0000.0001) READ_MFLDS_3D_RL: read field: "GuNm1   ", #   2 in fldList, rec=   2
(PID.TID 0000.0001)  MDS_READ_FIELD: opening global file: pickup.0000072000
(PID.TID 0000.0001) READ_MFLDS_3D_RL: read field: "GvNm1   ", #   4 in fldList, rec=   4
(PID.TID 0000.0001)  MDS_READ_FIELD: opening global file: pickup.0000072000
(PID.TID 0000.0001) READ_MFLDS_3D_RL: read field: "EtaN    ", #   9 in fldList, rec= 121
(PID.TID 0000.0001)  MDS_READ_FIELD: opening global file: pickup.0000072000
(PID.TID 0000.0001) READ_MFLDS_CHECK: - normal end ; reset MFLDS file-name: pickup.0000072000
(PID.TID 0000.0001)  MDS_READ_FIELD: opening global file: trenberth_taux.bin
(PID.TID 0000.0001)  MDS_READ_FIELD: opening global file: trenberth_tauy.bin
(PID.TID 0000.0001)  MDS_READ_FIELD: opening global file: shiQnet_cs32.bin
(PID.TID 0000.0001)  MDS_READ_FIELD: opening global file: shiEmPR_cs32.bin
(PID.TID 0000.0001)  MDS_READ_FIELD: opening global file: lev_surfT_cs_12m.bin
(PID.TID 0000.0001)  MDS_READ_FIELD: opening global file: lev_surfS_cs_12m.bin
(PID.TID 0000.0001)  MDS_READ_FIELD: opening file: xx_theta.0000000000.001.001.data
(PID.TID 0000.0001)  MDS_READ_FIELD: opening file: xx_theta.0000000000.002.001.data
(PID.TID 0000.0001)  MDS_READ_FIELD: opening file: xx_theta.0000000000.003.001.data
(PID.TID 0000.0001)  MDS_READ_FIELD: opening file: xx_theta.0000000000.004.001.data
(PID.TID 0000.0001)  MDS_READ_FIELD: opening file: xx_theta.0000000000.005.001.data
(PID.TID 0000.0001)  MDS_READ_FIELD: opening file: xx_theta.0000000000.006.001.data
(PID.TID 0000.0001)  MDS_READ_FIELD: opening file: xx_salt.0000000000.001.001.data
(PID.TID 0000.0001)  MDS_READ_FIELD: opening file: xx_salt.0000000000.002.001.data
(PID.TID 0000.0001)  MDS_READ_FIELD: opening file: xx_salt.0000000000.003.001.data
(PID.TID 0000.0001)  MDS_READ_FIELD: opening file: xx_salt.0000000000.004.001.data
(PID.TID 0000.0001)  MDS_READ_FIELD: opening file: xx_salt.0000000000.005.001.data
(PID.TID 0000.0001)  MDS_READ_FIELD: opening file: xx_salt.0000000000.006.001.data
(PID.TID 0000.0001)  MDS_READ_FIELD: opening file: xx_diffkr.0000000000.001.001.data
(PID.TID 0000.0001)  MDS_READ_FIELD: opening file: xx_diffkr.0000000000.002.001.data
(PID.TID 0000.0001)  MDS_READ_FIELD: opening file: xx_diffkr.0000000000.003.001.data
(PID.TID 0000.0001)  MDS_READ_FIELD: opening file: xx_diffkr.0000000000.004.001.data
(PID.TID 0000.0001)  MDS_READ_FIELD: opening file: xx_diffkr.0000000000.005.001.data
(PID.TID 0000.0001)  MDS_READ_FIELD: opening file: xx_diffkr.0000000000.006.001.data
(PID.TID 0000.0001) // =======================================================
(PID.TID 0000.0001) // Model current state
(PID.TID 0000.0001) // =======================================================
(PID.TID 0000.0001) 
S/R EXTERNAL_FIELDS_LOAD: Reading new data:   12    1     72000  6.220800000000E+09
(PID.TID 0000.0001)  MDS_READ_FIELD: opening global file: trenberth_taux.bin
(PID.TID 0000.0001)  MDS_READ_FIELD: opening global file: trenberth_taux.bin
(PID.TID 0000.0001)  MDS_READ_FIELD: opening global file: trenberth_tauy.bin
(PID.TID 0000.0001)  MDS_READ_FIELD: opening global file: trenberth_tauy.bin
(PID.TID 0000.0001)  MDS_READ_FIELD: opening global file: shiQnet_cs32.bin
(PID.TID 0000.0001)  MDS_READ_FIELD: opening global file: shiQnet_cs32.bin
(PID.TID 0000.0001)  MDS_READ_FIELD: opening global file: shiEmPR_cs32.bin
(PID.TID 0000.0001)  MDS_READ_FIELD: opening global file: shiEmPR_cs32.bin
(PID.TID 0000.0001)  MDS_READ_FIELD: opening global file: lev_surfT_cs_12m.bin
(PID.TID 0000.0001)  MDS_READ_FIELD: opening global file: lev_surfT_cs_12m.bin
(PID.TID 0000.0001)  MDS_READ_FIELD: opening global file: lev_surfS_cs_12m.bin
(PID.TID 0000.0001)  MDS_READ_FIELD: opening global file: lev_surfS_cs_12m.bin
(PID.TID 0000.0001)  MDS_READ_FIELD: opening file: xx_tauu.0000000000.001.001.data
(PID.TID 0000.0001)  MDS_READ_FIELD: opening file: xx_tauu.0000000000.002.001.data
(PID.TID 0000.0001)  MDS_READ_FIELD: opening file: xx_tauu.0000000000.003.001.data
(PID.TID 0000.0001)  MDS_READ_FIELD: opening file: xx_tauu.0000000000.004.001.data
(PID.TID 0000.0001)  MDS_READ_FIELD: opening file: xx_tauu.0000000000.005.001.data
(PID.TID 0000.0001)  MDS_READ_FIELD: opening file: xx_tauu.0000000000.006.001.data
(PID.TID 0000.0001)  MDS_READ_FIELD: opening file: xx_tauv.0000000000.001.001.data
(PID.TID 0000.0001)  MDS_READ_FIELD: opening file: xx_tauv.0000000000.002.001.data
(PID.TID 0000.0001)  MDS_READ_FIELD: opening file: xx_tauv.0000000000.003.001.data
(PID.TID 0000.0001)  MDS_READ_FIELD: opening file: xx_tauv.0000000000.004.001.data
(PID.TID 0000.0001)  MDS_READ_FIELD: opening file: xx_tauv.0000000000.005.001.data
(PID.TID 0000.0001)  MDS_READ_FIELD: opening file: xx_tauv.0000000000.006.001.data
(PID.TID 0000.0001)  MDS_READ_FIELD: opening file: xx_sfl.0000000000.001.001.data
(PID.TID 0000.0001)  MDS_READ_FIELD: opening file: xx_sfl.0000000000.002.001.data
(PID.TID 0000.0001)  MDS_READ_FIELD: opening file: xx_sfl.0000000000.003.001.data
(PID.TID 0000.0001)  MDS_READ_FIELD: opening file: xx_sfl.0000000000.004.001.data
(PID.TID 0000.0001)  MDS_READ_FIELD: opening file: xx_sfl.0000000000.005.001.data
(PID.TID 0000.0001)  MDS_READ_FIELD: opening file: xx_sfl.0000000000.006.001.data
(PID.TID 0000.0001)  MDS_READ_FIELD: opening file: xx_hfl.0000000000.001.001.data
(PID.TID 0000.0001)  MDS_READ_FIELD: opening file: xx_hfl.0000000000.002.001.data
(PID.TID 0000.0001)  MDS_READ_FIELD: opening file: xx_hfl.0000000000.003.001.data
(PID.TID 0000.0001)  MDS_READ_FIELD: opening file: xx_hfl.0000000000.004.001.data
(PID.TID 0000.0001)  MDS_READ_FIELD: opening file: xx_hfl.0000000000.005.001.data
(PID.TID 0000.0001)  MDS_READ_FIELD: opening file: xx_hfl.0000000000.006.001.data
 cg2d: Sum(rhs),rhsMax =  -9.57811607804615E-12  4.28505602916984E+00
 cg2d: Sum(rhs),rhsMax =  -4.20946591361826E-06  4.27911284993487E+00
 cg2d: Sum(rhs),rhsMax =  -8.11873618999925E-06  4.27329379436633E+00
 cg2d: Sum(rhs),rhsMax =  -1.18769373216310E-05  4.26739301312244E+00
 cg2d: Sum(rhs),rhsMax =  -1.52644520028389E-05  4.26144702684649E+00
 cg2d: Sum(rhs),rhsMax =  -1.79963518291970E-05  4.25555458097250E+00
 cg2d: Sum(rhs),rhsMax =  -2.08008806907856E-05  4.24977590523862E+00
 cg2d: Sum(rhs),rhsMax =  -2.30289093678948E-05  4.24417317087618E+00
 cg2d: Sum(rhs),rhsMax =  -2.54241306265612E-05  4.23881440695571E+00
 cg2d: Sum(rhs),rhsMax =  -2.69895295730294E-05  4.23376858490796E+00
 cg2d: Sum(rhs),rhsMax =  -2.89037915024437E-05  4.22909356847060E+00
 cg2d: Sum(rhs),rhsMax =  -3.15949064599863E-05  4.22483242248170E+00
 cg2d: Sum(rhs),rhsMax =  -3.51713473207838E-05  4.22101139888615E+00
 cg2d: Sum(rhs),rhsMax =  -3.94072389156008E-05  4.21764141794096E+00
 cg2d: Sum(rhs),rhsMax =  -4.22096086936108E-05  4.21471932126460E+00
S/R EXTERNAL_FIELDS_LOAD: Reading new data:    1    2     72015  6.222096000000E+09
(PID.TID 0000.0001)  MDS_READ_FIELD: opening global file: trenberth_taux.bin
(PID.TID 0000.0001)  MDS_READ_FIELD: opening global file: trenberth_taux.bin
(PID.TID 0000.0001)  MDS_READ_FIELD: opening global file: trenberth_tauy.bin
(PID.TID 0000.0001)  MDS_READ_FIELD: opening global file: trenberth_tauy.bin
(PID.TID 0000.0001)  MDS_READ_FIELD: opening global file: shiQnet_cs32.bin
(PID.TID 0000.0001)  MDS_READ_FIELD: opening global file: shiQnet_cs32.bin
(PID.TID 0000.0001)  MDS_READ_FIELD: opening global file: shiEmPR_cs32.bin
(PID.TID 0000.0001)  MDS_READ_FIELD: opening global file: shiEmPR_cs32.bin
(PID.TID 0000.0001)  MDS_READ_FIELD: opening global file: lev_surfT_cs_12m.bin
(PID.TID 0000.0001)  MDS_READ_FIELD: opening global file: lev_surfT_cs_12m.bin
(PID.TID 0000.0001)  MDS_READ_FIELD: opening global file: lev_surfS_cs_12m.bin
(PID.TID 0000.0001)  MDS_READ_FIELD: opening global file: lev_surfS_cs_12m.bin
 cg2d: Sum(rhs),rhsMax =  -4.27390411061879E-05  4.21222998354434E+00
 cg2d: Sum(rhs),rhsMax =  -4.17908995871130E-05  4.21005386612569E+00
 cg2d: Sum(rhs),rhsMax =  -4.00901712680479E-05  4.20835829975996E+00
 cg2d: Sum(rhs),rhsMax =  -3.79555096401418E-05  4.20701954241995E+00
 cg2d: Sum(rhs),rhsMax =  -3.56225418727263E-05  4.20598324629270E+00
(PID.TID 0000.0001) %CHECKPOINT     72020 ckptA
(PID.TID 0000.0001)  MDS_READ_FIELD: opening global file: lev_T_cs_15k.bin
 --> objf_test(bi,bj)   =  0.213610922558828E+05
 --> objf_tracer(bi,bj) =  0.000000000000000E+00
 --> objf_atl(bi,bj)    =  0.000000000000000E+00
 --> objf_test(bi,bj)   =  0.114876404768599E+05
 --> objf_tracer(bi,bj) =  0.000000000000000E+00
 --> objf_atl(bi,bj)    =  0.000000000000000E+00
 --> objf_test(bi,bj)   =  0.181712047566247E+05
 --> objf_tracer(bi,bj) =  0.000000000000000E+00
 --> objf_atl(bi,bj)    =  0.000000000000000E+00
 --> objf_test(bi,bj)   =  0.231640448970833E+05
 --> objf_tracer(bi,bj) =  0.000000000000000E+00
 --> objf_atl(bi,bj)    =  0.000000000000000E+00
 --> objf_test(bi,bj)   =  0.145315984790646E+05
 --> objf_tracer(bi,bj) =  0.000000000000000E+00
 --> objf_atl(bi,bj)    =  0.000000000000000E+00
 --> objf_test(bi,bj)   =  0.124822562035200E+05
 --> objf_tracer(bi,bj) =  0.000000000000000E+00
 --> objf_atl(bi,bj)    =  0.000000000000000E+00
  local fc =  0.101197837069035E+06
 global fc =  0.101197837069035E+06
(PID.TID 0000.0001)  MDS_READ_FIELD: opening file: xx_theta.0000000000.001.001.data
(PID.TID 0000.0001)  MDS_READ_FIELD: opening file: xx_theta.0000000000.002.001.data
(PID.TID 0000.0001)  MDS_READ_FIELD: opening file: xx_theta.0000000000.003.001.data
(PID.TID 0000.0001)  MDS_READ_FIELD: opening file: xx_theta.0000000000.004.001.data
(PID.TID 0000.0001)  MDS_READ_FIELD: opening file: xx_theta.0000000000.005.001.data
(PID.TID 0000.0001)  MDS_READ_FIELD: opening file: xx_theta.0000000000.006.001.data
grad-res -------------------------------
 grad-res     0    3    3    1    1    1    1    1   0.101197870851E+06 0.101197904669E+06 0.101197837069E+06
 grad-res     0    3    3    3  639    1    1    1   0.337997533450E+01 0.338000253541E+01 -.804766784035E-05
(PID.TID 0000.0001)   ADM  precision_derivative_cost =    1.01197870850837E+05
(PID.TID 0000.0001)   ADM  precision_derivative_grad =    3.37997533449515E+00
 ph-grd  ierr ---------------------------
 ph-grd  ierr =  0, icomp =  3, ichknum =  3
 ph-grd -->hit<--  4 1 1 1
(PID.TID 0000.0001)  MDS_READ_FIELD: opening file: adxx_theta.0000000000.001.001.data
(PID.TID 0000.0001)  MDS_READ_FIELD: opening file: adxx_theta.0000000000.002.001.data
(PID.TID 0000.0001)  MDS_READ_FIELD: opening file: adxx_theta.0000000000.003.001.data
(PID.TID 0000.0001)  MDS_READ_FIELD: opening file: adxx_theta.0000000000.004.001.data
(PID.TID 0000.0001)  MDS_READ_FIELD: opening file: adxx_theta.0000000000.005.001.data
(PID.TID 0000.0001)  MDS_READ_FIELD: opening file: adxx_theta.0000000000.006.001.data
(PID.TID 0000.0001)  MDS_READ_FIELD: opening file: xx_theta.0000000000.001.001.data
(PID.TID 0000.0001)  MDS_READ_FIELD: opening file: xx_theta.0000000000.002.001.data
(PID.TID 0000.0001)  MDS_READ_FIELD: opening file: xx_theta.0000000000.003.001.data
(PID.TID 0000.0001)  MDS_READ_FIELD: opening file: xx_theta.0000000000.004.001.data
(PID.TID 0000.0001)  MDS_READ_FIELD: opening file: xx_theta.0000000000.005.001.data
(PID.TID 0000.0001)  MDS_READ_FIELD: opening file: xx_theta.0000000000.006.001.data
(PID.TID 0000.0001)  MDS_READ_FIELD: opening global file: bathy_Hmin50.bin
(PID.TID 0000.0001) // =======================================================
(PID.TID 0000.0001) // Field Model R_low (ini_masks_etc) at iteration          1
(PID.TID 0000.0001) // CMIN =         -5.200000000000000E+03
(PID.TID 0000.0001) // CMAX =         -5.000000000000000E+01
(PID.TID 0000.0001) // CINT =          1.907407407407407E+02
(PID.TID 0000.0001) // SYMBOLS (CMIN->CMAX): -abcdefghijklmnopqrstuvwxyz+
(PID.TID 0000.0001) //                  0.0: .
(PID.TID 0000.0001) // RANGE I (Lo:Hi:Step):(  -3: 196:   1)
(PID.TID 0000.0001) // RANGE J (Lo:Hi:Step):(  36:  -3:  -1)
(PID.TID 0000.0001) // RANGE K (Lo:Hi:Step):(   1:   1:   1)
(PID.TID 0000.0001) // =======================================================
(PID.TID 0000.0001) K =   1
(PID.TID 0000.0001) //                I=6       I=16      I=26      I=36      I=38      I=48      I=58      I=68      I=70      I=80      I=90      I=100     I=102     I=112     I=122     I=132     I=134     I=144     I=154     I=164     I=166     I=176     I=186     I=196
(PID.TID 0000.0001) // |--J--|321012345|789012345|789012345|789012345|901234567|901234567|901234567|901234567|123456789|123456789|123456789|123456789|345678901|345678901|345678901|345678901|567890123|567890123|567890123|567890123|789012345|789012345|789012345|789012345|
(PID.TID 0000.0001) //     36 cbbc-ddcbcdehkhhmn..++..................................................okn.skko--a-fc----bba-cp.............tfeecccbbdeecccbbdeddedcdcccdddcddffggghiggfffdeeffijlihjlica---a--cgffel.+edfgeedflcbahgfllcbahgfllfhdffhkfffca-aady...llnabdoa--a
(PID.TID 0000.0001) //     35 dcac--cbbeefjkfefw+..........zpu........................................kqnzrqqk--b-da----bbbbfu..............fdddccaadcddccaadcdddcbbbbcdddcccdffffghgffffddefflligfiljfba---aafddehy...pwvlhfffcbagfccfcbagfcceeffffjlkjgaa---bfvheeln-aesaaab
(PID.TID 0000.0001) //     34 d--ba-abcehjnldcclz+........spps.......................................vkqn+xnnncabbcbba--aabfu+..............hcbaaaaaccbaaaaaccdccbaaabbddddccdffffghfeeeeedeffjiffefilhfcaaaacgceei.......zomggfcaecbbgfcaecbbccddefilihecbaacbaajfega-aesfeed
(PID.TID 0000.0001) //     33 --abbbccceiomkfdbbc+.......+s..........................................xsrxzz+z.fdcddb-----adu+...............hcbaa--accbaa--accddba--bbbddddccdfffhhgfeeddcceddhfeddfgikhfffdfgccffw........zohhgebbaaahgebbaaaaaccdfhlhfefdcccaabjefbaaafoosso
(PID.TID 0000.0001) //     32 --bddefhhkqqlgfaakqz..v.+..+.........................................++..u+....zigfdba----adu+................kdcaaa-acccaaa-accdcb---bbbcdddddefffggfeeedcccccbccbbdcdfgghhiihcbeiw.........+ynjgebaaaajgebaaaa-aacccfikkhecccbbbaaabaadfklnqpp
(PID.TID 0000.0001) //     31 abbcffijnpnqneaaat..umrr+s.z.........................................+++++.ztsvdlifeb--dfdfu+................+lkdca--abcdca--abcccb---bbbbddddeffflhfeeeecbbbbaaba-abbacbcdceffbbfw+..........++ujfbaaa-ujfbaaa----aacffiljgfffcca--adfikkiihhhf
(PID.TID 0000.0001) //     30 --adgillkkkifcadcx.ymmqzqikvnnps.....................................+++++wmegt-jlifcacdlqx+++...............mligea---abgea---abbbb---abaaddddeedkmeddefdbbbaaaabc---b--aaaaabaabm..............+viba---+viba-------acdefinmlgiieb-chnnnmlmlgffc
(PID.TID 0000.0001) //     29 --cfiljigfjd--efdozy...+ximpnnuz......................................+++yqddhp-iljhcbbchz+......++.........+mmhffc----affc----aaba------acdddcbcineddgdbaaa----cdd--a------aa-bfz...............+qe---a.+qe---aa---aedeegknmlgiigcdfhpokkimlfdb
(PID.TID 0000.0001) //     28 -abgkhfcccea-bdei........t............................................++zwgfcfk-gknhccbbhwwy.....+++........+njfeed-----eed-----aa-------abddcabcnfddegcaaa-----hlf------------dk+................+ja---..+ja------bffdddehfd--bedaacfhpnligiihd
(PID.TID 0000.0001) //     27 -acghfbaaaa-achmy......................+.......+++....................++vnbbbclefkpkeeecflmqxy....++........+lhfeecc----eecc------------aaadcbabcfhddccba-------zqd-----------irw.................++e---..++e-----mhmijddda--------ahhfiokhedegg
(PID.TID 0000.0001) //     26 -adhfca-----bfiv.......................+.......++sy...................+tq-fdbblcjknqiheddefhiksz++++........zkhfdccb----dccb------------aabdcaaaacfddbca-------a+xfa-abb-----vvv...................+wa--...+wa---mlmkijhc----------cjjffiheb-aad
(PID.TID 0000.0001) //     25 -achfa------ch+..................w.......w.......njo+................+x-----bcgidiqqojfefiiiijmy.++.........zkhfdbaa----dbaa-------daa---acccaaaacccca--------ac.+udaabbb----tei...................++qde...++qdeqnghiljcaaaaidaa----beedeeca--bb
(PID.TID 0000.0001) //     24 aaeifa--acbcei...................w.......w.......likn+.....++.....++znpa----bbdi-fnlmnjhinlksssw............qhfeca------ca--------addc--aeffaaaaaaccb-a----a--bd.++udbbaba---ven....................++xy....++xywnfgllcbbabegkecba----ddddcaacdc
(PID.TID 0000.0001) //     23 abfida-aabchjk...................zz......zz.....nhhijz....tqq.....+ujgzgd---abci-cegklkkknols..xuu..........zgfdba------ba--------bcd---affaaadffabbb-----aa-bcc.+.+ufb-----l.gx...........s.........++z.....++zzkfilfccccoz..ulkcd---bccnfddddd
(PID.TID 0000.0001) //     22 -afhfaa---bfgi....................zz..rn..zz..rnjffggm...nlmn+....+sffzya--aabcieaaffdfhimrmp...yuu.++.......zudba------ba--------adc---dda-adffe-aa--------aaac....+ufc-baaqvhh..........dcfeeh......++......++zggqvifefhz......zobbaccfwuffeee
(PID.TID 0000.0001) //     21 babcgca----abe.....................ysstl...ysstlgeeeeoz..ijklt+....lfjzzf---adfcfdaadcehllotq....yy+++zzs.....+zcba-----cba-------cdd--aaa----df------------aaac.....+upjdcy.vohq.......+idcdfeeefwz....efwz....+hhn.vklox.........gdccfjwrigffh
(PID.TID 0000.0001) //     20 fbbbcgfcaa-aae+.......................lc......lcgfdddhq.+hiilnz++.+oquxyz--adgkfdcaabcfmtooyxz......+yuiiy....++gb------gb--------ddcca-a-----acbaa------bbaaaab........ywxy.lulo.lv...kcdgddffefffilyx+fffilyx+fffk.+xyyy.........mgeimvskjklll
(PID.TID 0000.0001) //     19 zmfeccdghfeegcbt......................aa......aafifccgnrzgghjry.+++sr+lq.--edfkkoxtkblwnnsp.vv......skhggt...+++t-------t---------bdaf---------edd-------adlaaaa+..........vnhzy.tllqiedccdhggfggffiiggfgffiiggfcbdgy..yz..........xigqophijkkii
(PID.TID 0000.0001) //     18 ..wifedfkhfegbbcivlqfoz..............jaa.....jaacfihggokeeffgt..++++..hhlfdeddkez..qcz+.zwxtsttz..ysrkhot++++++zig------ig--------b--f---------egqqqaa----frb---+........+kkrhw.vqmlnieddcdehgggffgigedbffgigedbaaceiy.............zilrddefikkhh
(PID.TID 0000.0001) //     17 ..+wfeefikhgcbbccaaacgn.............icaa....icaaccfihfoedddeedy..++...nnqwgfeekeyy.z++..+zsjjllllljllpjos+++.+zhhi-----ehi-----e-----ea--------foqqoqqo--hlwgea-.........+nk+..xiioonhfefddegihhghigfdbaghigfdbaaabdgx..............nheddefiklhg
(PID.TID 0000.0001) //     16 ....wiheddeccdfhfbabdfl............jdbad...jdbaddddgifkccccdccd+.++..++ynvz.tkkq.mu....++zyslllllkhggkmpy++...ihhi-----ehi-----ea---feb-----a-acnoohfghknvmwnuca..........qhu..hhhkojgffgeefghihhiieedbahiieedbaaabcdy..............ygddeghiljgf
(PID.TID 0000.0001) //     15 ......ylea--acfihebcbbes..........sfcbbn..sfcbbngfffigcaaabdbcac+.+++++zgmpx...y.mm....++..zslwz.yhhhhnz+++...rhgc----abgc----ab----ige----acaaalllkddfiy..yswxb..........thk.xgghiligfghfefhhhhiiheedcdiiheedcdbbabdmz.............zfdeghikkifd
(PID.TID 0000.0001) //     14 ........c---acgkhdcc--di..........ofddch..ofddchohffikaaaaabaaa-aw+.+ysnggox++...qrv..........yzzzzrjil+++....qhgd-----agd-----a-----i---cccdeabkklldinqssy..xxv...........+y.uhghikihgfghefgihhhgeeeeedhgeeeeeddbaadhw.............nedeghjjhfed
(PID.TID 0000.0001) //     13 .......+b----cfkhec---afz.........nhfdff..nhfdffholghkaaaaaba-a---flkkuswyy++++y+zr...........zzzzz++ry++......yd-------d--------------aeecdeidfkkqnqlmqquukqqmf..............iihiijjhfefgefhjihiffgggffiffgggffecaabelx...........zjecehijhfecc
(PID.TID 0000.0001) //     12 .......ec----chjhec---ag..........skiqdd..skiqddeiiiifaaabae--a---dd--iu+++.+++sxq++..........+z+++++.+++....++.s-------s------------a-ceccdejhlllkqlkklssiccdee.............wjkkkjjjigeefffgjiiighiiihhighiiihhhdaabdffghtxx......mfccehjiffdb-
(PID.TID 0000.0001) //     11 ......pdca--achlheba--ai..........nkn.fd..nkn.fdemijidaaaabi-------a--q+....++.ziis...........+++++..........+yyza----b-za----b-----a--ccccddkhieekkossssfbbbbcd............njjijhhihijhgggggjjjjijkkkkjjijkkkkjjhcaacddeegpy.....xfdccdhjgfdda-
(PID.TID 0000.0001) //     10 ......wfdb--achlhea---an.........uos..dc.uos..dcemikkfdcaabi-------equ+.........mk...........................zyvuq----ccuq----cc----a---dcfhkopqjeissrnpfbbcccde..........zslihhigghgijjihhhhkllkkkkkkjkkkkkkkjkkkedccdeeeeipz..zwhccbcdhgfddcam
(PID.TID 0000.0001) //      9 ......vgec---bfikca--cjl+.......+nnv.+cc+nnv.+ccffhkkiddaadha-----as++..........pvz++........................zxuuk------uk------a---a----djmqrrnlllsoiddcccccdjf.........+zjijhfgfggffhjkkkiillljihhghgijihhghgihighdeeffgghimnnjgecbbcdgfeccbas
(PID.TID 0000.0001) //      8 .....zleca---afjfca--hdfz.......vkky.jcevkky.jceddefijffdddhb--a-afv............nn..ss.........................+yku-----yku--------------ejnpqqnninnritqdccchkmf+.......wihgghgeffffeefhijkjkljiigeeffefigeeffefffhjhhikkklljklmhffeeeggfdcbaay.
(PID.TID 0000.0001) //      7 ...+zohec--abcfkhecbchbdx.......qiht.faaqiht.faaaabdgijgfededcdcb-f+............nn...pz.........................+zu-----+zu--------------edefqgqddsz+......+yuddmm+....tiggfggfeeeefeeefiiiijkiihhedddddhheddddddddjjllliijhfkmmkkjjhijgdcba--q.
(PID.TID 0000.0001) //      6 ..+yomfddcaabefkifdchaadt......uqdeisc--qdeisc----dfefgifffkklldc--v............up...pp.........................v.x-----v.x---------a----fbbpqgzenx+........zdbcmllkhhfffffffgfeeeeeeeefhhhhijihhffddcbbhffddcbbbbdhhiihedddb-cfhhhjjjieca----+.
(PID.TID 0000.0001) //      5 ..+nhgffkghccfhkhffgdaackz....uoibcimlaaibcimlaaacfbddfjjhijeehf-a-c............zs...su.........................qk.yi---qk.yi-------gha-fjddqs+xkrz.........q-bchikdccdeeeeeeedddedddddgghhhhjhhgffcbbaagffcbbaaaaddfegecca----dfeefhfgdb-----+.
(PID.TID 0000.0001) //      4 .+ujhgfllfhdffhkfffca-aady...llnabdopfcbabdopfcbdgdbcdehlihgfddc--ms............................................okn.zd--okn.zd---eciiiicfkeeqy.ysz..........n-aafgdcbbdeddedcdcccdddcddffggghiggfffdbaa-fffdbaa---acdcccba--abvfedeffdcca----b+.
(PID.TID 0000.0001) //      3 +vjggfcceeffffjlkjgaa---bfvheeln-aesphfd-aesphfdhgabddeflihhgfecbaaayq+++++.....................................kqnz.vtpkqnz.vtpkllgdccfkkkkk..++..........+g---fecaaadcdddcbbbbcdddcccdffffghgffffdcaa-fffdcaa----abcaaaa-acxxmecdjmdbba----r+.
(PID.TID 0000.0001) //      2 qifeecbbccddefilihecbaacbaajfega-aesqhff-aesqhffiea-cdeflkkljifeddcba---bry+...................................vkqn+.sghkqn+.sghfcbcbbbdgfdek.++++.........+l---caaaaaccdccbaaabbddddccdffffghfeeeeecba-eeeecba------baaaa-euwxqdbcdkud-----sy+.
(PID.TID 0000.0001) //      1 ebbbbaaaaaccdfhlhfefdcccaabjefbaaafonhglaafonhglid--adfgkkkklkhffddca-----s++++................................xsrxz.tedsrxz.tedcbbbbaaadddet.++++.........+l------a-accddba--bbbddddccdfffhhgfeeddccba-eddccba-------aaaabgns.qcbcchyzqngll++..
(PID.TID 0000.0001) //      0 -aaaaaaa-aacccfikkhecccbbbaaabaadfkllilmdfkllilmgebaadfijjiiikjhffdcba-----lllgn.............................++..u+..zmd.u+..zmdfbd---a-aeef.xx+..........+++s-------accdcb---bbbcdddddefffggfeeedcccbbaedcccbba----aa--alrwwy.kcbccc+...++++...
(PID.TID 0000.0001) //     -1 --aaaaa----aacffiljgfffcca--adfikkiikimikkiikimiiheccfurkiffhijjigfecb-----l----.............................+++++.z+.wq++.z+.wqgbf-------dgzpoy+........+ys+yrb--aa-abcccb---bbbbddddeffflhfeeeecbbcbbaecbbcbbaa----a--bdflm.yuibbcc.......+...
(PID.TID 0000.0001) //     -2 --aaa-------acdefinmlgiieb-chnnnmlmlfklkmlmlfklklkhednwwsheeghhijjgfdca----g---a.............................+++++wmu++y++wmu++ywn--------fwvmgy+........+r-.+++-abc--abbbb---abaaddddeedkmeddefdbbbdcbadbbbdcbaa-------ba-hv.susfbcc.......+...
(PID.TID 0000.0001) //     -3 a--a---aa---aedeegknmlgiigcdfhpokkimdkmkkkimdkmknoiedcfjvpddegghhhhgfdcbaa-n---a..............................+++yqd.++++yqd.+++zvq--dafz.lqnggw+........+b-....abcc---aaba------acdddcbcineddgdbaaaeedbbaaaeedbaa----------nysqssfcd...........
(PID.TID 0000.0001) // =======================================================
(PID.TID 0000.0001) // END OF FIELD                                          =
(PID.TID 0000.0001) // =======================================================
(PID.TID 0000.0001) 
(PID.TID 0000.0001) // =======================================================
(PID.TID 0000.0001) // Field Model Ro_surf (ini_masks_etc) at iteration          1
(PID.TID 0000.0001) // CMIN =         -7.105427357601002E-15
(PID.TID 0000.0001) // CMAX =         -7.105427357601002E-15
(PID.TID 0000.0001) // CINT =          0.000000000000000E+00
(PID.TID 0000.0001) // SYMBOLS (CMIN->CMAX): -abcdefghijklmnopqrstuvwxyz+
(PID.TID 0000.0001) //                  0.0: .
(PID.TID 0000.0001) // RANGE I (Lo:Hi:Step):(  -3: 196:   1)
(PID.TID 0000.0001) // RANGE J (Lo:Hi:Step):(  36:  -3:  -1)
(PID.TID 0000.0001) // RANGE K (Lo:Hi:Step):(   1:   1:   1)
(PID.TID 0000.0001) // =======================================================
(PID.TID 0000.0001) // =======================================================
(PID.TID 0000.0001) // END OF FIELD                                          =
(PID.TID 0000.0001) // =======================================================
(PID.TID 0000.0001) 
(PID.TID 0000.0001) // =======================================================
(PID.TID 0000.0001) // Field hFacC at iteration          1
(PID.TID 0000.0001) // CMIN =          1.000000000000000E+00
(PID.TID 0000.0001) // CMAX =          1.000000000000000E+00
(PID.TID 0000.0001) // CINT =          0.000000000000000E+00
(PID.TID 0000.0001) // SYMBOLS (CMIN->CMAX): -abcdefghijklmnopqrstuvwxyz+
(PID.TID 0000.0001) //                  0.0: .
(PID.TID 0000.0001) // RANGE I (Lo:Hi:Step):(  -3: 196:   1)
(PID.TID 0000.0001) // RANGE J (Lo:Hi:Step):(  36:  -3:  -1)
(PID.TID 0000.0001) // RANGE K (Lo:Hi:Step):(   1:   1:   1)
(PID.TID 0000.0001) // =======================================================
(PID.TID 0000.0001) // =======================================================
(PID.TID 0000.0001) // END OF FIELD                                          =
(PID.TID 0000.0001) // =======================================================
(PID.TID 0000.0001) 
(PID.TID 0000.0001) // =======================================================
(PID.TID 0000.0001) // Field hFacW at iteration          1
(PID.TID 0000.0001) // CMIN =          1.000000000000000E+00
(PID.TID 0000.0001) // CMAX =          1.000000000000000E+00
(PID.TID 0000.0001) // CINT =          0.000000000000000E+00
(PID.TID 0000.0001) // SYMBOLS (CMIN->CMAX): -abcdefghijklmnopqrstuvwxyz+
(PID.TID 0000.0001) //                  0.0: .
(PID.TID 0000.0001) // RANGE I (Lo:Hi:Step):(  -3: 196:   1)
(PID.TID 0000.0001) // RANGE J (Lo:Hi:Step):(  36:  -3:  -1)
(PID.TID 0000.0001) // RANGE K (Lo:Hi:Step):(   1:   1:   1)
(PID.TID 0000.0001) // =======================================================
(PID.TID 0000.0001) // =======================================================
(PID.TID 0000.0001) // END OF FIELD                                          =
(PID.TID 0000.0001) // =======================================================
(PID.TID 0000.0001) 
(PID.TID 0000.0001) // =======================================================
(PID.TID 0000.0001) // Field hFacS at iteration          1
(PID.TID 0000.0001) // CMIN =          1.000000000000000E+00
(PID.TID 0000.0001) // CMAX =          1.000000000000000E+00
(PID.TID 0000.0001) // CINT =          0.000000000000000E+00
(PID.TID 0000.0001) // SYMBOLS (CMIN->CMAX): -abcdefghijklmnopqrstuvwxyz+
(PID.TID 0000.0001) //                  0.0: .
(PID.TID 0000.0001) // RANGE I (Lo:Hi:Step):(  -3: 196:   1)
(PID.TID 0000.0001) // RANGE J (Lo:Hi:Step):(  36:  -3:  -1)
(PID.TID 0000.0001) // RANGE K (Lo:Hi:Step):(   1:   1:   1)
(PID.TID 0000.0001) // =======================================================
(PID.TID 0000.0001) // =======================================================
(PID.TID 0000.0001) // END OF FIELD                                          =
(PID.TID 0000.0001) // =======================================================
(PID.TID 0000.0001) 
(PID.TID 0000.0001) %MON ad_advcflfCori_max           =   1.4535016908525E-04
(PID.TID 0000.0001) %MON ad_advcflfCori_min           =  -1.4535016908525E-04
(PID.TID 0000.0001) %MON ad_advcflfCori_mean          =   0.0000000000000E+00
(PID.TID 0000.0001) %MON ad_advcflfCori_sd            =   8.3972192788621E-05
(PID.TID 0000.0001) %MON ad_advcflfCoriG_max          =   1.4544410433286E-04
(PID.TID 0000.0001) %MON ad_advcflfCoriG_min          =  -1.4544410433286E-04
(PID.TID 0000.0001) %MON ad_advcflfCoriG_mean         =   0.0000000000000E+00
(PID.TID 0000.0001) %MON ad_advcflfCoriG_sd           =   8.3972192788621E-05
(PID.TID 0000.0001) %MON ad_advcflfCoriCos_max        =   1.4540341538469E-04
(PID.TID 0000.0001) %MON ad_advcflfCoriCos_min        =   5.2264550201501E-06
(PID.TID 0000.0001) %MON ad_advcflfCoriCos_mean       =   1.1482595466044E-04
(PID.TID 0000.0001) %MON ad_advcflfCoriCos_sd         =   3.0292878037194E-05
(PID.TID 0000.0001) INI_CG2D: CG2D normalisation factor =  1.9156564154949553E-04
(PID.TID 0000.0001) INI_CG2D: cg2dTolerance = 5.809016360175293E-07 (Area=3.6388673751E+14)
(PID.TID 0000.0001) 
(PID.TID 0000.0001)  MDS_READ_META: opening file: pickup.0000072000.meta
(PID.TID 0000.0001)  nRecords = 123 ; filePrec =  64 ; fileIter =     72000
(PID.TID 0000.0001)     nDims =   2 , dims:
(PID.TID 0000.0001)    1: 192   1 192
(PID.TID 0000.0001)    2:  32   1  32
(PID.TID 0000.0001)     nFlds =  11 , nFl3D =   8 , fields:
(PID.TID 0000.0001)  >Uvel    < >GuNm1   < >Vvel    < >GvNm1   < >Theta   < >GtNm1   < >Salt    < >GsNm1   < >EtaN    < >dEtaHdt < >EtaH    <
(PID.TID 0000.0001)   nTimRec =   0 , timeList:
(PID.TID 0000.0001) READ_MFLDS_3D_RL: read field: "Uvel    ", #   1 in fldList, rec=   1
(PID.TID 0000.0001)  MDS_READ_FIELD: opening global file: pickup.0000072000
(PID.TID 0000.0001) READ_MFLDS_3D_RL: read field: "Vvel    ", #   3 in fldList, rec=   3
(PID.TID 0000.0001)  MDS_READ_FIELD: opening global file: pickup.0000072000
(PID.TID 0000.0001) READ_MFLDS_3D_RL: read field: "Theta   ", #   5 in fldList, rec=   5
(PID.TID 0000.0001)  MDS_READ_FIELD: opening global file: pickup.0000072000
(PID.TID 0000.0001) READ_MFLDS_3D_RL: read field: "Salt    ", #   7 in fldList, rec=   7
(PID.TID 0000.0001)  MDS_READ_FIELD: opening global file: pickup.0000072000
(PID.TID 0000.0001) READ_MFLDS_3D_RL: read field: "GuNm1   ", #   2 in fldList, rec=   2
(PID.TID 0000.0001)  MDS_READ_FIELD: opening global file: pickup.0000072000
(PID.TID 0000.0001) READ_MFLDS_3D_RL: read field: "GvNm1   ", #   4 in fldList, rec=   4
(PID.TID 0000.0001)  MDS_READ_FIELD: opening global file: pickup.0000072000
(PID.TID 0000.0001) READ_MFLDS_3D_RL: read field: "EtaN    ", #   9 in fldList, rec= 121
(PID.TID 0000.0001)  MDS_READ_FIELD: opening global file: pickup.0000072000
(PID.TID 0000.0001) READ_MFLDS_CHECK: - normal end ; reset MFLDS file-name: pickup.0000072000
(PID.TID 0000.0001)  MDS_READ_FIELD: opening global file: trenberth_taux.bin
(PID.TID 0000.0001)  MDS_READ_FIELD: opening global file: trenberth_tauy.bin
(PID.TID 0000.0001)  MDS_READ_FIELD: opening global file: shiQnet_cs32.bin
(PID.TID 0000.0001)  MDS_READ_FIELD: opening global file: shiEmPR_cs32.bin
(PID.TID 0000.0001)  MDS_READ_FIELD: opening global file: lev_surfT_cs_12m.bin
(PID.TID 0000.0001)  MDS_READ_FIELD: opening global file: lev_surfS_cs_12m.bin
(PID.TID 0000.0001)  MDS_READ_FIELD: opening file: xx_theta.0000000000.001.001.data
(PID.TID 0000.0001)  MDS_READ_FIELD: opening file: xx_theta.0000000000.002.001.data
(PID.TID 0000.0001)  MDS_READ_FIELD: opening file: xx_theta.0000000000.003.001.data
(PID.TID 0000.0001)  MDS_READ_FIELD: opening file: xx_theta.0000000000.004.001.data
(PID.TID 0000.0001)  MDS_READ_FIELD: opening file: xx_theta.0000000000.005.001.data
(PID.TID 0000.0001)  MDS_READ_FIELD: opening file: xx_theta.0000000000.006.001.data
(PID.TID 0000.0001)  MDS_READ_FIELD: opening file: xx_salt.0000000000.001.001.data
(PID.TID 0000.0001)  MDS_READ_FIELD: opening file: xx_salt.0000000000.002.001.data
(PID.TID 0000.0001)  MDS_READ_FIELD: opening file: xx_salt.0000000000.003.001.data
(PID.TID 0000.0001)  MDS_READ_FIELD: opening file: xx_salt.0000000000.004.001.data
(PID.TID 0000.0001)  MDS_READ_FIELD: opening file: xx_salt.0000000000.005.001.data
(PID.TID 0000.0001)  MDS_READ_FIELD: opening file: xx_salt.0000000000.006.001.data
(PID.TID 0000.0001)  MDS_READ_FIELD: opening file: xx_diffkr.0000000000.001.001.data
(PID.TID 0000.0001)  MDS_READ_FIELD: opening file: xx_diffkr.0000000000.002.001.data
(PID.TID 0000.0001)  MDS_READ_FIELD: opening file: xx_diffkr.0000000000.003.001.data
(PID.TID 0000.0001)  MDS_READ_FIELD: opening file: xx_diffkr.0000000000.004.001.data
(PID.TID 0000.0001)  MDS_READ_FIELD: opening file: xx_diffkr.0000000000.005.001.data
(PID.TID 0000.0001)  MDS_READ_FIELD: opening file: xx_diffkr.0000000000.006.001.data
(PID.TID 0000.0001) // =======================================================
(PID.TID 0000.0001) // Model current state
(PID.TID 0000.0001) // =======================================================
(PID.TID 0000.0001) 
S/R EXTERNAL_FIELDS_LOAD: Reading new data:   12    1     72000  6.220800000000E+09
(PID.TID 0000.0001)  MDS_READ_FIELD: opening global file: trenberth_taux.bin
(PID.TID 0000.0001)  MDS_READ_FIELD: opening global file: trenberth_taux.bin
(PID.TID 0000.0001)  MDS_READ_FIELD: opening global file: trenberth_tauy.bin
(PID.TID 0000.0001)  MDS_READ_FIELD: opening global file: trenberth_tauy.bin
(PID.TID 0000.0001)  MDS_READ_FIELD: opening global file: shiQnet_cs32.bin
(PID.TID 0000.0001)  MDS_READ_FIELD: opening global file: shiQnet_cs32.bin
(PID.TID 0000.0001)  MDS_READ_FIELD: opening global file: shiEmPR_cs32.bin
(PID.TID 0000.0001)  MDS_READ_FIELD: opening global file: shiEmPR_cs32.bin
(PID.TID 0000.0001)  MDS_READ_FIELD: opening global file: lev_surfT_cs_12m.bin
(PID.TID 0000.0001)  MDS_READ_FIELD: opening global file: lev_surfT_cs_12m.bin
(PID.TID 0000.0001)  MDS_READ_FIELD: opening global file: lev_surfS_cs_12m.bin
(PID.TID 0000.0001)  MDS_READ_FIELD: opening global file: lev_surfS_cs_12m.bin
(PID.TID 0000.0001)  MDS_READ_FIELD: opening file: xx_tauu.0000000000.001.001.data
(PID.TID 0000.0001)  MDS_READ_FIELD: opening file: xx_tauu.0000000000.002.001.data
(PID.TID 0000.0001)  MDS_READ_FIELD: opening file: xx_tauu.0000000000.003.001.data
(PID.TID 0000.0001)  MDS_READ_FIELD: opening file: xx_tauu.0000000000.004.001.data
(PID.TID 0000.0001)  MDS_READ_FIELD: opening file: xx_tauu.0000000000.005.001.data
(PID.TID 0000.0001)  MDS_READ_FIELD: opening file: xx_tauu.0000000000.006.001.data
(PID.TID 0000.0001)  MDS_READ_FIELD: opening file: xx_tauv.0000000000.001.001.data
(PID.TID 0000.0001)  MDS_READ_FIELD: opening file: xx_tauv.0000000000.002.001.data
(PID.TID 0000.0001)  MDS_READ_FIELD: opening file: xx_tauv.0000000000.003.001.data
(PID.TID 0000.0001)  MDS_READ_FIELD: opening file: xx_tauv.0000000000.004.001.data
(PID.TID 0000.0001)  MDS_READ_FIELD: opening file: xx_tauv.0000000000.005.001.data
(PID.TID 0000.0001)  MDS_READ_FIELD: opening file: xx_tauv.0000000000.006.001.data
(PID.TID 0000.0001)  MDS_READ_FIELD: opening file: xx_sfl.0000000000.001.001.data
(PID.TID 0000.0001)  MDS_READ_FIELD: opening file: xx_sfl.0000000000.002.001.data
(PID.TID 0000.0001)  MDS_READ_FIELD: opening file: xx_sfl.0000000000.003.001.data
(PID.TID 0000.0001)  MDS_READ_FIELD: opening file: xx_sfl.0000000000.004.001.data
(PID.TID 0000.0001)  MDS_READ_FIELD: opening file: xx_sfl.0000000000.005.001.data
(PID.TID 0000.0001)  MDS_READ_FIELD: opening file: xx_sfl.0000000000.006.001.data
(PID.TID 0000.0001)  MDS_READ_FIELD: opening file: xx_hfl.0000000000.001.001.data
(PID.TID 0000.0001)  MDS_READ_FIELD: opening file: xx_hfl.0000000000.002.001.data
(PID.TID 0000.0001)  MDS_READ_FIELD: opening file: xx_hfl.0000000000.003.001.data
(PID.TID 0000.0001)  MDS_READ_FIELD: opening file: xx_hfl.0000000000.004.001.data
(PID.TID 0000.0001)  MDS_READ_FIELD: opening file: xx_hfl.0000000000.005.001.data
(PID.TID 0000.0001)  MDS_READ_FIELD: opening file: xx_hfl.0000000000.006.001.data
 cg2d: Sum(rhs),rhsMax =  -9.57811607804615E-12  4.28505602916984E+00
 cg2d: Sum(rhs),rhsMax =  -4.21019467466976E-06  4.27911284968018E+00
 cg2d: Sum(rhs),rhsMax =  -8.11968155289833E-06  4.27329379335144E+00
 cg2d: Sum(rhs),rhsMax =  -1.18779429953975E-05  4.26739301071445E+00
 cg2d: Sum(rhs),rhsMax =  -1.52653945235670E-05  4.26144702267834E+00
 cg2d: Sum(rhs),rhsMax =  -1.79971812030999E-05  4.25555457488149E+00
 cg2d: Sum(rhs),rhsMax =  -2.08016373619557E-05  4.24977589717177E+00
 cg2d: Sum(rhs),rhsMax =  -2.30296574557087E-05  4.24417316097553E+00
 cg2d: Sum(rhs),rhsMax =  -2.54248924989042E-05  4.23881439559381E+00
 cg2d: Sum(rhs),rhsMax =  -2.69902701006686E-05  4.23376857256662E+00
 cg2d: Sum(rhs),rhsMax =  -2.89044218675372E-05  4.22909355555564E+00
 cg2d: Sum(rhs),rhsMax =  -3.15954071652413E-05  4.22483240924933E+00
 cg2d: Sum(rhs),rhsMax =  -3.51717735611601E-05  4.22101138549751E+00
 cg2d: Sum(rhs),rhsMax =  -3.94075769065694E-05  4.21764140462393E+00
 cg2d: Sum(rhs),rhsMax =  -4.22090675442632E-05  4.21471930836256E+00
S/R EXTERNAL_FIELDS_LOAD: Reading new data:    1    2     72015  6.222096000000E+09
(PID.TID 0000.0001)  MDS_READ_FIELD: opening global file: trenberth_taux.bin
(PID.TID 0000.0001)  MDS_READ_FIELD: opening global file: trenberth_taux.bin
(PID.TID 0000.0001)  MDS_READ_FIELD: opening global file: trenberth_tauy.bin
(PID.TID 0000.0001)  MDS_READ_FIELD: opening global file: trenberth_tauy.bin
(PID.TID 0000.0001)  MDS_READ_FIELD: opening global file: shiQnet_cs32.bin
(PID.TID 0000.0001)  MDS_READ_FIELD: opening global file: shiQnet_cs32.bin
(PID.TID 0000.0001)  MDS_READ_FIELD: opening global file: shiEmPR_cs32.bin
(PID.TID 0000.0001)  MDS_READ_FIELD: opening global file: shiEmPR_cs32.bin
(PID.TID 0000.0001)  MDS_READ_FIELD: opening global file: lev_surfT_cs_12m.bin
(PID.TID 0000.0001)  MDS_READ_FIELD: opening global file: lev_surfT_cs_12m.bin
(PID.TID 0000.0001)  MDS_READ_FIELD: opening global file: lev_surfS_cs_12m.bin
(PID.TID 0000.0001)  MDS_READ_FIELD: opening global file: lev_surfS_cs_12m.bin
 cg2d: Sum(rhs),rhsMax =  -4.27388196442280E-05  4.21222997158900E+00
 cg2d: Sum(rhs),rhsMax =  -4.17907656071748E-05  4.21005385559788E+00
 cg2d: Sum(rhs),rhsMax =  -4.00900817396632E-05  4.20835829108071E+00
 cg2d: Sum(rhs),rhsMax =  -3.79554386995551E-05  4.20701953584962E+00
 cg2d: Sum(rhs),rhsMax =  -3.56224698236929E-05  4.20598324189665E+00
(PID.TID 0000.0001) %CHECKPOINT     72020 ckptB
(PID.TID 0000.0001)  MDS_READ_FIELD: opening global file: lev_T_cs_15k.bin
 --> objf_test(bi,bj)   =  0.213611508751774E+05
 --> objf_tracer(bi,bj) =  0.000000000000000E+00
 --> objf_atl(bi,bj)    =  0.000000000000000E+00
 --> objf_test(bi,bj)   =  0.114876404782736E+05
 --> objf_tracer(bi,bj) =  0.000000000000000E+00
 --> objf_atl(bi,bj)    =  0.000000000000000E+00
 --> objf_test(bi,bj)   =  0.181712047577366E+05
 --> objf_tracer(bi,bj) =  0.000000000000000E+00
 --> objf_atl(bi,bj)    =  0.000000000000000E+00
 --> objf_test(bi,bj)   =  0.231640448902367E+05
 --> objf_tracer(bi,bj) =  0.000000000000000E+00
 --> objf_atl(bi,bj)    =  0.000000000000000E+00
 --> objf_test(bi,bj)   =  0.145315986544865E+05
 --> objf_tracer(bi,bj) =  0.000000000000000E+00
 --> objf_atl(bi,bj)    =  0.000000000000000E+00
 --> objf_test(bi,bj)   =  0.124822608145157E+05
 --> objf_tracer(bi,bj) =  0.000000000000000E+00
 --> objf_atl(bi,bj)    =  0.000000000000000E+00
  local fc =  0.101197900470426E+06
 global fc =  0.101197900470426E+06
 ph-check fcpertplus =   101197.9
(PID.TID 0000.0001)  MDS_READ_FIELD: opening file: xx_theta.0000000000.001.001.data
(PID.TID 0000.0001)  MDS_READ_FIELD: opening file: xx_theta.0000000000.002.001.data
(PID.TID 0000.0001)  MDS_READ_FIELD: opening file: xx_theta.0000000000.003.001.data
(PID.TID 0000.0001)  MDS_READ_FIELD: opening file: xx_theta.0000000000.004.001.data
(PID.TID 0000.0001)  MDS_READ_FIELD: opening file: xx_theta.0000000000.005.001.data
(PID.TID 0000.0001)  MDS_READ_FIELD: opening file: xx_theta.0000000000.006.001.data
 ph-check fcpertminus =   101197.871
(PID.TID 0000.0001)  MDS_READ_FIELD: opening file: xx_theta.0000000000.001.001.data
(PID.TID 0000.0001)  MDS_READ_FIELD: opening file: xx_theta.0000000000.002.001.data
(PID.TID 0000.0001)  MDS_READ_FIELD: opening file: xx_theta.0000000000.003.001.data
(PID.TID 0000.0001)  MDS_READ_FIELD: opening file: xx_theta.0000000000.004.001.data
(PID.TID 0000.0001)  MDS_READ_FIELD: opening file: xx_theta.0000000000.005.001.data
(PID.TID 0000.0001)  MDS_READ_FIELD: opening file: xx_theta.0000000000.006.001.data
(PID.TID 0000.0001)  MDS_READ_FIELD: opening global file: bathy_Hmin50.bin
(PID.TID 0000.0001) // =======================================================
(PID.TID 0000.0001) // Field Model R_low (ini_masks_etc) at iteration          1
(PID.TID 0000.0001) // CMIN =         -5.200000000000000E+03
(PID.TID 0000.0001) // CMAX =         -5.000000000000000E+01
(PID.TID 0000.0001) // CINT =          1.907407407407407E+02
(PID.TID 0000.0001) // SYMBOLS (CMIN->CMAX): -abcdefghijklmnopqrstuvwxyz+
(PID.TID 0000.0001) //                  0.0: .
(PID.TID 0000.0001) // RANGE I (Lo:Hi:Step):(  -3: 196:   1)
(PID.TID 0000.0001) // RANGE J (Lo:Hi:Step):(  36:  -3:  -1)
(PID.TID 0000.0001) // RANGE K (Lo:Hi:Step):(   1:   1:   1)
(PID.TID 0000.0001) // =======================================================
(PID.TID 0000.0001) K =   1
(PID.TID 0000.0001) //                I=6       I=16      I=26      I=36      I=38      I=48      I=58      I=68      I=70      I=80      I=90      I=100     I=102     I=112     I=122     I=132     I=134     I=144     I=154     I=164     I=166     I=176     I=186     I=196
(PID.TID 0000.0001) // |--J--|321012345|789012345|789012345|789012345|901234567|901234567|901234567|901234567|123456789|123456789|123456789|123456789|345678901|345678901|345678901|345678901|567890123|567890123|567890123|567890123|789012345|789012345|789012345|789012345|
(PID.TID 0000.0001) //     36 cbbc-ddcbcdehkhhmn..++..................................................okn.skko--a-fc----bba-cp.............tfeecccbbdeecccbbdeddedcdcccdddcddffggghiggfffdeeffijlihjlica---a--cgffel.+edfgeedflcbahgfllcbahgfllfhdffhkfffca-aady...llnabdoa--a
(PID.TID 0000.0001) //     35 dcac--cbbeefjkfefw+..........zpu........................................kqnzrqqk--b-da----bbbbfu..............fdddccaadcddccaadcdddcbbbbcdddcccdffffghgffffddefflligfiljfba---aafddehy...pwvlhfffcbagfccfcbagfcceeffffjlkjgaa---bfvheeln-aesaaab
(PID.TID 0000.0001) //     34 d--ba-abcehjnldcclz+........spps.......................................vkqn+xnnncabbcbba--aabfu+..............hcbaaaaaccbaaaaaccdccbaaabbddddccdffffghfeeeeedeffjiffefilhfcaaaacgceei.......zomggfcaecbbgfcaecbbccddefilihecbaacbaajfega-aesfeed
(PID.TID 0000.0001) //     33 --abbbccceiomkfdbbc+.......+s..........................................xsrxzz+z.fdcddb-----adu+...............hcbaa--accbaa--accddba--bbbddddccdfffhhgfeeddcceddhfeddfgikhfffdfgccffw........zohhgebbaaahgebbaaaaaccdfhlhfefdcccaabjefbaaafoosso
(PID.TID 0000.0001) //     32 --bddefhhkqqlgfaakqz..v.+..+.........................................++..u+....zigfdba----adu+................kdcaaa-acccaaa-accdcb---bbbcdddddefffggfeeedcccccbccbbdcdfgghhiihcbeiw.........+ynjgebaaaajgebaaaa-aacccfikkhecccbbbaaabaadfklnqpp
(PID.TID 0000.0001) //     31 abbcffijnpnqneaaat..umrr+s.z.........................................+++++.ztsvdlifeb--dfdfu+................+lkdca--abcdca--abcccb---bbbbddddeffflhfeeeecbbbbaaba-abbacbcdceffbbfw+..........++ujfbaaa-ujfbaaa----aacffiljgfffcca--adfikkiihhhf
(PID.TID 0000.0001) //     30 --adgillkkkifcadcx.ymmqzqikvnnps.....................................+++++wmegt-jlifcacdlqx+++...............mligea---abgea---abbbb---abaaddddeedkmeddefdbbbaaaabc---b--aaaaabaabm..............+viba---+viba-------acdefinmlgiieb-chnnnmlmlgffc
(PID.TID 0000.0001) //     29 --cfiljigfjd--efdozy...+ximpnnuz......................................+++yqddhp-iljhcbbchz+......++.........+mmhffc----affc----aaba------acdddcbcineddgdbaaa----cdd--a------aa-bfz...............+qe---a.+qe---aa---aedeegknmlgiigcdfhpokkimlfdb
(PID.TID 0000.0001) //     28 -abgkhfcccea-bdei........t............................................++zwgfcfk-gknhccbbhwwy.....+++........+njfeed-----eed-----aa-------abddcabcnfddegcaaa-----hlf------------dk+................+ja---..+ja------bffdddehfd--bedaacfhpnligiihd
(PID.TID 0000.0001) //     27 -acghfbaaaa-achmy......................+.......+++....................++vnbbbclefkpkeeecflmqxy....++........+lhfeecc----eecc------------aaadcbabcfhddccba-------zqd-----------irw.................++e---..++e-----mhmijddda--------ahhfiokhedegg
(PID.TID 0000.0001) //     26 -adhfca-----bfiv.......................+.......++sy...................+tq-fdbblcjknqiheddefhiksz++++........zkhfdccb----dccb------------aabdcaaaacfddbca-------a+xfa-abb-----vvv...................+wa--...+wa---mlmkijhc----------cjjffiheb-aad
(PID.TID 0000.0001) //     25 -achfa------ch+..................w.......w.......njo+................+x-----bcgidiqqojfefiiiijmy.++.........zkhfdbaa----dbaa-------daa---acccaaaacccca--------ac.+udaabbb----tei...................++qde...++qdeqnghiljcaaaaidaa----beedeeca--bb
(PID.TID 0000.0001) //     24 aaeifa--acbcei...................w.......w.......likn+.....++.....++znpa----bbdi-fnlmnjhinlksssw............qhfeca------ca--------addc--aeffaaaaaaccb-a----a--bd.++udbbaba---ven....................++xy....++xywnfgllcbbabegkecba----ddddcaacdc
(PID.TID 0000.0001) //     23 abfida-aabchjk...................zz......zz.....nhhijz....tqq.....+ujgzgd---abci-cegklkkknols..xuu..........zgfdba------ba--------bcd---affaaadffabbb-----aa-bcc.+.+ufb-----l.gx...........s.........++z.....++zzkfilfccccoz..ulkcd---bccnfddddd
(PID.TID 0000.0001) //     22 -afhfaa---bfgi....................zz..rn..zz..rnjffggm...nlmn+....+sffzya--aabcieaaffdfhimrmp...yuu.++.......zudba------ba--------adc---dda-adffe-aa--------aaac....+ufc-baaqvhh..........dcfeeh......++......++zggqvifefhz......zobbaccfwuffeee
(PID.TID 0000.0001) //     21 babcgca----abe.....................ysstl...ysstlgeeeeoz..ijklt+....lfjzzf---adfcfdaadcehllotq....yy+++zzs.....+zcba-----cba-------cdd--aaa----df------------aaac.....+upjdcy.vohq.......+idcdfeeefwz....efwz....+hhn.vklox.........gdccfjwrigffh
(PID.TID 0000.0001) //     20 fbbbcgfcaa-aae+.......................lc......lcgfdddhq.+hiilnz++.+oquxyz--adgkfdcaabcfmtooyxz......+yuiiy....++gb------gb--------ddcca-a-----acbaa------bbaaaab........ywxy.lulo.lv...kcdgddffefffilyx+fffilyx+fffk.+xyyy.........mgeimvskjklll
(PID.TID 0000.0001) //     19 zmfeccdghfeegcbt......................aa......aafifccgnrzgghjry.+++sr+lq.--edfkkoxtkblwnnsp.vv......skhggt...+++t-------t---------bdaf---------edd-------adlaaaa+..........vnhzy.tllqiedccdhggfggffiiggfgffiiggfcbdgy..yz..........xigqophijkkii
(PID.TID 0000.0001) //     18 ..wifedfkhfegbbcivlqfoz..............jaa.....jaacfihggokeeffgt..++++..hhlfdeddkez..qcz+.zwxtsttz..ysrkhot++++++zig------ig--------b--f---------egqqqaa----frb---+........+kkrhw.vqmlnieddcdehgggffgigedbffgigedbaaceiy.............zilrddefikkhh
(PID.TID 0000.0001) //     17 ..+wfeefikhgcbbccaaacgn.............icaa....icaaccfihfoedddeedy..++...nnqwgfeekeyy.z++..+zsjjllllljllpjos+++.+zhhi-----ehi-----e-----ea--------foqqoqqo--hlwgea-.........+nk+..xiioonhfefddegihhghigfdbaghigfdbaaabdgx..............nheddefiklhg
(PID.TID 0000.0001) //     16 ....wiheddeccdfhfbabdfl............jdbad...jdbaddddgifkccccdccd+.++..++ynvz.tkkq.mu....++zyslllllkhggkmpy++...ihhi-----ehi-----ea---feb-----a-acnoohfghknvmwnuca..........qhu..hhhkojgffgeefghihhiieedbahiieedbaaabcdy..............ygddeghiljgf
(PID.TID 0000.0001) //     15 ......ylea--acfihebcbbes..........sfcbbn..sfcbbngfffigcaaabdbcac+.+++++zgmpx...y.mm....++..zslwz.yhhhhnz+++...rhgc----abgc----ab----ige----acaaalllkddfiy..yswxb..........thk.xgghiligfghfefhhhhiiheedcdiiheedcdbbabdmz.............zfdeghikkifd
(PID.TID 0000.0001) //     14 ........c---acgkhdcc--di..........ofddch..ofddchohffikaaaaabaaa-aw+.+ysnggox++...qrv..........yzzzzrjil+++....qhgd-----agd-----a-----i---cccdeabkklldinqssy..xxv...........+y.uhghikihgfghefgihhhgeeeeedhgeeeeeddbaadhw.............nedeghjjhfed
(PID.TID 0000.0001) //     13 .......+b----cfkhec---afz.........nhfdff..nhfdffholghkaaaaaba-a---flkkuswyy++++y+zr...........zzzzz++ry++......yd-------d--------------aeecdeidfkkqnqlmqquukqqmf..............iihiijjhfefgefhjihiffgggffiffgggffecaabelx...........zjecehijhfecc
(PID.TID 0000.0001) //     12 .......ec----chjhec---ag..........skiqdd..skiqddeiiiifaaabae--a---dd--iu+++.+++sxq++..........+z+++++.+++....++.s-------s------------a-ceccdejhlllkqlkklssiccdee.............wjkkkjjjigeefffgjiiighiiihhighiiihhhdaabdffghtxx......mfccehjiffdb-
(PID.TID 0000.0001) //     11 ......pdca--achlheba--ai..........nkn.fd..nkn.fdemijidaaaabi-------a--q+....++.ziis...........+++++..........+yyza----b-za----b-----a--ccccddkhieekkossssfbbbbcd............njjijhhihijhgggggjjjjijkkkkjjijkkkkjjhcaacddeegpy.....xfdccdhjgfdda-
(PID.TID 0000.0001) //     10 ......wfdb--achlhea---an.........uos..dc.uos..dcemikkfdcaabi-------equ+.........mk...........................zyvuq----ccuq----cc----a---dcfhkopqjeissrnpfbbcccde..........zslihhigghgijjihhhhkllkkkkkkjkkkkkkkjkkkedccdeeeeipz..zwhccbcdhgfddcam
(PID.TID 0000.0001) //      9 ......vgec---bfikca--cjl+.......+nnv.+cc+nnv.+ccffhkkiddaadha-----as++..........pvz++........................zxuuk------uk------a---a----djmqrrnlllsoiddcccccdjf.........+zjijhfgfggffhjkkkiillljihhghgijihhghgihighdeeffgghimnnjgecbbcdgfeccbas
(PID.TID 0000.0001) //      8 .....zleca---afjfca--hdfz.......vkky.jcevkky.jceddefijffdddhb--a-afv............nn..ss.........................+yku-----yku--------------ejnpqqnninnritqdccchkmf+.......wihgghgeffffeefhijkjkljiigeeffefigeeffefffhjhhikkklljklmhffeeeggfdcbaay.
(PID.TID 0000.0001) //      7 ...+zohec--abcfkhecbchbdx.......qiht.faaqiht.faaaabdgijgfededcdcb-f+............nn...pz.........................+zu-----+zu--------------edefqgqddsz+......+yuddmm+....tiggfggfeeeefeeefiiiijkiihhedddddhheddddddddjjllliijhfkmmkkjjhijgdcba--q.
(PID.TID 0000.0001) //      6 ..+yomfddcaabefkifdchaadt......uqdeisc--qdeisc----dfefgifffkklldc--v............up...pp.........................v.x-----v.x---------a----fbbpqgzenx+........zdbcmllkhhfffffffgfeeeeeeeefhhhhijihhffddcbbhffddcbbbbdhhiihedddb-cfhhhjjjieca----+.
(PID.TID 0000.0001) //      5 ..+nhgffkghccfhkhffgdaackz....uoibcimlaaibcimlaaacfbddfjjhijeehf-a-c............zs...su.........................qk.yi---qk.yi-------gha-fjddqs+xkrz.........q-bchikdccdeeeeeeedddedddddgghhhhjhhgffcbbaagffcbbaaaaddfegecca----dfeefhfgdb-----+.
(PID.TID 0000.0001) //      4 .+ujhgfllfhdffhkfffca-aady...llnabdopfcbabdopfcbdgdbcdehlihgfddc--ms............................................okn.zd--okn.zd---eciiiicfkeeqy.ysz..........n-aafgdcbbdeddedcdcccdddcddffggghiggfffdbaa-fffdbaa---acdcccba--abvfedeffdcca----b+.
(PID.TID 0000.0001) //      3 +vjggfcceeffffjlkjgaa---bfvheeln-aesphfd-aesphfdhgabddeflihhgfecbaaayq+++++.....................................kqnz.vtpkqnz.vtpkllgdccfkkkkk..++..........+g---fecaaadcdddcbbbbcdddcccdffffghgffffdcaa-fffdcaa----abcaaaa-acxxmecdjmdbba----r+.
(PID.TID 0000.0001) //      2 qifeecbbccddefilihecbaacbaajfega-aesqhff-aesqhffiea-cdeflkkljifeddcba---bry+...................................vkqn+.sghkqn+.sghfcbcbbbdgfdek.++++.........+l---caaaaaccdccbaaabbddddccdffffghfeeeeecba-eeeecba------baaaa-euwxqdbcdkud-----sy+.
(PID.TID 0000.0001) //      1 ebbbbaaaaaccdfhlhfefdcccaabjefbaaafonhglaafonhglid--adfgkkkklkhffddca-----s++++................................xsrxz.tedsrxz.tedcbbbbaaadddet.++++.........+l------a-accddba--bbbddddccdfffhhgfeeddccba-eddccba-------aaaabgns.qcbcchyzqngll++..
(PID.TID 0000.0001) //      0 -aaaaaaa-aacccfikkhecccbbbaaabaadfkllilmdfkllilmgebaadfijjiiikjhffdcba-----lllgn.............................++..u+..zmd.u+..zmdfbd---a-aeef.xx+..........+++s-------accdcb---bbbcdddddefffggfeeedcccbbaedcccbba----aa--alrwwy.kcbccc+...++++...
(PID.TID 0000.0001) //     -1 --aaaaa----aacffiljgfffcca--adfikkiikimikkiikimiiheccfurkiffhijjigfecb-----l----.............................+++++.z+.wq++.z+.wqgbf-------dgzpoy+........+ys+yrb--aa-abcccb---bbbbddddeffflhfeeeecbbcbbaecbbcbbaa----a--bdflm.yuibbcc.......+...
(PID.TID 0000.0001) //     -2 --aaa-------acdefinmlgiieb-chnnnmlmlfklkmlmlfklklkhednwwsheeghhijjgfdca----g---a.............................+++++wmu++y++wmu++ywn--------fwvmgy+........+r-.+++-abc--abbbb---abaaddddeedkmeddefdbbbdcbadbbbdcbaa-------ba-hv.susfbcc.......+...
(PID.TID 0000.0001) //     -3 a--a---aa---aedeegknmlgiigcdfhpokkimdkmkkkimdkmknoiedcfjvpddegghhhhgfdcbaa-n---a..............................+++yqd.++++yqd.+++zvq--dafz.lqnggw+........+b-....abcc---aaba------acdddcbcineddgdbaaaeedbbaaaeedbaa----------nysqssfcd...........
(PID.TID 0000.0001) // =======================================================
(PID.TID 0000.0001) // END OF FIELD                                          =
(PID.TID 0000.0001) // =======================================================
(PID.TID 0000.0001) 
(PID.TID 0000.0001) // =======================================================
(PID.TID 0000.0001) // Field Model Ro_surf (ini_masks_etc) at iteration          1
(PID.TID 0000.0001) // CMIN =         -7.105427357601002E-15
(PID.TID 0000.0001) // CMAX =         -7.105427357601002E-15
(PID.TID 0000.0001) // CINT =          0.000000000000000E+00
(PID.TID 0000.0001) // SYMBOLS (CMIN->CMAX): -abcdefghijklmnopqrstuvwxyz+
(PID.TID 0000.0001) //                  0.0: .
(PID.TID 0000.0001) // RANGE I (Lo:Hi:Step):(  -3: 196:   1)
(PID.TID 0000.0001) // RANGE J (Lo:Hi:Step):(  36:  -3:  -1)
(PID.TID 0000.0001) // RANGE K (Lo:Hi:Step):(   1:   1:   1)
(PID.TID 0000.0001) // =======================================================
(PID.TID 0000.0001) // =======================================================
(PID.TID 0000.0001) // END OF FIELD                                          =
(PID.TID 0000.0001) // =======================================================
(PID.TID 0000.0001) 
(PID.TID 0000.0001) // =======================================================
(PID.TID 0000.0001) // Field hFacC at iteration          1
(PID.TID 0000.0001) // CMIN =          1.000000000000000E+00
(PID.TID 0000.0001) // CMAX =          1.000000000000000E+00
(PID.TID 0000.0001) // CINT =          0.000000000000000E+00
(PID.TID 0000.0001) // SYMBOLS (CMIN->CMAX): -abcdefghijklmnopqrstuvwxyz+
(PID.TID 0000.0001) //                  0.0: .
(PID.TID 0000.0001) // RANGE I (Lo:Hi:Step):(  -3: 196:   1)
(PID.TID 0000.0001) // RANGE J (Lo:Hi:Step):(  36:  -3:  -1)
(PID.TID 0000.0001) // RANGE K (Lo:Hi:Step):(   1:   1:   1)
(PID.TID 0000.0001) // =======================================================
(PID.TID 0000.0001) // =======================================================
(PID.TID 0000.0001) // END OF FIELD                                          =
(PID.TID 0000.0001) // =======================================================
(PID.TID 0000.0001) 
(PID.TID 0000.0001) // =======================================================
(PID.TID 0000.0001) // Field hFacW at iteration          1
(PID.TID 0000.0001) // CMIN =          1.000000000000000E+00
(PID.TID 0000.0001) // CMAX =          1.000000000000000E+00
(PID.TID 0000.0001) // CINT =          0.000000000000000E+00
(PID.TID 0000.0001) // SYMBOLS (CMIN->CMAX): -abcdefghijklmnopqrstuvwxyz+
(PID.TID 0000.0001) //                  0.0: .
(PID.TID 0000.0001) // RANGE I (Lo:Hi:Step):(  -3: 196:   1)
(PID.TID 0000.0001) // RANGE J (Lo:Hi:Step):(  36:  -3:  -1)
(PID.TID 0000.0001) // RANGE K (Lo:Hi:Step):(   1:   1:   1)
(PID.TID 0000.0001) // =======================================================
(PID.TID 0000.0001) // =======================================================
(PID.TID 0000.0001) // END OF FIELD                                          =
(PID.TID 0000.0001) // =======================================================
(PID.TID 0000.0001) 
(PID.TID 0000.0001) // =======================================================
(PID.TID 0000.0001) // Field hFacS at iteration          1
(PID.TID 0000.0001) // CMIN =          1.000000000000000E+00
(PID.TID 0000.0001) // CMAX =          1.000000000000000E+00
(PID.TID 0000.0001) // CINT =          0.000000000000000E+00
(PID.TID 0000.0001) // SYMBOLS (CMIN->CMAX): -abcdefghijklmnopqrstuvwxyz+
(PID.TID 0000.0001) //                  0.0: .
(PID.TID 0000.0001) // RANGE I (Lo:Hi:Step):(  -3: 196:   1)
(PID.TID 0000.0001) // RANGE J (Lo:Hi:Step):(  36:  -3:  -1)
(PID.TID 0000.0001) // RANGE K (Lo:Hi:Step):(   1:   1:   1)
(PID.TID 0000.0001) // =======================================================
(PID.TID 0000.0001) // =======================================================
(PID.TID 0000.0001) // END OF FIELD                                          =
(PID.TID 0000.0001) // =======================================================
(PID.TID 0000.0001) 
(PID.TID 0000.0001) %MON ad_advcflfCori_max           =   1.4535016908525E-04
(PID.TID 0000.0001) %MON ad_advcflfCori_min           =  -1.4535016908525E-04
(PID.TID 0000.0001) %MON ad_advcflfCori_mean          =   0.0000000000000E+00
(PID.TID 0000.0001) %MON ad_advcflfCori_sd            =   8.3972192788621E-05
(PID.TID 0000.0001) %MON ad_advcflfCoriG_max          =   1.4544410433286E-04
(PID.TID 0000.0001) %MON ad_advcflfCoriG_min          =  -1.4544410433286E-04
(PID.TID 0000.0001) %MON ad_advcflfCoriG_mean         =   0.0000000000000E+00
(PID.TID 0000.0001) %MON ad_advcflfCoriG_sd           =   8.3972192788621E-05
(PID.TID 0000.0001) %MON ad_advcflfCoriCos_max        =   1.4540341538469E-04
(PID.TID 0000.0001) %MON ad_advcflfCoriCos_min        =   5.2264550201501E-06
(PID.TID 0000.0001) %MON ad_advcflfCoriCos_mean       =   1.1482595466044E-04
(PID.TID 0000.0001) %MON ad_advcflfCoriCos_sd         =   3.0292878037194E-05
(PID.TID 0000.0001) INI_CG2D: CG2D normalisation factor =  1.9156564154949553E-04
(PID.TID 0000.0001) INI_CG2D: cg2dTolerance = 5.809016360175293E-07 (Area=3.6388673751E+14)
(PID.TID 0000.0001) 
(PID.TID 0000.0001)  MDS_READ_META: opening file: pickup.0000072000.meta
(PID.TID 0000.0001)  nRecords = 123 ; filePrec =  64 ; fileIter =     72000
(PID.TID 0000.0001)     nDims =   2 , dims:
(PID.TID 0000.0001)    1: 192   1 192
(PID.TID 0000.0001)    2:  32   1  32
(PID.TID 0000.0001)     nFlds =  11 , nFl3D =   8 , fields:
(PID.TID 0000.0001)  >Uvel    < >GuNm1   < >Vvel    < >GvNm1   < >Theta   < >GtNm1   < >Salt    < >GsNm1   < >EtaN    < >dEtaHdt < >EtaH    <
(PID.TID 0000.0001)   nTimRec =   0 , timeList:
(PID.TID 0000.0001) READ_MFLDS_3D_RL: read field: "Uvel    ", #   1 in fldList, rec=   1
(PID.TID 0000.0001)  MDS_READ_FIELD: opening global file: pickup.0000072000
(PID.TID 0000.0001) READ_MFLDS_3D_RL: read field: "Vvel    ", #   3 in fldList, rec=   3
(PID.TID 0000.0001)  MDS_READ_FIELD: opening global file: pickup.0000072000
(PID.TID 0000.0001) READ_MFLDS_3D_RL: read field: "Theta   ", #   5 in fldList, rec=   5
(PID.TID 0000.0001)  MDS_READ_FIELD: opening global file: pickup.0000072000
(PID.TID 0000.0001) READ_MFLDS_3D_RL: read field: "Salt    ", #   7 in fldList, rec=   7
(PID.TID 0000.0001)  MDS_READ_FIELD: opening global file: pickup.0000072000
(PID.TID 0000.0001) READ_MFLDS_3D_RL: read field: "GuNm1   ", #   2 in fldList, rec=   2
(PID.TID 0000.0001)  MDS_READ_FIELD: opening global file: pickup.0000072000
(PID.TID 0000.0001) READ_MFLDS_3D_RL: read field: "GvNm1   ", #   4 in fldList, rec=   4
(PID.TID 0000.0001)  MDS_READ_FIELD: opening global file: pickup.0000072000
(PID.TID 0000.0001) READ_MFLDS_3D_RL: read field: "EtaN    ", #   9 in fldList, rec= 121
(PID.TID 0000.0001)  MDS_READ_FIELD: opening global file: pickup.0000072000
(PID.TID 0000.0001) READ_MFLDS_CHECK: - normal end ; reset MFLDS file-name: pickup.0000072000
(PID.TID 0000.0001)  MDS_READ_FIELD: opening global file: trenberth_taux.bin
(PID.TID 0000.0001)  MDS_READ_FIELD: opening global file: trenberth_tauy.bin
(PID.TID 0000.0001)  MDS_READ_FIELD: opening global file: shiQnet_cs32.bin
(PID.TID 0000.0001)  MDS_READ_FIELD: opening global file: shiEmPR_cs32.bin
(PID.TID 0000.0001)  MDS_READ_FIELD: opening global file: lev_surfT_cs_12m.bin
(PID.TID 0000.0001)  MDS_READ_FIELD: opening global file: lev_surfS_cs_12m.bin
(PID.TID 0000.0001)  MDS_READ_FIELD: opening file: xx_theta.0000000000.001.001.data
(PID.TID 0000.0001)  MDS_READ_FIELD: opening file: xx_theta.0000000000.002.001.data
(PID.TID 0000.0001)  MDS_READ_FIELD: opening file: xx_theta.0000000000.003.001.data
(PID.TID 0000.0001)  MDS_READ_FIELD: opening file: xx_theta.0000000000.004.001.data
(PID.TID 0000.0001)  MDS_READ_FIELD: opening file: xx_theta.0000000000.005.001.data
(PID.TID 0000.0001)  MDS_READ_FIELD: opening file: xx_theta.0000000000.006.001.data
(PID.TID 0000.0001)  MDS_READ_FIELD: opening file: xx_salt.0000000000.001.001.data
(PID.TID 0000.0001)  MDS_READ_FIELD: opening file: xx_salt.0000000000.002.001.data
(PID.TID 0000.0001)  MDS_READ_FIELD: opening file: xx_salt.0000000000.003.001.data
(PID.TID 0000.0001)  MDS_READ_FIELD: opening file: xx_salt.0000000000.004.001.data
(PID.TID 0000.0001)  MDS_READ_FIELD: opening file: xx_salt.0000000000.005.001.data
(PID.TID 0000.0001)  MDS_READ_FIELD: opening file: xx_salt.0000000000.006.001.data
(PID.TID 0000.0001)  MDS_READ_FIELD: opening file: xx_diffkr.0000000000.001.001.data
(PID.TID 0000.0001)  MDS_READ_FIELD: opening file: xx_diffkr.0000000000.002.001.data
(PID.TID 0000.0001)  MDS_READ_FIELD: opening file: xx_diffkr.0000000000.003.001.data
(PID.TID 0000.0001)  MDS_READ_FIELD: opening file: xx_diffkr.0000000000.004.001.data
(PID.TID 0000.0001)  MDS_READ_FIELD: opening file: xx_diffkr.0000000000.005.001.data
(PID.TID 0000.0001)  MDS_READ_FIELD: opening file: xx_diffkr.0000000000.006.001.data
(PID.TID 0000.0001) // =======================================================
(PID.TID 0000.0001) // Model current state
(PID.TID 0000.0001) // =======================================================
(PID.TID 0000.0001) 
S/R EXTERNAL_FIELDS_LOAD: Reading new data:   12    1     72000  6.220800000000E+09
(PID.TID 0000.0001)  MDS_READ_FIELD: opening global file: trenberth_taux.bin
(PID.TID 0000.0001)  MDS_READ_FIELD: opening global file: trenberth_taux.bin
(PID.TID 0000.0001)  MDS_READ_FIELD: opening global file: trenberth_tauy.bin
(PID.TID 0000.0001)  MDS_READ_FIELD: opening global file: trenberth_tauy.bin
(PID.TID 0000.0001)  MDS_READ_FIELD: opening global file: shiQnet_cs32.bin
(PID.TID 0000.0001)  MDS_READ_FIELD: opening global file: shiQnet_cs32.bin
(PID.TID 0000.0001)  MDS_READ_FIELD: opening global file: shiEmPR_cs32.bin
(PID.TID 0000.0001)  MDS_READ_FIELD: opening global file: shiEmPR_cs32.bin
(PID.TID 0000.0001)  MDS_READ_FIELD: opening global file: lev_surfT_cs_12m.bin
(PID.TID 0000.0001)  MDS_READ_FIELD: opening global file: lev_surfT_cs_12m.bin
(PID.TID 0000.0001)  MDS_READ_FIELD: opening global file: lev_surfS_cs_12m.bin
(PID.TID 0000.0001)  MDS_READ_FIELD: opening global file: lev_surfS_cs_12m.bin
(PID.TID 0000.0001)  MDS_READ_FIELD: opening file: xx_tauu.0000000000.001.001.data
(PID.TID 0000.0001)  MDS_READ_FIELD: opening file: xx_tauu.0000000000.002.001.data
(PID.TID 0000.0001)  MDS_READ_FIELD: opening file: xx_tauu.0000000000.003.001.data
(PID.TID 0000.0001)  MDS_READ_FIELD: opening file: xx_tauu.0000000000.004.001.data
(PID.TID 0000.0001)  MDS_READ_FIELD: opening file: xx_tauu.0000000000.005.001.data
(PID.TID 0000.0001)  MDS_READ_FIELD: opening file: xx_tauu.0000000000.006.001.data
(PID.TID 0000.0001)  MDS_READ_FIELD: opening file: xx_tauv.0000000000.001.001.data
(PID.TID 0000.0001)  MDS_READ_FIELD: opening file: xx_tauv.0000000000.002.001.data
(PID.TID 0000.0001)  MDS_READ_FIELD: opening file: xx_tauv.0000000000.003.001.data
(PID.TID 0000.0001)  MDS_READ_FIELD: opening file: xx_tauv.0000000000.004.001.data
(PID.TID 0000.0001)  MDS_READ_FIELD: opening file: xx_tauv.0000000000.005.001.data
(PID.TID 0000.0001)  MDS_READ_FIELD: opening file: xx_tauv.0000000000.006.001.data
(PID.TID 0000.0001)  MDS_READ_FIELD: opening file: xx_sfl.0000000000.001.001.data
(PID.TID 0000.0001)  MDS_READ_FIELD: opening file: xx_sfl.0000000000.002.001.data
(PID.TID 0000.0001)  MDS_READ_FIELD: opening file: xx_sfl.0000000000.003.001.data
(PID.TID 0000.0001)  MDS_READ_FIELD: opening file: xx_sfl.0000000000.004.001.data
(PID.TID 0000.0001)  MDS_READ_FIELD: opening file: xx_sfl.0000000000.005.001.data
(PID.TID 0000.0001)  MDS_READ_FIELD: opening file: xx_sfl.0000000000.006.001.data
(PID.TID 0000.0001)  MDS_READ_FIELD: opening file: xx_hfl.0000000000.001.001.data
(PID.TID 0000.0001)  MDS_READ_FIELD: opening file: xx_hfl.0000000000.002.001.data
(PID.TID 0000.0001)  MDS_READ_FIELD: opening file: xx_hfl.0000000000.003.001.data
(PID.TID 0000.0001)  MDS_READ_FIELD: opening file: xx_hfl.0000000000.004.001.data
(PID.TID 0000.0001)  MDS_READ_FIELD: opening file: xx_hfl.0000000000.005.001.data
(PID.TID 0000.0001)  MDS_READ_FIELD: opening file: xx_hfl.0000000000.006.001.data
 cg2d: Sum(rhs),rhsMax =  -9.57811607804615E-12  4.28505602916984E+00
 cg2d: Sum(rhs),rhsMax =  -4.20960603264575E-06  4.27911284996618E+00
 cg2d: Sum(rhs),rhsMax =  -8.11886354767921E-06  4.27329379446698E+00
 cg2d: Sum(rhs),rhsMax =  -1.18770451535966E-05  4.26739301336029E+00
 cg2d: Sum(rhs),rhsMax =  -1.52645514219785E-05  4.26144702726478E+00
 cg2d: Sum(rhs),rhsMax =  -1.79964459903204E-05  4.25555458157614E+00
 cg2d: Sum(rhs),rhsMax =  -2.08009711570867E-05  4.24977590601176E+00
 cg2d: Sum(rhs),rhsMax =  -2.30289897729108E-05  4.24417317179161E+00
 cg2d: Sum(rhs),rhsMax =  -2.54242194728249E-05  4.23881440797140E+00
 cg2d: Sum(rhs),rhsMax =  -2.69896221425370E-05  4.23376858599404E+00
 cg2d: Sum(rhs),rhsMax =  -2.89038919447648E-05  4.22909356959237E+00
 cg2d: Sum(rhs),rhsMax =  -3.15950157983025E-05  4.22483242363408E+00
 cg2d: Sum(rhs),rhsMax =  -3.51714581370288E-05  4.22101140004827E+00
 cg2d: Sum(rhs),rhsMax =  -3.94072362155384E-05  4.21764141908782E+00
 cg2d: Sum(rhs),rhsMax =  -4.22086534968003E-05  4.21471932233948E+00
S/R EXTERNAL_FIELDS_LOAD: Reading new data:    1    2     72015  6.222096000000E+09
(PID.TID 0000.0001)  MDS_READ_FIELD: opening global file: trenberth_taux.bin
(PID.TID 0000.0001)  MDS_READ_FIELD: opening global file: trenberth_taux.bin
(PID.TID 0000.0001)  MDS_READ_FIELD: opening global file: trenberth_tauy.bin
(PID.TID 0000.0001)  MDS_READ_FIELD: opening global file: trenberth_tauy.bin
(PID.TID 0000.0001)  MDS_READ_FIELD: opening global file: shiQnet_cs32.bin
(PID.TID 0000.0001)  MDS_READ_FIELD: opening global file: shiQnet_cs32.bin
(PID.TID 0000.0001)  MDS_READ_FIELD: opening global file: shiEmPR_cs32.bin
(PID.TID 0000.0001)  MDS_READ_FIELD: opening global file: shiEmPR_cs32.bin
(PID.TID 0000.0001)  MDS_READ_FIELD: opening global file: lev_surfT_cs_12m.bin
(PID.TID 0000.0001)  MDS_READ_FIELD: opening global file: lev_surfT_cs_12m.bin
(PID.TID 0000.0001)  MDS_READ_FIELD: opening global file: lev_surfS_cs_12m.bin
(PID.TID 0000.0001)  MDS_READ_FIELD: opening global file: lev_surfS_cs_12m.bin
 cg2d: Sum(rhs),rhsMax =  -4.27383315582119E-05  4.21222998455271E+00
 cg2d: Sum(rhs),rhsMax =  -4.17902137712645E-05  4.21005386699143E+00
 cg2d: Sum(rhs),rhsMax =  -4.00894874417190E-05  4.20835830045941E+00
 cg2d: Sum(rhs),rhsMax =  -3.79548299065391E-05  4.20701954292839E+00
 cg2d: Sum(rhs),rhsMax =  -3.56218661750063E-05  4.20598324660787E+00
(PID.TID 0000.0001) %CHECKPOINT     72020 ckptA
(PID.TID 0000.0001)  MDS_READ_FIELD: opening global file: lev_T_cs_15k.bin
 --> objf_test(bi,bj)   =  0.213610947823582E+05
 --> objf_tracer(bi,bj) =  0.000000000000000E+00
 --> objf_atl(bi,bj)    =  0.000000000000000E+00
 --> objf_test(bi,bj)   =  0.114876404767153E+05
 --> objf_tracer(bi,bj) =  0.000000000000000E+00
 --> objf_atl(bi,bj)    =  0.000000000000000E+00
 --> objf_test(bi,bj)   =  0.181712047565192E+05
 --> objf_tracer(bi,bj) =  0.000000000000000E+00
 --> objf_atl(bi,bj)    =  0.000000000000000E+00
 --> objf_test(bi,bj)   =  0.231640448977239E+05
 --> objf_tracer(bi,bj) =  0.000000000000000E+00
 --> objf_atl(bi,bj)    =  0.000000000000000E+00
 --> objf_test(bi,bj)   =  0.145315985244005E+05
 --> objf_tracer(bi,bj) =  0.000000000000000E+00
 --> objf_atl(bi,bj)    =  0.000000000000000E+00
 --> objf_test(bi,bj)   =  0.124822578379345E+05
 --> objf_tracer(bi,bj) =  0.000000000000000E+00
 --> objf_atl(bi,bj)    =  0.000000000000000E+00
  local fc =  0.101197841275652E+06
 global fc =  0.101197841275652E+06
(PID.TID 0000.0001)  MDS_READ_FIELD: opening file: xx_theta.0000000000.001.001.data
(PID.TID 0000.0001)  MDS_READ_FIELD: opening file: xx_theta.0000000000.002.001.data
(PID.TID 0000.0001)  MDS_READ_FIELD: opening file: xx_theta.0000000000.003.001.data
(PID.TID 0000.0001)  MDS_READ_FIELD: opening file: xx_theta.0000000000.004.001.data
(PID.TID 0000.0001)  MDS_READ_FIELD: opening file: xx_theta.0000000000.005.001.data
(PID.TID 0000.0001)  MDS_READ_FIELD: opening file: xx_theta.0000000000.006.001.data
grad-res -------------------------------
 grad-res     0    4    4    1    1    1    1    1   0.101197870851E+06 0.101197900470E+06 0.101197841276E+06
 grad-res     0    4    4    4  639    1    1    1   0.295963365598E+01 0.295973874672E+01 -.355080228418E-04
(PID.TID 0000.0001)   ADM  precision_derivative_cost =    1.01197870850837E+05
(PID.TID 0000.0001)   ADM  precision_derivative_grad =    2.95963365598254E+00
 ph-grd  ierr ---------------------------
 ph-grd  ierr =  0, icomp =  4, ichknum =  4
(PID.TID 0000.0001) 
(PID.TID 0000.0001) // =======================================================
(PID.TID 0000.0001) // Gradient check results  >>> START <<<
(PID.TID 0000.0001) // =======================================================
(PID.TID 0000.0001) 
(PID.TID 0000.0001) 
(PID.TID 0000.0001)  EPS =  0.100E-01
(PID.TID 0000.0001) grdchk output:            procId               I        ITILEPOS        JTILEPOS           LAYER            X(I)      X(I)+/-EPS
(PID.TID 0000.0001) grdchk output:                                FC             FC1             FC2 FC1-FC2/(2*EPS)    ADJ GRAD(FC)   1-FDGRD/ADGRD
(PID.TID 0000.0001) grdchk output:                 0               1               1               1               1 0.000000000E+00 -.100000000E-01
(PID.TID 0000.0001) grdchk output:                   0.101197871E+06 0.101197904E+06 0.101197838E+06 0.329345538E+01 0.329349178E+01 0.110508275E-04
(PID.TID 0000.0001) 
(PID.TID 0000.0001) grdchk output:                 0               2               2               1               1 0.000000000E+00 -.100000000E-01
(PID.TID 0000.0001) grdchk output:                   0.101197871E+06 0.101197908E+06 0.101197834E+06 0.372190801E+01 0.372188889E+01 -.513548377E-05
(PID.TID 0000.0001) 
(PID.TID 0000.0001) grdchk output:                 0               3               3               1               1 0.000000000E+00 -.100000000E-01
(PID.TID 0000.0001) grdchk output:                   0.101197871E+06 0.101197905E+06 0.101197837E+06 0.338000254E+01 0.337997533E+01 -.804766784E-05
(PID.TID 0000.0001) 
(PID.TID 0000.0001) grdchk output:                 0               4               4               1               1 0.000000000E+00 -.100000000E-01
(PID.TID 0000.0001) grdchk output:                   0.101197871E+06 0.101197900E+06 0.101197841E+06 0.295973875E+01 0.295963366E+01 -.355080228E-04
(PID.TID 0000.0001) 
(PID.TID 0000.0001) 
(PID.TID 0000.0001) // =======================================================
(PID.TID 0000.0001) // Gradient check results  >>> END <<<
(PID.TID 0000.0001) // =======================================================
(PID.TID 0000.0001) 
(PID.TID 0000.0001)   Seconds in section "ALL                    [THE_MODEL_MAIN]":
(PID.TID 0000.0001)           User time:  762.472089
(PID.TID 0000.0001)         System time:  13.6959181
(PID.TID 0000.0001)     Wall clock time:  815.483507
(PID.TID 0000.0001)          No. starts: 1
(PID.TID 0000.0001)           No. stops: 1
(PID.TID 0000.0001)   Seconds in section "INITIALISE_FIXED       [THE_MODEL_MAIN]":
(PID.TID 0000.0001)           User time:  0.986849993
(PID.TID 0000.0001)         System time:  0.634904029
(PID.TID 0000.0001)     Wall clock time:  2.148242
(PID.TID 0000.0001)          No. starts: 1
(PID.TID 0000.0001)           No. stops: 1
(PID.TID 0000.0001)   Seconds in section "ADTHE_MAIN_LOOP          [ADJOINT RUN]":
(PID.TID 0000.0001)           User time:  345.259501
(PID.TID 0000.0001)         System time:  7.50585932
(PID.TID 0000.0001)     Wall clock time:  390.741711
(PID.TID 0000.0001)          No. starts: 1
(PID.TID 0000.0001)           No. stops: 1
(PID.TID 0000.0001)   Seconds in section "LOAD_FIELDS_DRIVER  [FORWARD_STEP]":
(PID.TID 0000.0001)           User time:  1.11967683
(PID.TID 0000.0001)         System time:  0.133978963
(PID.TID 0000.0001)     Wall clock time:  1.26618505
(PID.TID 0000.0001)          No. starts: 200
(PID.TID 0000.0001)           No. stops: 200
(PID.TID 0000.0001)   Seconds in section "EXTERNAL_FLDS_LOAD [LOAD_FLDS_DRIVER]":
(PID.TID 0000.0001)           User time:  1.10159516
(PID.TID 0000.0001)         System time:  0.12997973
(PID.TID 0000.0001)     Wall clock time:  1.24948454
(PID.TID 0000.0001)          No. starts: 200
(PID.TID 0000.0001)           No. stops: 200
(PID.TID 0000.0001)   Seconds in section "I/O (WRITE)        [ADJOINT LOOP]":
(PID.TID 0000.0001)           User time:  0.00798034668
(PID.TID 0000.0001)         System time:  0.00400066376
(PID.TID 0000.0001)     Wall clock time:  0.0126047134
(PID.TID 0000.0001)          No. starts: 300
(PID.TID 0000.0001)           No. stops: 300
(PID.TID 0000.0001)   Seconds in section "DO_ATMOSPHERIC_PHYS [FORWARD_STEP]":
(PID.TID 0000.0001)           User time:  0.00512695312
(PID.TID 0000.0001)         System time:  0.00100040436
(PID.TID 0000.0001)     Wall clock time:  0.00790190697
(PID.TID 0000.0001)          No. starts: 200
(PID.TID 0000.0001)           No. stops: 200
(PID.TID 0000.0001)   Seconds in section "DO_OCEANIC_PHYS     [FORWARD_STEP]":
(PID.TID 0000.0001)           User time:  101.269567
(PID.TID 0000.0001)         System time:  0.0999814272
(PID.TID 0000.0001)     Wall clock time:  101.42321
(PID.TID 0000.0001)          No. starts: 200
(PID.TID 0000.0001)           No. stops: 200
(PID.TID 0000.0001)   Seconds in section "DYNAMICS            [FORWARD_STEP]":
(PID.TID 0000.0001)           User time:  118.446045
(PID.TID 0000.0001)         System time:  0.052993536
(PID.TID 0000.0001)     Wall clock time:  118.531784
(PID.TID 0000.0001)          No. starts: 200
(PID.TID 0000.0001)           No. stops: 200
(PID.TID 0000.0001)   Seconds in section "SOLVE_FOR_PRESSURE  [FORWARD_STEP]":
(PID.TID 0000.0001)           User time:  51.0961561
(PID.TID 0000.0001)         System time:  0.0389934778
(PID.TID 0000.0001)     Wall clock time:  51.1720021
(PID.TID 0000.0001)          No. starts: 200
(PID.TID 0000.0001)           No. stops: 200
(PID.TID 0000.0001)   Seconds in section "MOM_CORRECTION_STEP [FORWARD_STEP]":
(PID.TID 0000.0001)           User time:  7.08954763
(PID.TID 0000.0001)         System time:  0.00599908829
(PID.TID 0000.0001)     Wall clock time:  7.10608792
(PID.TID 0000.0001)          No. starts: 200
(PID.TID 0000.0001)           No. stops: 200
(PID.TID 0000.0001)   Seconds in section "BLOCKING_EXCHANGES  [FORWARD_STEP]":
(PID.TID 0000.0001)           User time:  12.892616
(PID.TID 0000.0001)         System time:  0.0219964981
(PID.TID 0000.0001)     Wall clock time:  12.9157543
(PID.TID 0000.0001)          No. starts: 400
(PID.TID 0000.0001)           No. stops: 400
(PID.TID 0000.0001)   Seconds in section "THERMODYNAMICS      [FORWARD_STEP]":
(PID.TID 0000.0001)           User time:  182.850468
(PID.TID 0000.0001)         System time:  0.132974744
(PID.TID 0000.0001)     Wall clock time:  183.112176
(PID.TID 0000.0001)          No. starts: 200
(PID.TID 0000.0001)           No. stops: 200
(PID.TID 0000.0001)   Seconds in section "TRC_CORRECTION_STEP [FORWARD_STEP]":
(PID.TID 0000.0001)           User time:  1.87092257
(PID.TID 0000.0001)         System time:  0.00400078297
(PID.TID 0000.0001)     Wall clock time:  1.87735891
(PID.TID 0000.0001)          No. starts: 200
(PID.TID 0000.0001)           No. stops: 200
(PID.TID 0000.0001)   Seconds in section "MONITOR             [FORWARD_STEP]":
(PID.TID 0000.0001)           User time:  4.34430027
(PID.TID 0000.0001)         System time:  0.00399887562
(PID.TID 0000.0001)     Wall clock time:  4.34681535
(PID.TID 0000.0001)          No. starts: 200
(PID.TID 0000.0001)           No. stops: 200
(PID.TID 0000.0001)   Seconds in section "COST_TILE           [FORWARD_STEP]":
(PID.TID 0000.0001)           User time:  10.1420345
(PID.TID 0000.0001)         System time:  0.0299963951
(PID.TID 0000.0001)     Wall clock time:  10.1901228
(PID.TID 0000.0001)          No. starts: 200
(PID.TID 0000.0001)           No. stops: 200
(PID.TID 0000.0001)   Seconds in section "DO_THE_MODEL_IO     [FORWARD_STEP]":
(PID.TID 0000.0001)           User time:  3.85731077
(PID.TID 0000.0001)         System time:  5.19321537
(PID.TID 0000.0001)     Wall clock time:  9.79881787
(PID.TID 0000.0001)          No. starts: 200
(PID.TID 0000.0001)           No. stops: 200
(PID.TID 0000.0001)   Seconds in section "DO_WRITE_PICKUP     [FORWARD_STEP]":
(PID.TID 0000.0001)           User time:  1.9146347
(PID.TID 0000.0001)         System time:  1.80172825
(PID.TID 0000.0001)     Wall clock time:  3.889292
(PID.TID 0000.0001)          No. starts: 200
(PID.TID 0000.0001)           No. stops: 200
(PID.TID 0000.0001)   Seconds in section "GRDCHK_MAIN         [THE_MODEL_MAIN]":
(PID.TID 0000.0001)           User time:  416.225739
(PID.TID 0000.0001)         System time:  5.5551548
(PID.TID 0000.0001)     Wall clock time:  422.593358
(PID.TID 0000.0001)          No. starts: 1
(PID.TID 0000.0001)           No. stops: 1
(PID.TID 0000.0001)   Seconds in section "INITIALISE_VARIA    [THE_MAIN_LOOP]":
(PID.TID 0000.0001)           User time:  7.23898315
(PID.TID 0000.0001)         System time:  1.63075447
(PID.TID 0000.0001)     Wall clock time:  9.17694426
(PID.TID 0000.0001)          No. starts: 8
(PID.TID 0000.0001)           No. stops: 8
(PID.TID 0000.0001)   Seconds in section "MAIN LOOP           [THE_MAIN_LOOP]":
(PID.TID 0000.0001)           User time:  407.930969
(PID.TID 0000.0001)         System time:  3.24950504
(PID.TID 0000.0001)     Wall clock time:  411.552635
(PID.TID 0000.0001)          No. starts: 8
(PID.TID 0000.0001)           No. stops: 8
(PID.TID 0000.0001)   Seconds in section "FORWARD_STEP        [THE_MAIN_LOOP]":
(PID.TID 0000.0001)           User time:  392.156616
(PID.TID 0000.0001)         System time:  3.17951775
(PID.TID 0000.0001)     Wall clock time:  395.680137
(PID.TID 0000.0001)          No. starts: 160
(PID.TID 0000.0001)           No. stops: 160
(PID.TID 0000.0001)   Seconds in section "COST_FINAL         [ADJOINT SPIN-DOWN]":
(PID.TID 0000.0001)           User time:  0.257965088
(PID.TID 0000.0001)         System time:  0.0669870377
(PID.TID 0000.0001)     Wall clock time:  0.352441072
(PID.TID 0000.0001)          No. starts: 8
(PID.TID 0000.0001)           No. stops: 8
(PID.TID 0000.0001) // ======================================================
(PID.TID 0000.0001) // Tile <-> Tile communication statistics
(PID.TID 0000.0001) // ======================================================
(PID.TID 0000.0001) // o Tile number: 000001
(PID.TID 0000.0001) //         No. X exchanges =              0
(PID.TID 0000.0001) //            Max. X spins =              0
(PID.TID 0000.0001) //            Min. X spins =     1000000000
(PID.TID 0000.0001) //          Total. X spins =              0
(PID.TID 0000.0001) //            Avg. X spins =       0.00E+00
(PID.TID 0000.0001) //         No. Y exchanges =              0
(PID.TID 0000.0001) //            Max. Y spins =              0
(PID.TID 0000.0001) //            Min. Y spins =     1000000000
(PID.TID 0000.0001) //          Total. Y spins =              0
(PID.TID 0000.0001) //            Avg. Y spins =       0.00E+00
(PID.TID 0000.0001) // o Tile number: 000002
(PID.TID 0000.0001) //         No. X exchanges =              0
(PID.TID 0000.0001) //            Max. X spins =              0
(PID.TID 0000.0001) //            Min. X spins =     1000000000
(PID.TID 0000.0001) //          Total. X spins =              0
(PID.TID 0000.0001) //            Avg. X spins =       0.00E+00
(PID.TID 0000.0001) //         No. Y exchanges =              0
(PID.TID 0000.0001) //            Max. Y spins =              0
(PID.TID 0000.0001) //            Min. Y spins =     1000000000
(PID.TID 0000.0001) //          Total. Y spins =              0
(PID.TID 0000.0001) //            Avg. Y spins =       0.00E+00
(PID.TID 0000.0001) // o Tile number: 000003
(PID.TID 0000.0001) //         No. X exchanges =              0
(PID.TID 0000.0001) //            Max. X spins =              0
(PID.TID 0000.0001) //            Min. X spins =     1000000000
(PID.TID 0000.0001) //          Total. X spins =              0
(PID.TID 0000.0001) //            Avg. X spins =       0.00E+00
(PID.TID 0000.0001) //         No. Y exchanges =              0
(PID.TID 0000.0001) //            Max. Y spins =              0
(PID.TID 0000.0001) //            Min. Y spins =     1000000000
(PID.TID 0000.0001) //          Total. Y spins =              0
(PID.TID 0000.0001) //            Avg. Y spins =       0.00E+00
(PID.TID 0000.0001) // o Tile number: 000004
(PID.TID 0000.0001) //         No. X exchanges =              0
(PID.TID 0000.0001) //            Max. X spins =              0
(PID.TID 0000.0001) //            Min. X spins =     1000000000
(PID.TID 0000.0001) //          Total. X spins =              0
(PID.TID 0000.0001) //            Avg. X spins =       0.00E+00
(PID.TID 0000.0001) //         No. Y exchanges =              0
(PID.TID 0000.0001) //            Max. Y spins =              0
(PID.TID 0000.0001) //            Min. Y spins =     1000000000
(PID.TID 0000.0001) //          Total. Y spins =              0
(PID.TID 0000.0001) //            Avg. Y spins =       0.00E+00
(PID.TID 0000.0001) // o Tile number: 000005
(PID.TID 0000.0001) //         No. X exchanges =              0
(PID.TID 0000.0001) //            Max. X spins =              0
(PID.TID 0000.0001) //            Min. X spins =     1000000000
(PID.TID 0000.0001) //          Total. X spins =              0
(PID.TID 0000.0001) //            Avg. X spins =       0.00E+00
(PID.TID 0000.0001) //         No. Y exchanges =              0
(PID.TID 0000.0001) //            Max. Y spins =              0
(PID.TID 0000.0001) //            Min. Y spins =     1000000000
(PID.TID 0000.0001) //          Total. Y spins =              0
(PID.TID 0000.0001) //            Avg. Y spins =       0.00E+00
(PID.TID 0000.0001) // o Tile number: 000006
(PID.TID 0000.0001) //         No. X exchanges =              0
(PID.TID 0000.0001) //            Max. X spins =              0
(PID.TID 0000.0001) //            Min. X spins =     1000000000
(PID.TID 0000.0001) //          Total. X spins =              0
(PID.TID 0000.0001) //            Avg. X spins =       0.00E+00
(PID.TID 0000.0001) //         No. Y exchanges =              0
(PID.TID 0000.0001) //            Max. Y spins =              0
(PID.TID 0000.0001) //            Min. Y spins =     1000000000
(PID.TID 0000.0001) //          Total. Y spins =              0
(PID.TID 0000.0001) //            Avg. Y spins =       0.00E+00
(PID.TID 0000.0001) // o Thread number: 000001
(PID.TID 0000.0001) //            No. barriers =         386652
(PID.TID 0000.0001) //      Max. barrier spins =              1
(PID.TID 0000.0001) //      Min. barrier spins =              1
(PID.TID 0000.0001) //     Total barrier spins =         386652
(PID.TID 0000.0001) //      Avg. barrier spins =       1.00E+00
