(PID.TID 0000.0001) 
(PID.TID 0000.0001) // ======================================================
(PID.TID 0000.0001) //                      MITgcm UV
(PID.TID 0000.0001) //                      =========
(PID.TID 0000.0001) // ======================================================
(PID.TID 0000.0001) // execution environment starting up...
(PID.TID 0000.0001) // Run starting Wed Apr  1 14:19:48 1998
(PID.TID 0000.0001) // on melville.lcs.mit.edu
(PID.TID 0000.0001) // account cnh
(PID.TID 0000.0001) // MITgcm UV Release: $Name:  $
(PID.TID 0000.0001) 
(PID.TID 0000.0001) // =======================================================
(PID.TID 0000.0001) // Execution Environment parameter file "eedata"
(PID.TID 0000.0001) // =======================================================
(PID.TID 0000.0001) ># Example "eedata" file
(PID.TID 0000.0001) ># Lines beginning "#" are comments
(PID.TID 0000.0001) ># nTx - No. threads per process in X
(PID.TID 0000.0001) ># nTy - No. threads per process in Y
(PID.TID 0000.0001) > &EEPARMS
(PID.TID 0000.0001) > nTx=1,nTy=1
(PID.TID 0000.0001) > &
(PID.TID 0000.0001) ># Note: Some systems use & as the
(PID.TID 0000.0001) ># namelist terminator. Other systems
(PID.TID 0000.0001) ># use a / character (as shown here).
(PID.TID 0000.0001) ># BUT some compilers do not understand "/"
(PID.TID 0000.0001) 
(PID.TID 0000.0001) // =======================================================
(PID.TID 0000.0001) // Computational Grid Specification ( see files "SIZE.h" )
(PID.TID 0000.0001) //                                  ( and "eedata"       )
(PID.TID 0000.0001) // =======================================================
(PID.TID 0000.0001)      nPx =    1 ; /* No. processes in X */
(PID.TID 0000.0001)      nPy =    1 ; /* No. processes in Y */
(PID.TID 0000.0001)      nSx =    1 ; /* No. tiles in X per process */
(PID.TID 0000.0001)      nSy =    2 ; /* No. tiles in Y per process */
(PID.TID 0000.0001)      sNx =   90 ; /* Tile size in X */
(PID.TID 0000.0001)      sNy =   20 ; /* Tile size in Y */
(PID.TID 0000.0001)      OLx =    2 ; /* Tile overlap distance in X */
(PID.TID 0000.0001)      OLy =    2 ; /* Tile overlap distance in Y */
(PID.TID 0000.0001)      nTx =    1 ; /* No. threads in X per process */
(PID.TID 0000.0001)      nTy =    1 ; /* No. threads in Y per process */
(PID.TID 0000.0001)       Nr =   15 ; /* No. levels in the vertical   */
(PID.TID 0000.0001)       nX =   90 ; /* Total domain size in X ( = nPx*nSx*sNx ) */
(PID.TID 0000.0001)       nY =   40 ; /* Total domain size in Y ( = nPy*nSy*sNy ) */
(PID.TID 0000.0001)   nTiles =    2 ; /* Total no. tiles per process ( = nSx*nSy ) */
(PID.TID 0000.0001)   nProcs =    1 ; /* Total no. processes ( = nPx*nPy ) */
(PID.TID 0000.0001) nThreads =    1 ; /* Total no. threads per process ( = nTx*nTy ) */
(PID.TID 0000.0001) usingMPI =    F ; /* Flag used to control whether MPI is in use */
(PID.TID 0000.0001)                   /*  note: To execute a program with MPI calls */
(PID.TID 0000.0001)                   /*  it must be launched appropriately e.g     */
(PID.TID 0000.0001)                   /*  "mpirun -np 64 ......"                    */
(PID.TID 0000.0001) useCoupler=   F ; /* Flag used to control communications with */
(PID.TID 0000.0001)                   /*  other model components, through a coupler */
(PID.TID 0000.0001) 
(PID.TID 0000.0001) // ======================================================
(PID.TID 0000.0001) // Mapping of tiles to threads
(PID.TID 0000.0001) // ======================================================
(PID.TID 0000.0001) // -o- Thread   1, tiles (   1:   1,   1:   2)
(PID.TID 0000.0001) 
(PID.TID 0000.0001) // ======================================================
(PID.TID 0000.0001) // Tile <-> Tile connectvity table
(PID.TID 0000.0001) // ======================================================
(PID.TID 0000.0001) // Tile number: 000001 (process no. = 000001)
(PID.TID 0000.0001) //        WEST: Tile = 000001, Process = 000001, Comm = put
(PID.TID 0000.0001) //                bi = 000001, bj = 000001
(PID.TID 0000.0001) //        EAST: Tile = 000001, Process = 000001, Comm = put
(PID.TID 0000.0001) //                bi = 000001, bj = 000001
(PID.TID 0000.0001) //       SOUTH: Tile = 000002, Process = 000001, Comm = put
(PID.TID 0000.0001) //                bi = 000001, bj = 000002
(PID.TID 0000.0001) //       NORTH: Tile = 000002, Process = 000001, Comm = put
(PID.TID 0000.0001) //                bi = 000001, bj = 000002
(PID.TID 0000.0001) // Tile number: 000002 (process no. = 000001)
(PID.TID 0000.0001) //        WEST: Tile = 000002, Process = 000001, Comm = put
(PID.TID 0000.0001) //                bi = 000001, bj = 000002
(PID.TID 0000.0001) //        EAST: Tile = 000002, Process = 000001, Comm = put
(PID.TID 0000.0001) //                bi = 000001, bj = 000002
(PID.TID 0000.0001) //       SOUTH: Tile = 000001, Process = 000001, Comm = put
(PID.TID 0000.0001) //                bi = 000001, bj = 000001
(PID.TID 0000.0001) //       NORTH: Tile = 000001, Process = 000001, Comm = put
(PID.TID 0000.0001) //                bi = 000001, bj = 000001
(PID.TID 0000.0001) 
(PID.TID 0000.0001) // =======================================================
(PID.TID 0000.0001) // Model parameter file "data"
(PID.TID 0000.0001) // =======================================================
(PID.TID 0000.0001) ># ====================
(PID.TID 0000.0001) ># | Model parameters |
(PID.TID 0000.0001) ># ====================
(PID.TID 0000.0001) >#
(PID.TID 0000.0001) ># Continuous equation parameters
(PID.TID 0000.0001) > &PARM01
(PID.TID 0000.0001) > tRef=15*20.,
(PID.TID 0000.0001) > sRef=15*35.,
(PID.TID 0000.0001) > viscAh =3.E5,
(PID.TID 0000.0001) > no_slip_sides=.TRUE.,
(PID.TID 0000.0001) > viscAr =1.721611620915750e5,
(PID.TID 0000.0001) >#viscAz =1.67E-3,
(PID.TID 0000.0001) > no_slip_bottom=.FALSE.,
(PID.TID 0000.0001) > diffKhT=1.E3,
(PID.TID 0000.0001) > diffKrT=5.154525811125000e3,
(PID.TID 0000.0001) >#diffKzT=0.5E-4,
(PID.TID 0000.0001) > diffKhS=1.E3,
(PID.TID 0000.0001) > diffKrS=5.154525811125000e3,
(PID.TID 0000.0001) >#diffKzS=0.5E-4,
(PID.TID 0000.0001) > implicitDiffusion=.TRUE.,
(PID.TID 0000.0001) > ivdc_kappa=1.030905162225000e9,
(PID.TID 0000.0001) >#ivdc_kappa=10.0,
(PID.TID 0000.0001) > gravity=9.81,
(PID.TID 0000.0001) > rhonil=1035.,
(PID.TID 0000.0001) > rhoConstFresh=999.8,
(PID.TID 0000.0001) > buoyancyRelation='OCEANICP',
(PID.TID 0000.0001) > integr_GeoPot=1,
(PID.TID 0000.0001) > eosType='JMD95P',
(PID.TID 0000.0001) > useNHMTerms=.TRUE.,
(PID.TID 0000.0001) > rigidLid=.FALSE.,
(PID.TID 0000.0001) > implicitFreeSurface=.TRUE.,
(PID.TID 0000.0001) > exactConserv=.TRUE.,
(PID.TID 0000.0001) > nonlinFreeSurf=4,
(PID.TID 0000.0001) > hFacInf=0.2,
(PID.TID 0000.0001) > hFacSup=2.0,
(PID.TID 0000.0001) >#useRealFreshWaterFlux=.TRUE.,
(PID.TID 0000.0001) > readBinaryPrec=64,
(PID.TID 0000.0001) > writeBinaryPrec=64,
(PID.TID 0000.0001) > cosPower=0.5,
(PID.TID 0000.0001) > &
(PID.TID 0000.0001) >
(PID.TID 0000.0001) ># Elliptic solver parameters
(PID.TID 0000.0001) > &PARM02
(PID.TID 0000.0001) > cg2dMaxIters=200,
(PID.TID 0000.0001) > cg2dTargetResidual=1.E-9,
(PID.TID 0000.0001) > &
(PID.TID 0000.0001) >
(PID.TID 0000.0001) ># Time stepping parameters
(PID.TID 0000.0001) > &PARM03
(PID.TID 0000.0001) > startTime =           0.,
(PID.TID 0000.0001) > endTime   =     3456000.,
(PID.TID 0000.0001) ># after 100 years of intergration, one gets a reasonable flow field
(PID.TID 0000.0001) >#endTime   = 3110400000.,
(PID.TID 0000.0001) > deltaTmom      =   1200.0,
(PID.TID 0000.0001) > deltaTtracer   = 172800.0,
(PID.TID 0000.0001) > deltaTfreesurf = 172800.0,
(PID.TID 0000.0001) > deltaTClock    = 172800.0,
(PID.TID 0000.0001) > pChkptFreq  = 3110400000.,
(PID.TID 0000.0001) > dumpFreq    = 3110400000.,
(PID.TID 0000.0001) > taveFreq    = 3110400000.,
(PID.TID 0000.0001) > monitorFreq =   1.,
(PID.TID 0000.0001) > periodicExternalForcing=.TRUE.,
(PID.TID 0000.0001) > externForcingPeriod=2592000.,
(PID.TID 0000.0001) > externForcingCycle=31104000.,
(PID.TID 0000.0001) > tauThetaClimRelax=5184000.0,
(PID.TID 0000.0001) > abEps=0.1,
(PID.TID 0000.0001) > &
(PID.TID 0000.0001) >
(PID.TID 0000.0001) ># Gridding parameters
(PID.TID 0000.0001) > &PARM04
(PID.TID 0000.0001) > usingCartesianGrid=.FALSE.,
(PID.TID 0000.0001) > usingSphericalPolarGrid=.TRUE.,
(PID.TID 0000.0001) > dXspacing=4.,
(PID.TID 0000.0001) > dYspacing=4.,
(PID.TID 0000.0001) > Ro_SeaLevel=53023122.566084,
(PID.TID 0000.0001) > groundAtK1=.TRUE.,
(PID.TID 0000.0001) > delR=7103300.720021, 6570548.440790, 6041670.010249,
(PID.TID 0000.0001) >      5516436.666057, 4994602.034410, 4475903.435290,
(PID.TID 0000.0001) >      3960063.245801, 3446790.312651, 2935781.405664,
(PID.TID 0000.0001) >      2426722.705046, 1919291.315988, 1413156.804970,
(PID.TID 0000.0001) >      1008846.750166,  705919.025481,  504089.693499,
(PID.TID 0000.0001) > phiMin=-80.,
(PID.TID 0000.0001) > &
(PID.TID 0000.0001) >
(PID.TID 0000.0001) ># Input datasets
(PID.TID 0000.0001) > &PARM05
(PID.TID 0000.0001) > topoFile       ='topog.bin',
(PID.TID 0000.0001) > pLoadFile      ='deltageopotjmd95.bin',
(PID.TID 0000.0001) > hydrogThetaFile='lev_t.bin',
(PID.TID 0000.0001) > hydrogSaltFile ='lev_s.bin',
(PID.TID 0000.0001) > zonalWindFile  ='trenberth_taux.bin',
(PID.TID 0000.0001) > meridWindFile  ='trenberth_tauy.bin',
(PID.TID 0000.0001) > thetaClimFile  ='lev_sst.bin',
(PID.TID 0000.0001) >#saltClimFile   ='lev_sss.bin',
(PID.TID 0000.0001) > surfQFile      ='shi_qnet.bin',
(PID.TID 0000.0001) > EmPmRFile      ='shi_empmr.bin',
(PID.TID 0000.0001) > &
(PID.TID 0000.0001) 
(PID.TID 0000.0001) S/R INI_PARMS ; read PARM01 : OK
(PID.TID 0000.0001) S/R INI_PARMS ; read PARM02 : OK
(PID.TID 0000.0001) S/R INI_PARMS ; read PARM03 : OK
(PID.TID 0000.0001) S/R INI_PARMS ; read PARM04 : OK
(PID.TID 0000.0001) S/R INI_PARMS ; read PARM05 : OK
(PID.TID 0000.0001) %MON XC_max                       =   3.5800000000000E+02
(PID.TID 0000.0001) %MON XC_min                       =   2.0000000000000E+00
(PID.TID 0000.0001) %MON XC_mean                      =   1.8000000000000E+02
(PID.TID 0000.0001) %MON XC_sd                        =   1.0391663325314E+02
(PID.TID 0000.0001) %MON XG_max                       =   3.5600000000000E+02
(PID.TID 0000.0001) %MON XG_min                       =   4.0000000000000E+00
(PID.TID 0000.0001) %MON XG_mean                      =   1.8000000000000E+02
(PID.TID 0000.0001) %MON XG_sd                        =   1.0276186062932E+02
(PID.TID 0000.0001) %MON DXC_max                      =   4.4443898815675E+05
(PID.TID 0000.0001) %MON DXC_min                      =   9.2460385861875E+04
(PID.TID 0000.0001) %MON DXC_mean                     =   3.1372497618153E+05
(PID.TID 0000.0001) %MON DXC_sd                       =   1.1216447457560E+05
(PID.TID 0000.0001) %MON DXF_max                      =   4.4443898815675E+05
(PID.TID 0000.0001) %MON DXF_min                      =   9.2460385861875E+04
(PID.TID 0000.0001) %MON DXF_mean                     =   3.1372497618153E+05
(PID.TID 0000.0001) %MON DXF_sd                       =   1.1216447457560E+05
(PID.TID 0000.0001) %MON DXG_max                      =   4.4470989340816E+05
(PID.TID 0000.0001) %MON DXG_min                      =   7.7223062580781E+04
(PID.TID 0000.0001) %MON DXG_mean                     =   3.1353386340261E+05
(PID.TID 0000.0001) %MON DXG_sd                       =   1.1256651772502E+05
(PID.TID 0000.0001) %MON DXV_max                      =   4.4470989340816E+05
(PID.TID 0000.0001) %MON DXV_min                      =   7.7223062580781E+04
(PID.TID 0000.0001) %MON DXV_mean                     =   3.1353386340261E+05
(PID.TID 0000.0001) %MON DXV_sd                       =   1.1256651772502E+05
(PID.TID 0000.0001) %MON YC_max                       =   7.8000000000000E+01
(PID.TID 0000.0001) %MON YC_min                       =  -7.8000000000000E+01
(PID.TID 0000.0001) %MON YC_mean                      =   0.0000000000000E+00
(PID.TID 0000.0001) %MON YC_sd                        =   4.6173585522461E+01
(PID.TID 0000.0001) %MON YG_max                       =   7.6000000000000E+01
(PID.TID 0000.0001) %MON YG_min                       =  -8.0000000000000E+01
(PID.TID 0000.0001) %MON YG_mean                      =  -2.0512820512821E+00
(PID.TID 0000.0001) %MON YG_sd                        =   4.6760682979564E+01
(PID.TID 0000.0001) %MON DYC_max                      =   4.4470989340816E+05
(PID.TID 0000.0001) %MON DYC_min                      =   4.4470989340816E+05
(PID.TID 0000.0001) %MON DYC_mean                     =   4.4470989340817E+05
(PID.TID 0000.0001) %MON DYC_sd                       =   1.4668330550194E-08
(PID.TID 0000.0001) %MON DYF_max                      =   4.4470989340816E+05
(PID.TID 0000.0001) %MON DYF_min                      =   4.4470989340816E+05
(PID.TID 0000.0001) %MON DYF_mean                     =   4.4470989340817E+05
(PID.TID 0000.0001) %MON DYF_sd                       =   1.4668330550194E-08
(PID.TID 0000.0001) %MON DYG_max                      =   4.4470989340816E+05
(PID.TID 0000.0001) %MON DYG_min                      =   4.4470989340816E+05
(PID.TID 0000.0001) %MON DYG_mean                     =   4.4470989340817E+05
(PID.TID 0000.0001) %MON DYG_sd                       =   1.4668330550194E-08
(PID.TID 0000.0001) %MON DYU_max                      =   4.4470989340816E+05
(PID.TID 0000.0001) %MON DYU_min                      =   4.4470989340816E+05
(PID.TID 0000.0001) %MON DYU_mean                     =   4.4470989340817E+05
(PID.TID 0000.0001) %MON DYU_sd                       =   1.4668330550194E-08
(PID.TID 0000.0001) %MON RA_max                       =   1.9760627980089E+11
(PID.TID 0000.0001) %MON RA_min                       =   4.1109698667290E+10
(PID.TID 0000.0001) %MON RA_mean                      =   1.3948826965196E+11
(PID.TID 0000.0001) %MON RA_sd                        =   4.9870522472901E+10
(PID.TID 0000.0001) %MON RAW_max                      =   1.9760627980089E+11
(PID.TID 0000.0001) %MON RAW_min                      =   4.1109698667290E+10
(PID.TID 0000.0001) %MON RAW_mean                     =   1.3948826965196E+11
(PID.TID 0000.0001) %MON RAW_sd                       =   4.9870522472901E+10
(PID.TID 0000.0001) %MON RAS_max                      =   1.9772672958215E+11
(PID.TID 0000.0001) %MON RAS_min                      =   3.4334886267982E+10
(PID.TID 0000.0001) %MON RAS_mean                     =   1.3940329716694E+11
(PID.TID 0000.0001) %MON RAS_sd                       =   5.0049278732353E+10
(PID.TID 0000.0001) %MON RAZ_max                      =   1.9772672958215E+11
(PID.TID 0000.0001) %MON RAZ_min                      =   3.4334886267982E+10
(PID.TID 0000.0001) %MON RAZ_mean                     =   1.3940329716694E+11
(PID.TID 0000.0001) %MON RAZ_sd                       =   5.0049278732353E+10
(PID.TID 0000.0001)  MDSREADFIELD: opening global file: topog.bin
(PID.TID 0000.0001) // =======================================================
(PID.TID 0000.0001) // Field Model R_low (ini_masks_etc) at iteration          1
(PID.TID 0000.0001) // CMIN =          1.008622348308563E-06
(PID.TID 0000.0001) // CMAX =          1.008622348308563E-06
(PID.TID 0000.0001) // CINT =          0.000000000000000E+00
(PID.TID 0000.0001) // SYMBOLS (CMIN->CMAX): -abcdefghijklmnopqrstuvwxyz+
(PID.TID 0000.0001) //                  0.0: .
(PID.TID 0000.0001) // RANGE I (Lo:Hi:Step):(  -1:  92:   1)
(PID.TID 0000.0001) // RANGE J (Lo:Hi:Step):(  42:  -1:  -1)
(PID.TID 0000.0001) // RANGE K (Lo:Hi:Step):(   1:   1:   1)
(PID.TID 0000.0001) // =======================================================
(PID.TID 0000.0001) // =======================================================
(PID.TID 0000.0001) // END OF FIELD                                          =
(PID.TID 0000.0001) // =======================================================
(PID.TID 0000.0001) 
(PID.TID 0000.0001) // =======================================================
(PID.TID 0000.0001) // Field Model Ro_surf (ini_masks_etc) at iteration          1
(PID.TID 0000.0001) // CMIN =          1.008622348308563E-06
(PID.TID 0000.0001) // CMAX =          5.302312256608400E+07
(PID.TID 0000.0001) // CINT =          1.963819354299370E+06
(PID.TID 0000.0001) // SYMBOLS (CMIN->CMAX): -abcdefghijklmnopqrstuvwxyz+
(PID.TID 0000.0001) //                  0.0: .
(PID.TID 0000.0001) // RANGE I (Lo:Hi:Step):(  -1:  92:   1)
(PID.TID 0000.0001) // RANGE J (Lo:Hi:Step):(  42:  -1:  -1)
(PID.TID 0000.0001) // RANGE K (Lo:Hi:Step):(   1:   1:   1)
(PID.TID 0000.0001) // =======================================================
(PID.TID 0000.0001) K =   1
(PID.TID 0000.0001) //                I=8       I=18      I=28      I=38      I=48      I=58      I=68      I=78      I=88
(PID.TID 0000.0001) // |--J--|*01234567|901234567|901234567|901234567|901234567|901234567|901234567|901234567|901234567|9012
(PID.TID 0000.0001) //     42 --------------------------------------------bbcdnttwwwttttqnnlfddc--abcc-----ccbcltttttba-----
(PID.TID 0000.0001) //     41 ----------------------------------------------------------------------------------------------
(PID.TID 0000.0001) //     40 innllaa-aaaaaaaaaaaaa------------------------------------------------------------------aaainnl
(PID.TID 0000.0001) //     39 gnnllibbaaaaaaaa---aa-----------------------------------------------------bdda--------abffgnnl
(PID.TID 0000.0001) //     38 nllllibbaaaaaaa-----------------------------------------------------------bddca------bccfgnlll
(PID.TID 0000.0001) //     37 nnnga------------------------------------------------------------------aa---bca---bggc--agnnng
(PID.TID 0000.0001) //     36 fgga-----------------------------------------nnaa--------------------aaaaaaabnnn-bllfggffcfgga
(PID.TID 0000.0001) //     35 aaaa---------------------------------aaaa--iinnqqa---atttn-----------aaa----annqqqnglllgddaaaa
(PID.TID 0000.0001) //     34 -------------------------------------affc-tticcfab-wwwttttn------------------anqttqqqtttna----
(PID.TID 0000.0001) //     33 a-------------------------------------ffa+++t+++++++++wwwtqna-----------------aifwwtnttttda---
(PID.TID 0000.0001) //     32 a-------------------------------------ag++++t++++++++++wwttnn----------------aaatwttqltttna---
(PID.TID 0000.0001) //     31 --------------------------------------++++++w++++++++++wwwtqn--------------iw++twwwtiltwwn----
(PID.TID 0000.0001) //     30 -------------------------------------t++++w++w+++++++++++++ww------------at++++twwwlgqtwwq----
(PID.TID 0000.0001) //     29 -----------------------------------gf++++t+++tqt+++++++++++wwt-----------w++w+++wtnqq++wtq----
(PID.TID 0000.0001) //     28 ---------------------------------actn+++++++++++++++++++wwwwwtq---------iw++++++wntww++wqa----
(PID.TID 0000.0001) //     27 ----------------cc--------------aftttlt++++++++w+nnw+++wwwwwwttt---aaac-iw++++++qt+++++t------
(PID.TID 0000.0001) //     26 ----------------cnn-----------afw+++wl+++++++++++qwtn++++++wwtttqg-aa-ii-c++++++tw++++wq------
(PID.TID 0000.0001) //     25 ----------------qttq---lla---atfw+++wl+++ww++qqtnt+++++++++wwtttqnn---iifnac+++wqw++wwqq------
(PID.TID 0000.0001) //     24 --------------cntwwtg-qqqa---ftt-++twn+++++++++++++++++++wwwwwttqnqqqf-afnnddwwwtw++++wt------
(PID.TID 0000.0001) //     23 --------------dttwwtl-ttqd---fff--tqtq++++ttw+++++w++++++wwwwwttqqqqqql----bbqwwwt++++ww------
(PID.TID 0000.0001) //     22 gii-----------wwwqttgnttqq---bb-dlqwwlltwwwwt++++++wt+w++wwwwwwtttqqqqii------dwwwttwwtwwigii-
(PID.TID 0000.0001) //     21 ++wqi--------nwwwwqtiwwwqqb-----dltwwqtttnwwt++++++wqwwwwwwwwwttttqnnill--------twwtqttwww++wq
(PID.TID 0000.0001) //     20 ++wwi-------nwwwwwtqwwwwqww------b-fqqqgiltttt+++++++wwwwwwwwwwtttqttqqn---------ntt+++ttw++ww
(PID.TID 0000.0001) //     19 ww++t-------qwwlittl+++qwwwwd---aba-----iannww++++t++++wwwwwwwwttqtttttt-----------w+++wqtww++
(PID.TID 0000.0001) //     22 gii-----------wwwqttgnttqq---bb-dlqwwlltwwwwt++++++wt+w++wwwwwwtttqqqqii------dwwwttwwtwwigii-
(PID.TID 0000.0001) //     21 ++wqi--------nwwwwqtiwwwqqb-----dltwwqtttnwwt++++++wqwwwwwwwwwttttqnnill--------twwtqttwww++wq
(PID.TID 0000.0001) //     20 ++wwi-------nwwwwwtqwwwwqww------b-fqqqgiltttt+++++++wwwwwwwwwwtttqttqqn---------ntt+++ttw++ww
(PID.TID 0000.0001) //     19 ww++t-------qwwlittl+++qwwwwd---aba-----iannww++++t++++wwwwwwwwttqtttttt-----------w+++wqtww++
(PID.TID 0000.0001) //     18 w+++w-------qtnttfqq+++qwww++w+qfaa---iiblntwwwwtwtq+++wwtwwwwwtqtttttwwa----------w+++wqtw+++
(PID.TID 0000.0001) //     17 w+++w-------q-twwdqt+++l+++++++qf-----iilnninnnltwww++wwwttttttnqttqtwwwq---------tw+++wqtw+++
(PID.TID 0000.0001) //     16 w+++w------gn-wwtnntw++i++++++nf-------flnnfnnndf+++wwqflnttttqntttttwwwqt--------it+++wqtw+++
(PID.TID 0000.0001) //     15 w++wlb----aqq-wwwttnwwwnw+++++f---------lggdllnf++++wwwwwtqtttqqtttttwwqttt------atw+++wqtw++w
(PID.TID 0000.0001) //     14 w++nwn----dwwi+++tqqqtwnw++w+tb---------ttgglttg++++++wwtwttqqqnqttqqqqtttt-----aqtw+++wntw++n
(PID.TID 0000.0001) //     13 wwn++t----nwwl+++qwwtqttliiw++n---------wwggittg++++++++wwwtttqqnqqttqttttl----aqttlwwwtntwwn+
(PID.TID 0000.0001) //     12 tt+++wdaqttwwnwntwwwtntqttww++wt+++a----wwigiilw+++++++++wwqtttqqqqqtttttt-----qwwwwttttnttt++
(PID.TID 0000.0001) //     11 tw+++w++qtwwwnnt++wwtlttttwww++++++++--wwwwng-nw+w+++++++++wwwtqntttqqtttt----n+++++wwtqnqtw++
(PID.TID 0000.0001) //     10 tw++ww+w++wtiqqt++wwtqnnnqttwwww+++++w-wwwwtd-nbiw+++++++++wwwtqnttwwttqtq--ad++++++wwttnqtw++
(PID.TID 0000.0001) //      9 ttwwwww+++llglntwtwtqqqttnnnttwwwwwwwwnwwwwt-fbt+++++++++++wwwtnqttwwwttqf-aad++++++wwwtqnttww
(PID.TID 0000.0001) //      8 tttqqqw++twwttwwwwfblqttttttnqqqttqqqtwtwwticfw++++++wwwwwwwttqnttwwwwwwta-aacttn++wtwwwtntttq
(PID.TID 0000.0001) //      7 ninnwwqqt++wnw++wwtgcqtwwwttwwwwwwwttnttwwntw++++++wwwwtttqtqnnttwww+++wwt-aaaintgfqtqwwwtninn
(PID.TID 0000.0001) //      6 w++++++++++++++++wwwnggwwwwwwwwwwwwwwtqqqqttw++++wwwtqnnqnwtww+++w+w+++wwwtqqqqtilnniwtqtww+++
(PID.TID 0000.0001) //      5 +++++++++++++++++wwwttttwwwwwwwwwwwwwtqqqlnlwwwwtttnnnqtwwww++++++++w+wwwwtqqqgitwwwwww+++++++
(PID.TID 0000.0001) //      4 ++tw++++++wwwqttttqqqttqqlbdnnllqqlnqqqqqnnnlnqlnnntttwwwwww+++++++wwwwwttnb--cqtwwwwww+++++tw
(PID.TID 0000.0001) //      3 ttttilqqqdcc----------------------------cclgnqqqqttwwwwwwwwwtttttwwwwttqqbb--ciqtwwwwwwwwttttt
(PID.TID 0000.0001) //      2 --------------------------------------------bbcdnttwwwttttqnnlfddc--abcc-----ccbcltttttba-----
(PID.TID 0000.0001) //      1 ----------------------------------------------------------------------------------------------
(PID.TID 0000.0001) //      0 innllaa-aaaaaaaaaaaaa------------------------------------------------------------------aaainnl
(PID.TID 0000.0001) //     -1 gnnllibbaaaaaaaa---aa-----------------------------------------------------bdda--------abffgnnl
(PID.TID 0000.0001) // =======================================================
(PID.TID 0000.0001) // END OF FIELD                                          =
(PID.TID 0000.0001) // =======================================================
(PID.TID 0000.0001) 
(PID.TID 0000.0001) // =======================================================
(PID.TID 0000.0001) // Field hFacC at iteration          1
(PID.TID 0000.0001) // CMIN =          1.000000000000000E+00
(PID.TID 0000.0001) // CMAX =          1.000000000000000E+00
(PID.TID 0000.0001) // CINT =          0.000000000000000E+00
(PID.TID 0000.0001) // SYMBOLS (CMIN->CMAX): -abcdefghijklmnopqrstuvwxyz+
(PID.TID 0000.0001) //                  0.0: .
(PID.TID 0000.0001) // RANGE I (Lo:Hi:Step):(  -1:  92:   1)
(PID.TID 0000.0001) // RANGE J (Lo:Hi:Step):(  42:  -1:  -1)
(PID.TID 0000.0001) // RANGE K (Lo:Hi:Step):(   1:   1:   1)
(PID.TID 0000.0001) // =======================================================
(PID.TID 0000.0001) // =======================================================
(PID.TID 0000.0001) // END OF FIELD                                          =
(PID.TID 0000.0001) // =======================================================
(PID.TID 0000.0001) 
(PID.TID 0000.0001) // =======================================================
(PID.TID 0000.0001) // Field hFacW at iteration          1
(PID.TID 0000.0001) // CMIN =          1.000000000000000E+00
(PID.TID 0000.0001) // CMAX =          1.000000000000000E+00
(PID.TID 0000.0001) // CINT =          0.000000000000000E+00
(PID.TID 0000.0001) // SYMBOLS (CMIN->CMAX): -abcdefghijklmnopqrstuvwxyz+
(PID.TID 0000.0001) //                  0.0: .
(PID.TID 0000.0001) // RANGE I (Lo:Hi:Step):(  -1:  92:   1)
(PID.TID 0000.0001) // RANGE J (Lo:Hi:Step):(  42:  -1:  -1)
(PID.TID 0000.0001) // RANGE K (Lo:Hi:Step):(   1:   1:   1)
(PID.TID 0000.0001) // =======================================================
(PID.TID 0000.0001) // =======================================================
(PID.TID 0000.0001) // END OF FIELD                                          =
(PID.TID 0000.0001) // =======================================================
(PID.TID 0000.0001) 
(PID.TID 0000.0001) // =======================================================
(PID.TID 0000.0001) // Field hFacS at iteration          1
(PID.TID 0000.0001) // CMIN =          1.000000000000000E+00
(PID.TID 0000.0001) // CMAX =          1.000000000000000E+00
(PID.TID 0000.0001) // CINT =          0.000000000000000E+00
(PID.TID 0000.0001) // SYMBOLS (CMIN->CMAX): -abcdefghijklmnopqrstuvwxyz+
(PID.TID 0000.0001) //                  0.0: .
(PID.TID 0000.0001) // RANGE I (Lo:Hi:Step):(  -1:  92:   1)
(PID.TID 0000.0001) // RANGE J (Lo:Hi:Step):(  42:  -1:  -1)
(PID.TID 0000.0001) // RANGE K (Lo:Hi:Step):(   1:   1:   1)
(PID.TID 0000.0001) // =======================================================
(PID.TID 0000.0001) // =======================================================
(PID.TID 0000.0001) // END OF FIELD                                          =
(PID.TID 0000.0001) // =======================================================
(PID.TID 0000.0001) 
(PID.TID 0000.0001)  PACKAGES_BOOT: opening data.pkg
(PID.TID 0000.0001)  OPEN_COPY_DATA_FILE: opening file data.pkg
(PID.TID 0000.0001) // =======================================================
(PID.TID 0000.0001) // Parameter file "data.pkg"
(PID.TID 0000.0001) // =======================================================
(PID.TID 0000.0001) ># Packages
(PID.TID 0000.0001) > &PACKAGES
(PID.TID 0000.0001) > &
(PID.TID 0000.0001) 
(PID.TID 0000.0001)  PACKAGES_BOOT: finished reading data.pkg
(PID.TID 0000.0001) 
(PID.TID 0000.0001) // ===================================
(PID.TID 0000.0001) // GAD parameters :
(PID.TID 0000.0001) // ===================================
(PID.TID 0000.0001) tempAdvScheme =   /* Temp. advection scheme selector */
(PID.TID 0000.0001)                       2
(PID.TID 0000.0001)     ;
(PID.TID 0000.0001) tempMultiDimAdvec =   /* use Muti-Dim Advec method for Temp */
(PID.TID 0000.0001)                   F
(PID.TID 0000.0001)     ;
(PID.TID 0000.0001) tempAdamsBashforth =   /* use Adams-Bashforth time-stepping for Temp */
(PID.TID 0000.0001)                   T
(PID.TID 0000.0001)     ;
(PID.TID 0000.0001) saltAdvScheme =   /* Salt. advection scheme selector */
(PID.TID 0000.0001)                       2
(PID.TID 0000.0001)     ;
(PID.TID 0000.0001) saltMultiDimAdvec =   /* use Muti-Dim Advec method for Salt */
(PID.TID 0000.0001)                   F
(PID.TID 0000.0001)     ;
(PID.TID 0000.0001) saltAdamsBashforth =   /* use Adams-Bashforth time-stepping for Salt */
(PID.TID 0000.0001)                   T
(PID.TID 0000.0001)     ;
(PID.TID 0000.0001) // ===================================
(PID.TID 0000.0001) %MON fCori_max                    =   1.4226580169407E-04
(PID.TID 0000.0001) %MON fCori_min                    =  -1.4226580169407E-04
(PID.TID 0000.0001) %MON fCori_mean                   =  -2.6213599192538E-19
(PID.TID 0000.0001) %MON fCori_sd                     =   9.6335367303779E-05
(PID.TID 0000.0001) %MON fCoriG_max                   =   1.4112379284621E-04
(PID.TID 0000.0001) %MON fCoriG_min                   =  -1.4323448157692E-04
(PID.TID 0000.0001) %MON fCoriG_mean                  =  -3.6726790147922E-06
(PID.TID 0000.0001) %MON fCoriG_sd                    =   9.7510077443651E-05
(PID.TID 0000.0001) %MON fCoriCos_max                 =   1.4535550371427E-04
(PID.TID 0000.0001) %MON fCoriCos_min                 =   3.0239529651320E-05
(PID.TID 0000.0001) %MON fCoriCos_mean                =   1.0260497651149E-04
(PID.TID 0000.0001) %MON fCoriCos_sd                  =   3.6683828681187E-05
(PID.TID 0000.0001) // CG2D normalisation factor =          0.6002578945994698667540502E-08
(PID.TID 0000.0001) 
(PID.TID 0000.0001) CONFIG_CHECK: OK
(PID.TID 0000.0001) // =======================================================
(PID.TID 0000.0001) // Model configuration
(PID.TID 0000.0001) // =======================================================
(PID.TID 0000.0001) //
(PID.TID 0000.0001) // "Physical" paramters ( PARM01 in namelist )
(PID.TID 0000.0001) //
(PID.TID 0000.0001) buoyancyRelation = OCEANICP
(PID.TID 0000.0001) tRef =   /* Reference temperature profile ( oC or oK ) */
(PID.TID 0000.0001)    15 @  2.000000000000000E+01              /* K =  1: 15 */
(PID.TID 0000.0001)     ;
(PID.TID 0000.0001) sRef =   /* Reference salinity profile ( ppt ) */
(PID.TID 0000.0001)    15 @  3.500000000000000E+01              /* K =  1: 15 */
(PID.TID 0000.0001)     ;
(PID.TID 0000.0001) viscAh =   /* Lateral eddy viscosity ( m^2/s ) */
(PID.TID 0000.0001)                 3.000000000000000E+05
(PID.TID 0000.0001)     ;
(PID.TID 0000.0001) viscA4 =   /* Lateral biharmonic viscosity ( m^4/s ) */
(PID.TID 0000.0001)                 0.000000000000000E+00
(PID.TID 0000.0001)     ;
(PID.TID 0000.0001) no_slip_sides =  /* Viscous BCs: No-slip sides */
(PID.TID 0000.0001)                   T
(PID.TID 0000.0001)     ;
(PID.TID 0000.0001) viscAr =   /* Vertical eddy viscosity ( units of r^2/s ) */
(PID.TID 0000.0001)                 1.721611620915750E+05
(PID.TID 0000.0001)     ;
(PID.TID 0000.0001) diffKhT =   /* Laplacian diffusion of heat laterally ( m^2/s ) */
(PID.TID 0000.0001)                 1.000000000000000E+03
(PID.TID 0000.0001)     ;
(PID.TID 0000.0001) diffK4T =   /* Bihaarmonic diffusion of heat laterally ( m^4/s ) */
(PID.TID 0000.0001)                 0.000000000000000E+00
(PID.TID 0000.0001)     ;
(PID.TID 0000.0001) diffKrT =   /* Laplacian diffusion of heat vertically ( m^2/s ) */
(PID.TID 0000.0001)                 5.154525811125000E+03
(PID.TID 0000.0001)     ;
(PID.TID 0000.0001) diffKhS =   /* Laplacian diffusion of salt laterally ( m^2/s ) */
(PID.TID 0000.0001)                 1.000000000000000E+03
(PID.TID 0000.0001)     ;
(PID.TID 0000.0001) diffK4S =   /* Bihaarmonic diffusion of salt laterally ( m^4/s ) */
(PID.TID 0000.0001)                 0.000000000000000E+00
(PID.TID 0000.0001)     ;
(PID.TID 0000.0001) diffKrS =   /* Laplacian diffusion of salt vertically ( m^2/s ) */
(PID.TID 0000.0001)                 5.154525811125000E+03
(PID.TID 0000.0001)     ;
(PID.TID 0000.0001)  Equation of State : eosType = JMD95P
(PID.TID 0000.0001) tAlpha =   /* Linear EOS thermal expansion coefficient ( 1/degree ) */
(PID.TID 0000.0001)                 1.234567000000000E+05
(PID.TID 0000.0001)     ;
(PID.TID 0000.0001) sBeta =   /* Linear EOS haline contraction coefficient ( 1/ppt ) */
(PID.TID 0000.0001)                 1.234567000000000E+05
(PID.TID 0000.0001)     ;
(PID.TID 0000.0001) rhonil =   /* Reference density ( kg/m^3 ) */
(PID.TID 0000.0001)                 1.035000000000000E+03
(PID.TID 0000.0001)     ;
(PID.TID 0000.0001) rhoConst =   /* Reference density ( kg/m^3 ) */
(PID.TID 0000.0001)                 1.035000000000000E+03
(PID.TID 0000.0001)     ;
(PID.TID 0000.0001) rhoConstFresh =   /* Reference density ( kg/m^3 ) */
(PID.TID 0000.0001)                 9.998000000000000E+02
(PID.TID 0000.0001)     ;
(PID.TID 0000.0001) gravity =   /* Gravitational acceleration ( m/s^2 ) */
(PID.TID 0000.0001)                 9.810000000000000E+00
(PID.TID 0000.0001)     ;
(PID.TID 0000.0001) gBaro =   /* Barotropic gravity ( m/s^2 ) */
(PID.TID 0000.0001)                 9.810000000000000E+00
(PID.TID 0000.0001)     ;
(PID.TID 0000.0001) rotationPeriod =   /* Rotation Period ( s ) */
(PID.TID 0000.0001)                 8.640000000000000E+04
(PID.TID 0000.0001)     ;
(PID.TID 0000.0001) omega =   /* Angular velocity ( rad/s ) */
(PID.TID 0000.0001)                 7.272205216643040E-05
(PID.TID 0000.0001)     ;
(PID.TID 0000.0001) f0 =   /* Reference coriolis parameter ( 1/s ) */
(PID.TID 0000.0001)                 1.000000000000000E-04
(PID.TID 0000.0001)     ;
(PID.TID 0000.0001) beta =   /* Beta ( 1/(m.s) ) */
(PID.TID 0000.0001)                 9.999999999999999E-12
(PID.TID 0000.0001)     ;
(PID.TID 0000.0001) freeSurfFac =   /* Implicit free surface factor */
(PID.TID 0000.0001)                 1.000000000000000E+00
(PID.TID 0000.0001)     ;
(PID.TID 0000.0001) implicitFreeSurface =   /* Implicit free surface on/off flag */
(PID.TID 0000.0001)                   T
(PID.TID 0000.0001)     ;
(PID.TID 0000.0001) rigidLid =   /* Rigid lid on/off flag */
(PID.TID 0000.0001)                   F
(PID.TID 0000.0001)     ;
(PID.TID 0000.0001) implicSurfPress =   /* Surface Pressure implicit factor (0-1)*/
(PID.TID 0000.0001)                 1.000000000000000E+00
(PID.TID 0000.0001)     ;
(PID.TID 0000.0001) implicDiv2Dflow =   /* Barot. Flow Div. implicit factor (0-1)*/
(PID.TID 0000.0001)                 1.000000000000000E+00
(PID.TID 0000.0001)     ;
(PID.TID 0000.0001) exactConserv =   /* Exact Volume Conservation on/off flag*/
(PID.TID 0000.0001)                   T
(PID.TID 0000.0001)     ;
(PID.TID 0000.0001) uniformLin_PhiSurf =   /* use uniform Bo_surf on/off flag*/
(PID.TID 0000.0001)                   T
(PID.TID 0000.0001)     ;
(PID.TID 0000.0001) nonlinFreeSurf =   /* Non-linear Free Surf. options (-1,0,1,2,3)*/
(PID.TID 0000.0001)                       4
(PID.TID 0000.0001)     ;
(PID.TID 0000.0001)      -1,0= Off ; 1,2,3= On, 2=+rescale gU,gV, 3=+update cg2d solv.
(PID.TID 0000.0001) hFacInf =   /* lower threshold for hFac (nonlinFreeSurf only)*/
(PID.TID 0000.0001)                 2.000000000000000E-01
(PID.TID 0000.0001)     ;
(PID.TID 0000.0001) hFacSup =   /* upper threshold for hFac (nonlinFreeSurf only)*/
(PID.TID 0000.0001)                 2.000000000000000E+00
(PID.TID 0000.0001)     ;
(PID.TID 0000.0001) select_rStar =   /* r* Coordinate options (not yet implemented)*/
(PID.TID 0000.0001)                       0
(PID.TID 0000.0001)     ;
(PID.TID 0000.0001) useRealFreshWaterFlux =   /* Real Fresh Water Flux on/off flag*/
(PID.TID 0000.0001)                   F
(PID.TID 0000.0001)     ;
(PID.TID 0000.0001) convertFW2Salt = /* convert F.W. Flux to Salt Flux (-1=use local S)(ppt)*/
(PID.TID 0000.0001)                 3.500000000000000E+01
(PID.TID 0000.0001)     ;
(PID.TID 0000.0001) nonHydrostatic =  /* Non-Hydrostatic on/off flag */
(PID.TID 0000.0001)                   F
(PID.TID 0000.0001)     ;
(PID.TID 0000.0001) momStepping =  /* Momentum equation on/off flag */
(PID.TID 0000.0001)                   T
(PID.TID 0000.0001)     ;
(PID.TID 0000.0001) momAdvection =  /* Momentum advection on/off flag */
(PID.TID 0000.0001)                   T
(PID.TID 0000.0001)     ;
(PID.TID 0000.0001) momViscosity =  /* Momentum viscosity on/off flag */
(PID.TID 0000.0001)                   T
(PID.TID 0000.0001)     ;
(PID.TID 0000.0001) momImplVertAdv =/* Momentum implicit vert. advection on/off*/
(PID.TID 0000.0001)                   F
(PID.TID 0000.0001)     ;
(PID.TID 0000.0001) implicitViscosity = /* Implicit viscosity on/off flag */
(PID.TID 0000.0001)                   F
(PID.TID 0000.0001)     ;
(PID.TID 0000.0001) useCoriolis =  /* Coriolis on/off flag */
(PID.TID 0000.0001)                   T
(PID.TID 0000.0001)     ;
(PID.TID 0000.0001) useCDscheme =  /* CD scheme on/off flag */
(PID.TID 0000.0001)                   F
(PID.TID 0000.0001)     ;
(PID.TID 0000.0001) useJamartWetPoints= /* Coriolis WetPoints method flag */
(PID.TID 0000.0001)                   F
(PID.TID 0000.0001)     ;
(PID.TID 0000.0001) momForcing =  /* Momentum forcing on/off flag */
(PID.TID 0000.0001)                   T
(PID.TID 0000.0001)     ;
(PID.TID 0000.0001) momPressureForcing =  /* Momentum pressure term on/off flag */
(PID.TID 0000.0001)                   T
(PID.TID 0000.0001)     ;
(PID.TID 0000.0001) staggerTimeStep =   /* Stagger time stepping on/off flag */
(PID.TID 0000.0001)                   F
(PID.TID 0000.0001)     ;
(PID.TID 0000.0001) multiDimAdvection =   /* enable/disable Multi-Dim Advection */
(PID.TID 0000.0001)                   T
(PID.TID 0000.0001)     ;
(PID.TID 0000.0001) implicitDiffusion =/* Implicit Diffusion on/off flag */
(PID.TID 0000.0001)                   T
(PID.TID 0000.0001)     ;
(PID.TID 0000.0001) tempStepping =  /* Temperature equation on/off flag */
(PID.TID 0000.0001)                   T
(PID.TID 0000.0001)     ;
(PID.TID 0000.0001) tempAdvection=  /* Temperature advection on/off flag */
(PID.TID 0000.0001)                   T
(PID.TID 0000.0001)     ;
(PID.TID 0000.0001) tempImplVertAdv =/* Temp. implicit vert. advection on/off */
(PID.TID 0000.0001)                   F
(PID.TID 0000.0001)     ;
(PID.TID 0000.0001) tempForcing  =  /* Temperature forcing on/off flag */
(PID.TID 0000.0001)                   T
(PID.TID 0000.0001)     ;
(PID.TID 0000.0001) saltStepping =  /* Salinity equation on/off flag */
(PID.TID 0000.0001)                   T
(PID.TID 0000.0001)     ;
(PID.TID 0000.0001) saltAdvection=  /* Salinity advection on/off flag */
(PID.TID 0000.0001)                   T
(PID.TID 0000.0001)     ;
(PID.TID 0000.0001) saltImplVertAdv =/* Sali. implicit vert. advection on/off */
(PID.TID 0000.0001)                   F
(PID.TID 0000.0001)     ;
(PID.TID 0000.0001) saltForcing  =  /* Salinity forcing on/off flag */
(PID.TID 0000.0001)                   T
(PID.TID 0000.0001)     ;
(PID.TID 0000.0001) //
(PID.TID 0000.0001) // Elliptic solver(s) paramters ( PARM02 in namelist )
(PID.TID 0000.0001) //
(PID.TID 0000.0001) cg2dMaxIters =   /* Upper limit on 2d con. grad iterations  */
(PID.TID 0000.0001)                     200
(PID.TID 0000.0001)     ;
(PID.TID 0000.0001) cg2dChkResFreq =   /* 2d con. grad convergence test frequency */
(PID.TID 0000.0001)                       1
(PID.TID 0000.0001)     ;
(PID.TID 0000.0001) cg2dTargetResidual =   /* 2d con. grad target residual  */
(PID.TID 0000.0001)                 1.000000000000000E-09
(PID.TID 0000.0001)     ;
(PID.TID 0000.0001) //
(PID.TID 0000.0001) // Time stepping paramters ( PARM03 in namelist )
(PID.TID 0000.0001) //
(PID.TID 0000.0001) nIter0 =   /* Base timestep number  */
(PID.TID 0000.0001)                       0
(PID.TID 0000.0001)     ;
(PID.TID 0000.0001) nTimeSteps =   /* Number of timesteps */
(PID.TID 0000.0001)                      20
(PID.TID 0000.0001)     ;
(PID.TID 0000.0001) deltatTmom =   /* Momentum equation timestep ( s ) */
(PID.TID 0000.0001)                 1.200000000000000E+03
(PID.TID 0000.0001)     ;
(PID.TID 0000.0001) deltaTfreesurf =   /* FreeSurface equation timestep ( s ) */
(PID.TID 0000.0001)                 1.728000000000000E+05
(PID.TID 0000.0001)     ;
(PID.TID 0000.0001) deltatTtracer =   /* Tracer equation timestep ( s ) */
(PID.TID 0000.0001)                 1.728000000000000E+05
(PID.TID 0000.0001)     ;
(PID.TID 0000.0001) deltatTClock  =   /* Model clock timestep ( s ) */
(PID.TID 0000.0001)                 1.728000000000000E+05
(PID.TID 0000.0001)     ;
(PID.TID 0000.0001) cAdjFreq =   /* Convective adjustment interval ( s ) */
(PID.TID 0000.0001)                 0.000000000000000E+00
(PID.TID 0000.0001)     ;
(PID.TID 0000.0001) forcing_In_AB =   /* put T,S Forcing in Adams-Bash. stepping */
(PID.TID 0000.0001)                   T
(PID.TID 0000.0001)     ;
(PID.TID 0000.0001) abeps =   /* Adams-Bashforth stabilizing weight */
(PID.TID 0000.0001)                 1.000000000000000E-01
(PID.TID 0000.0001)     ;
(PID.TID 0000.0001) startTime =   /* Run start time ( s ). */
(PID.TID 0000.0001)                 0.000000000000000E+00
(PID.TID 0000.0001)     ;
(PID.TID 0000.0001) endTime =   /* Integration ending time ( s ). */
(PID.TID 0000.0001)                 3.456000000000000E+06
(PID.TID 0000.0001)     ;
(PID.TID 0000.0001) pChkPtFreq =   /* Permanent restart/checkpoint file interval ( s ). */
(PID.TID 0000.0001)                 3.110400000000000E+09
(PID.TID 0000.0001)     ;
(PID.TID 0000.0001) chkPtFreq =   /* Rolling restart/checkpoint file interval ( s ). */
(PID.TID 0000.0001)                 0.000000000000000E+00
(PID.TID 0000.0001)     ;
(PID.TID 0000.0001) dumpFreq =   /* Model state write out interval ( s ). */
(PID.TID 0000.0001)                 3.110400000000000E+09
(PID.TID 0000.0001)     ;
(PID.TID 0000.0001) externForcingPeriod =   /* forcing period (s) */
(PID.TID 0000.0001)                 2.592000000000000E+06
(PID.TID 0000.0001)     ;
(PID.TID 0000.0001) externForcingCycle =   /* period of the cyle (s). */
(PID.TID 0000.0001)                 3.110400000000000E+07
(PID.TID 0000.0001)     ;
(PID.TID 0000.0001) tauThetaClimRelax =   /* relaxation time scale (s) */
(PID.TID 0000.0001)                 5.184000000000000E+06
(PID.TID 0000.0001)     ;
(PID.TID 0000.0001) tauSaltClimRelax =   /* relaxation time scale (s) */
(PID.TID 0000.0001)                 0.000000000000000E+00
(PID.TID 0000.0001)     ;
(PID.TID 0000.0001) latBandClimRelax =   /* max. Lat. where relaxation */
(PID.TID 0000.0001)                 1.800000000000000E+02
(PID.TID 0000.0001)     ;
(PID.TID 0000.0001) //
(PID.TID 0000.0001) // Gridding paramters ( PARM04 in namelist )
(PID.TID 0000.0001) //
(PID.TID 0000.0001) usingCartesianGrid =   /* Cartesian coordinates flag ( True / False ) */
(PID.TID 0000.0001)                   F
(PID.TID 0000.0001)     ;
(PID.TID 0000.0001) usingSphericalPolarGrid =   /* Spherical coordinates flag ( True / False ) */
(PID.TID 0000.0001)                   T
(PID.TID 0000.0001)     ;
(PID.TID 0000.0001) groundAtK1 =   /* Lower Boundary (ground) at the surface(k=1) ( T / F ) */
(PID.TID 0000.0001)                   T
(PID.TID 0000.0001)     ;
(PID.TID 0000.0001) Ro_SeaLevel =   /* r(1) ( units of r ) */
(PID.TID 0000.0001)                 5.302312256608400E+07
(PID.TID 0000.0001)     ;
(PID.TID 0000.0001) rkFac =   /* minus Vertical index orientation  */
(PID.TID 0000.0001)                 1.000000000000000E+00
(PID.TID 0000.0001)     ;
(PID.TID 0000.0001) horiVertRatio =   /* Ratio on units : Horiz - Vertical */
(PID.TID 0000.0001)                 1.015335000000000E+04
(PID.TID 0000.0001)     ;
(PID.TID 0000.0001) drC =   /* C spacing ( units of r ) */
(PID.TID 0000.0001)                 3.551650360010500E+06,      /* K =  1 */
(PID.TID 0000.0001)                 6.836924580405500E+06,      /* K =  2 */
(PID.TID 0000.0001)                 6.306109225519501E+06,      /* K =  3 */
(PID.TID 0000.0001)                 5.779053338153000E+06,      /* K =  4 */
(PID.TID 0000.0001)                 5.255519350233500E+06,      /* K =  5 */
(PID.TID 0000.0001)                 4.735252734850001E+06,      /* K =  6 */
(PID.TID 0000.0001)                 4.217983340545500E+06,      /* K =  7 */
(PID.TID 0000.0001)                 3.703426779226000E+06,      /* K =  8 */
(PID.TID 0000.0001)                 3.191285859157500E+06,      /* K =  9 */
(PID.TID 0000.0001)                 2.681252055355000E+06,      /* K = 10 */
(PID.TID 0000.0001)                 2.173007010517000E+06,      /* K = 11 */
(PID.TID 0000.0001)                 1.666224060479000E+06,      /* K = 12 */
(PID.TID 0000.0001)                 1.211001777568000E+06,      /* K = 13 */
(PID.TID 0000.0001)                 8.573828878235000E+05,      /* K = 14 */
(PID.TID 0000.0001)                 6.050043594899999E+05       /* K = 15 */
(PID.TID 0000.0001)     ;
(PID.TID 0000.0001) drF =   /* W spacing ( units of r ) */
(PID.TID 0000.0001)                 7.103300720021000E+06,      /* K =  1 */
(PID.TID 0000.0001)                 6.570548440790000E+06,      /* K =  2 */
(PID.TID 0000.0001)                 6.041670010249000E+06,      /* K =  3 */
(PID.TID 0000.0001)                 5.516436666057000E+06,      /* K =  4 */
(PID.TID 0000.0001)                 4.994602034410000E+06,      /* K =  5 */
(PID.TID 0000.0001)                 4.475903435290000E+06,      /* K =  6 */
(PID.TID 0000.0001)                 3.960063245801000E+06,      /* K =  7 */
(PID.TID 0000.0001)                 3.446790312651000E+06,      /* K =  8 */
(PID.TID 0000.0001)                 2.935781405664000E+06,      /* K =  9 */
(PID.TID 0000.0001)                 2.426722705046000E+06,      /* K = 10 */
(PID.TID 0000.0001)                 1.919291315988000E+06,      /* K = 11 */
(PID.TID 0000.0001)                 1.413156804970000E+06,      /* K = 12 */
(PID.TID 0000.0001)                 1.008846750166000E+06,      /* K = 13 */
(PID.TID 0000.0001)                 7.059190254810000E+05,      /* K = 14 */
(PID.TID 0000.0001)                 5.040896934990000E+05       /* K = 15 */
(PID.TID 0000.0001)     ;
(PID.TID 0000.0001) delX =   /* U spacing ( m - cartesian, degrees - spherical ) */
(PID.TID 0000.0001)    90 @  4.000000000000000E+00              /* I =  1: 90 */
(PID.TID 0000.0001)     ;
(PID.TID 0000.0001) delY =   /* V spacing ( m - cartesian, degrees - spherical ) */
(PID.TID 0000.0001)    40 @  4.000000000000000E+00              /* J =  1: 40 */
(PID.TID 0000.0001)     ;
(PID.TID 0000.0001) phiMin =    /* South edge (ignored - cartesian, degrees - spherical ) */
(PID.TID 0000.0001)                -8.000000000000000E+01
(PID.TID 0000.0001)     ;
(PID.TID 0000.0001) thetaMin =    /* West edge ( ignored - cartesian, degrees - spherical ) */
(PID.TID 0000.0001)                 0.000000000000000E+00
(PID.TID 0000.0001)     ;
(PID.TID 0000.0001) rSphere =    /* Radius ( ignored - cartesian, m - spherical ) */
(PID.TID 0000.0001)                 6.370000000000000E+06
(PID.TID 0000.0001)     ;
(PID.TID 0000.0001) xcoord =   /* P-point X coord ( m - cartesian, degrees - spherical ) */
(PID.TID 0000.0001)                 2.000000000000000E+00,      /* I =  1 */
(PID.TID 0000.0001)                 6.000000000000000E+00,      /* I =  2 */
(PID.TID 0000.0001)                 1.000000000000000E+01,      /* I =  3 */
(PID.TID 0000.0001)                 1.400000000000000E+01,      /* I =  4 */
(PID.TID 0000.0001)                 1.800000000000000E+01,      /* I =  5 */
(PID.TID 0000.0001)                 2.200000000000000E+01,      /* I =  6 */
(PID.TID 0000.0001)                 2.600000000000000E+01,      /* I =  7 */
(PID.TID 0000.0001)                 3.000000000000000E+01,      /* I =  8 */
(PID.TID 0000.0001)                 3.400000000000000E+01,      /* I =  9 */
(PID.TID 0000.0001)                 3.800000000000000E+01,      /* I = 10 */
(PID.TID 0000.0001)                 4.200000000000000E+01,      /* I = 11 */
(PID.TID 0000.0001)                 4.600000000000000E+01,      /* I = 12 */
(PID.TID 0000.0001)                 5.000000000000000E+01,      /* I = 13 */
(PID.TID 0000.0001)                 5.400000000000000E+01,      /* I = 14 */
(PID.TID 0000.0001)                 5.800000000000000E+01,      /* I = 15 */
(PID.TID 0000.0001)                 6.200000000000000E+01,      /* I = 16 */
(PID.TID 0000.0001)                 6.600000000000000E+01,      /* I = 17 */
(PID.TID 0000.0001)                 7.000000000000000E+01,      /* I = 18 */
(PID.TID 0000.0001)                 7.400000000000000E+01,      /* I = 19 */
(PID.TID 0000.0001)                 7.800000000000000E+01,      /* I = 20 */
(PID.TID 0000.0001)                 8.200000000000000E+01,      /* I = 21 */
(PID.TID 0000.0001)                 8.600000000000000E+01,      /* I = 22 */
(PID.TID 0000.0001)                 9.000000000000000E+01,      /* I = 23 */
(PID.TID 0000.0001)                 9.400000000000000E+01,      /* I = 24 */
(PID.TID 0000.0001)                 9.800000000000000E+01,      /* I = 25 */
(PID.TID 0000.0001)                 1.020000000000000E+02,      /* I = 26 */
(PID.TID 0000.0001)                 1.060000000000000E+02,      /* I = 27 */
(PID.TID 0000.0001)                 1.100000000000000E+02,      /* I = 28 */
(PID.TID 0000.0001)                 1.140000000000000E+02,      /* I = 29 */
(PID.TID 0000.0001)                 1.180000000000000E+02,      /* I = 30 */
(PID.TID 0000.0001)                 1.220000000000000E+02,      /* I = 31 */
(PID.TID 0000.0001)                 1.260000000000000E+02,      /* I = 32 */
(PID.TID 0000.0001)                 1.300000000000000E+02,      /* I = 33 */
(PID.TID 0000.0001)                 1.340000000000000E+02,      /* I = 34 */
(PID.TID 0000.0001)                 1.380000000000000E+02,      /* I = 35 */
(PID.TID 0000.0001)                 1.420000000000000E+02,      /* I = 36 */
(PID.TID 0000.0001)                 1.460000000000000E+02,      /* I = 37 */
(PID.TID 0000.0001)                 1.500000000000000E+02,      /* I = 38 */
(PID.TID 0000.0001)                 1.540000000000000E+02,      /* I = 39 */
(PID.TID 0000.0001)                 1.580000000000000E+02,      /* I = 40 */
(PID.TID 0000.0001)                 1.620000000000000E+02,      /* I = 41 */
(PID.TID 0000.0001)                 1.660000000000000E+02,      /* I = 42 */
(PID.TID 0000.0001)                 1.700000000000000E+02,      /* I = 43 */
(PID.TID 0000.0001)                 1.740000000000000E+02,      /* I = 44 */
(PID.TID 0000.0001)                 1.780000000000000E+02,      /* I = 45 */
(PID.TID 0000.0001)                 1.820000000000000E+02,      /* I = 46 */
(PID.TID 0000.0001)                 1.860000000000000E+02,      /* I = 47 */
(PID.TID 0000.0001)                 1.900000000000000E+02,      /* I = 48 */
(PID.TID 0000.0001)                 1.940000000000000E+02,      /* I = 49 */
(PID.TID 0000.0001)                 1.980000000000000E+02,      /* I = 50 */
(PID.TID 0000.0001)                 2.020000000000000E+02,      /* I = 51 */
(PID.TID 0000.0001)                 2.060000000000000E+02,      /* I = 52 */
(PID.TID 0000.0001)                 2.100000000000000E+02,      /* I = 53 */
(PID.TID 0000.0001)                 2.140000000000000E+02,      /* I = 54 */
(PID.TID 0000.0001)                 2.180000000000000E+02,      /* I = 55 */
(PID.TID 0000.0001)                 2.220000000000000E+02,      /* I = 56 */
(PID.TID 0000.0001)                 2.260000000000000E+02,      /* I = 57 */
(PID.TID 0000.0001)                 2.300000000000000E+02,      /* I = 58 */
(PID.TID 0000.0001)                 2.340000000000000E+02,      /* I = 59 */
(PID.TID 0000.0001)                 2.380000000000000E+02,      /* I = 60 */
(PID.TID 0000.0001)                 2.420000000000000E+02,      /* I = 61 */
(PID.TID 0000.0001)                 2.460000000000000E+02,      /* I = 62 */
(PID.TID 0000.0001)                 2.500000000000000E+02,      /* I = 63 */
(PID.TID 0000.0001)                 2.540000000000000E+02,      /* I = 64 */
(PID.TID 0000.0001)                 2.580000000000000E+02,      /* I = 65 */
(PID.TID 0000.0001)                 2.620000000000000E+02,      /* I = 66 */
(PID.TID 0000.0001)                 2.660000000000000E+02,      /* I = 67 */
(PID.TID 0000.0001)                 2.700000000000000E+02,      /* I = 68 */
(PID.TID 0000.0001)                 2.740000000000000E+02,      /* I = 69 */
(PID.TID 0000.0001)                 2.780000000000000E+02,      /* I = 70 */
(PID.TID 0000.0001)                 2.820000000000000E+02,      /* I = 71 */
(PID.TID 0000.0001)                 2.860000000000000E+02,      /* I = 72 */
(PID.TID 0000.0001)                 2.900000000000000E+02,      /* I = 73 */
(PID.TID 0000.0001)                 2.940000000000000E+02,      /* I = 74 */
(PID.TID 0000.0001)                 2.980000000000000E+02,      /* I = 75 */
(PID.TID 0000.0001)                 3.020000000000000E+02,      /* I = 76 */
(PID.TID 0000.0001)                 3.060000000000000E+02,      /* I = 77 */
(PID.TID 0000.0001)                 3.100000000000000E+02,      /* I = 78 */
(PID.TID 0000.0001)                 3.140000000000000E+02,      /* I = 79 */
(PID.TID 0000.0001)                 3.180000000000000E+02,      /* I = 80 */
(PID.TID 0000.0001)                 3.220000000000000E+02,      /* I = 81 */
(PID.TID 0000.0001)                 3.260000000000000E+02,      /* I = 82 */
(PID.TID 0000.0001)                 3.300000000000000E+02,      /* I = 83 */
(PID.TID 0000.0001)                 3.340000000000000E+02,      /* I = 84 */
(PID.TID 0000.0001)                 3.380000000000000E+02,      /* I = 85 */
(PID.TID 0000.0001)                 3.420000000000000E+02,      /* I = 86 */
(PID.TID 0000.0001)                 3.460000000000000E+02,      /* I = 87 */
(PID.TID 0000.0001)                 3.500000000000000E+02,      /* I = 88 */
(PID.TID 0000.0001)                 3.540000000000000E+02,      /* I = 89 */
(PID.TID 0000.0001)                 3.580000000000000E+02       /* I = 90 */
(PID.TID 0000.0001)     ;
(PID.TID 0000.0001) ycoord =   /* P-point Y coord ( m - cartesian, degrees - spherical ) */
(PID.TID 0000.0001)                -7.800000000000000E+01,      /* J =  1 */
(PID.TID 0000.0001)                -7.400000000000000E+01,      /* J =  2 */
(PID.TID 0000.0001)                -7.000000000000000E+01,      /* J =  3 */
(PID.TID 0000.0001)                -6.600000000000000E+01,      /* J =  4 */
(PID.TID 0000.0001)                -6.200000000000000E+01,      /* J =  5 */
(PID.TID 0000.0001)                -5.800000000000000E+01,      /* J =  6 */
(PID.TID 0000.0001)                -5.400000000000000E+01,      /* J =  7 */
(PID.TID 0000.0001)                -5.000000000000000E+01,      /* J =  8 */
(PID.TID 0000.0001)                -4.600000000000000E+01,      /* J =  9 */
(PID.TID 0000.0001)                -4.200000000000000E+01,      /* J = 10 */
(PID.TID 0000.0001)                -3.800000000000000E+01,      /* J = 11 */
(PID.TID 0000.0001)                -3.400000000000000E+01,      /* J = 12 */
(PID.TID 0000.0001)                -3.000000000000000E+01,      /* J = 13 */
(PID.TID 0000.0001)                -2.600000000000000E+01,      /* J = 14 */
(PID.TID 0000.0001)                -2.200000000000000E+01,      /* J = 15 */
(PID.TID 0000.0001)                -1.800000000000000E+01,      /* J = 16 */
(PID.TID 0000.0001)                -1.400000000000000E+01,      /* J = 17 */
(PID.TID 0000.0001)                -1.000000000000000E+01,      /* J = 18 */
(PID.TID 0000.0001)                -6.000000000000000E+00,      /* J = 19 */
(PID.TID 0000.0001)                -2.000000000000000E+00,      /* J = 20 */
(PID.TID 0000.0001)                 2.000000000000000E+00,      /* J = 21 */
(PID.TID 0000.0001)                 6.000000000000000E+00,      /* J = 22 */
(PID.TID 0000.0001)                 1.000000000000000E+01,      /* J = 23 */
(PID.TID 0000.0001)                 1.400000000000000E+01,      /* J = 24 */
(PID.TID 0000.0001)                 1.800000000000000E+01,      /* J = 25 */
(PID.TID 0000.0001)                 2.200000000000000E+01,      /* J = 26 */
(PID.TID 0000.0001)                 2.600000000000000E+01,      /* J = 27 */
(PID.TID 0000.0001)                 3.000000000000000E+01,      /* J = 28 */
(PID.TID 0000.0001)                 3.400000000000000E+01,      /* J = 29 */
(PID.TID 0000.0001)                 3.800000000000000E+01,      /* J = 30 */
(PID.TID 0000.0001)                 4.200000000000000E+01,      /* J = 31 */
(PID.TID 0000.0001)                 4.600000000000000E+01,      /* J = 32 */
(PID.TID 0000.0001)                 5.000000000000000E+01,      /* J = 33 */
(PID.TID 0000.0001)                 5.400000000000000E+01,      /* J = 34 */
(PID.TID 0000.0001)                 5.800000000000000E+01,      /* J = 35 */
(PID.TID 0000.0001)                 6.200000000000000E+01,      /* J = 36 */
(PID.TID 0000.0001)                 6.600000000000000E+01,      /* J = 37 */
(PID.TID 0000.0001)                 7.000000000000000E+01,      /* J = 38 */
(PID.TID 0000.0001)                 7.400000000000000E+01,      /* J = 39 */
(PID.TID 0000.0001)                 7.800000000000000E+01       /* J = 40 */
(PID.TID 0000.0001)     ;
(PID.TID 0000.0001) rcoord =   /* P-point R coordinate (  units of r ) */
(PID.TID 0000.0001)                 4.947147220607350E+07,      /* K =  1 */
(PID.TID 0000.0001)                 4.263454762566800E+07,      /* K =  2 */
(PID.TID 0000.0001)                 3.632843840014850E+07,      /* K =  3 */
(PID.TID 0000.0001)                 3.054938506199550E+07,      /* K =  4 */
(PID.TID 0000.0001)                 2.529386571176200E+07,      /* K =  5 */
(PID.TID 0000.0001)                 2.055861297691200E+07,      /* K =  6 */
(PID.TID 0000.0001)                 1.634062963636650E+07,      /* K =  7 */
(PID.TID 0000.0001)                 1.263720285714050E+07,      /* K =  8 */
(PID.TID 0000.0001)                 9.445916997983005E+06,      /* K =  9 */
(PID.TID 0000.0001)                 6.764664942628005E+06,      /* K = 10 */
(PID.TID 0000.0001)                 4.591657932111004E+06,      /* K = 11 */
(PID.TID 0000.0001)                 2.925433871632004E+06,      /* K = 12 */
(PID.TID 0000.0001)                 1.714432094064004E+06,      /* K = 13 */
(PID.TID 0000.0001)                 8.570492062405043E+05,      /* K = 14 */
(PID.TID 0000.0001)                 2.520448467505043E+05       /* K = 15 */
(PID.TID 0000.0001)     ;
(PID.TID 0000.0001) rF =   /* W-Interf. R coordinate (  units of r ) */
(PID.TID 0000.0001)                 5.302312256608400E+07,      /* K =  1 */
(PID.TID 0000.0001)                 4.591982184606300E+07,      /* K =  2 */
(PID.TID 0000.0001)                 3.934927340527300E+07,      /* K =  3 */
(PID.TID 0000.0001)                 3.330760339502400E+07,      /* K =  4 */
(PID.TID 0000.0001)                 2.779116672896700E+07,      /* K =  5 */
(PID.TID 0000.0001)                 2.279656469455700E+07,      /* K =  6 */
(PID.TID 0000.0001)                 1.832066125926699E+07,      /* K =  7 */
(PID.TID 0000.0001)                 1.436059801346599E+07,      /* K =  8 */
(PID.TID 0000.0001)                 1.091380770081500E+07,      /* K =  9 */
(PID.TID 0000.0001)                 7.978026295150995E+06,      /* K = 10 */
(PID.TID 0000.0001)                 5.551303590104995E+06,      /* K = 11 */
(PID.TID 0000.0001)                 3.632012274116995E+06,      /* K = 12 */
(PID.TID 0000.0001)                 2.218855469146995E+06,      /* K = 13 */
(PID.TID 0000.0001)                 1.210008718980995E+06,      /* K = 14 */
(PID.TID 0000.0001)                 5.040896934999955E+05,      /* K = 15 */
(PID.TID 0000.0001)                 9.955256246030331E-07       /* K = 16 */
(PID.TID 0000.0001)     ;
(PID.TID 0000.0001) dxF =  /* dxF(:,1,:,1) ( m - cartesian, degrees - spherical ) */
(PID.TID 0000.0001)    90 @  9.246038586187513E+04              /* I =  1: 90 */
(PID.TID 0000.0001)     ;
(PID.TID 0000.0001) dxF =  /* dxF(1,:,1,:) ( m - cartesian, degrees - spherical ) */
(PID.TID 0000.0001)                 9.246038586187513E+04,      /* J =  1 */
(PID.TID 0000.0001)                 1.225786591246834E+05,      /* J =  2 */
(PID.TID 0000.0001)                 1.520997414818001E+05,      /* J =  3 */
(PID.TID 0000.0001)                 1.808798091874300E+05,      /* J =  4 */
(PID.TID 0000.0001)                 2.087786486446736E+05,      /* J =  5 */
(PID.TID 0000.0001)                 2.356603395120766E+05,      /* J =  6 */
(PID.TID 0000.0001)                 2.613939168938713E+05,      /* J =  7 */
(PID.TID 0000.0001)                 2.858540093877838E+05,      /* J =  8 */
(PID.TID 0000.0001)                 3.089214498819035E+05,      /* J =  9 */
(PID.TID 0000.0001)                 3.304838561248741E+05,      /* J = 10 */
(PID.TID 0000.0001)                 3.504361782409254E+05,      /* J = 11 */
(PID.TID 0000.0001)                 3.686812105223083E+05,      /* J = 12 */
(PID.TID 0000.0001)                 3.851300650057322E+05,      /* J = 13 */
(PID.TID 0000.0001)                 3.997026045255871E+05,      /* J = 14 */
(PID.TID 0000.0001)                 4.123278331341585E+05,      /* J = 15 */
(PID.TID 0000.0001)                 4.229442419867491E+05,      /* J = 16 */
(PID.TID 0000.0001)                 4.315001090065869E+05,      /* J = 17 */
(PID.TID 0000.0001)                 4.379537508695839E+05,      /* J = 18 */
(PID.TID 0000.0001)                 4.422737260813013E+05,      /* J = 19 */
(PID.TID 0000.0001)     2 @  4.444389881567501E+05,             /* J = 20: 21 */
(PID.TID 0000.0001)                 4.422737260813013E+05,      /* J = 22 */
(PID.TID 0000.0001)                 4.379537508695839E+05,      /* J = 23 */
(PID.TID 0000.0001)                 4.315001090065869E+05,      /* J = 24 */
(PID.TID 0000.0001)                 4.229442419867491E+05,      /* J = 25 */
(PID.TID 0000.0001)                 4.123278331341585E+05,      /* J = 26 */
(PID.TID 0000.0001)                 3.997026045255871E+05,      /* J = 27 */
(PID.TID 0000.0001)                 3.851300650057322E+05,      /* J = 28 */
(PID.TID 0000.0001)                 3.686812105223083E+05,      /* J = 29 */
(PID.TID 0000.0001)                 3.504361782409254E+05,      /* J = 30 */
(PID.TID 0000.0001)                 3.304838561248741E+05,      /* J = 31 */
(PID.TID 0000.0001)                 3.089214498819035E+05,      /* J = 32 */
(PID.TID 0000.0001)                 2.858540093877838E+05,      /* J = 33 */
(PID.TID 0000.0001)                 2.613939168938713E+05,      /* J = 34 */
(PID.TID 0000.0001)                 2.356603395120766E+05,      /* J = 35 */
(PID.TID 0000.0001)                 2.087786486446736E+05,      /* J = 36 */
(PID.TID 0000.0001)                 1.808798091874300E+05,      /* J = 37 */
(PID.TID 0000.0001)                 1.520997414818001E+05,      /* J = 38 */
(PID.TID 0000.0001)                 1.225786591246834E+05,      /* J = 39 */
(PID.TID 0000.0001)                 9.246038586187513E+04       /* J = 40 */
(PID.TID 0000.0001)     ;
(PID.TID 0000.0001) dyF =  /* dyF(:,1,:,1) ( m - cartesian, degrees - spherical ) */
(PID.TID 0000.0001)    90 @  4.447098934081552E+05              /* I =  1: 90 */
(PID.TID 0000.0001)     ;
(PID.TID 0000.0001) dyF =  /* dyF(1,:,1,:) ( m - cartesian, degrees - spherical ) */
(PID.TID 0000.0001)    40 @  4.447098934081552E+05              /* J =  1: 40 */
(PID.TID 0000.0001)     ;
(PID.TID 0000.0001) dxG =  /* dxG(:,1,:,1) ( m - cartesian, degrees - spherical ) */
(PID.TID 0000.0001)    90 @  7.722306258078101E+04              /* I =  1: 90 */
(PID.TID 0000.0001)     ;
(PID.TID 0000.0001) dxG =  /* dxG(1,:,1,:) ( m - cartesian, degrees - spherical ) */
(PID.TID 0000.0001)                 7.722306258078101E+04,      /* J =  1 */
(PID.TID 0000.0001)                 1.075850604052271E+05,      /* J =  2 */
(PID.TID 0000.0001)                 1.374229146297914E+05,      /* J =  3 */
(PID.TID 0000.0001)                 1.665912582279823E+05,      /* J =  4 */
(PID.TID 0000.0001)                 1.949479859617814E+05,      /* J =  5 */
(PID.TID 0000.0001)                 2.223549467040776E+05,      /* J =  6 */
(PID.TID 0000.0001)                 2.486786164970726E+05,      /* J =  7 */
(PID.TID 0000.0001)                 2.737907490675810E+05,      /* J =  8 */
(PID.TID 0000.0001)                 2.975690006299820E+05,      /* J =  9 */
(PID.TID 0000.0001)                 3.198975259328452E+05,      /* J = 10 */
(PID.TID 0000.0001)                 3.406675426453503E+05,      /* J = 11 */
(PID.TID 0000.0001)                 3.597778613338689E+05,      /* J = 12 */
(PID.TID 0000.0001)                 3.771353784467131E+05,      /* J = 13 */
(PID.TID 0000.0001)                 3.926555299052806E+05,      /* J = 14 */
(PID.TID 0000.0001)                 4.062627030917454E+05,      /* J = 15 */
(PID.TID 0000.0001)                 4.178906052261313E+05,      /* J = 16 */
(PID.TID 0000.0001)                 4.274825863380723E+05,      /* J = 17 */
(PID.TID 0000.0001)                 4.349919152597734E+05,      /* J = 18 */
(PID.TID 0000.0001)                 4.403820072955634E+05,      /* J = 19 */
(PID.TID 0000.0001)                 4.436266024588540E+05,      /* J = 20 */
(PID.TID 0000.0001)                 4.447098934081552E+05,      /* J = 21 */
(PID.TID 0000.0001)                 4.436266024588540E+05,      /* J = 22 */
(PID.TID 0000.0001)                 4.403820072955634E+05,      /* J = 23 */
(PID.TID 0000.0001)                 4.349919152597734E+05,      /* J = 24 */
(PID.TID 0000.0001)                 4.274825863380723E+05,      /* J = 25 */
(PID.TID 0000.0001)                 4.178906052261313E+05,      /* J = 26 */
(PID.TID 0000.0001)                 4.062627030917454E+05,      /* J = 27 */
(PID.TID 0000.0001)                 3.926555299052806E+05,      /* J = 28 */
(PID.TID 0000.0001)                 3.771353784467131E+05,      /* J = 29 */
(PID.TID 0000.0001)                 3.597778613338689E+05,      /* J = 30 */
(PID.TID 0000.0001)                 3.406675426453503E+05,      /* J = 31 */
(PID.TID 0000.0001)                 3.198975259328452E+05,      /* J = 32 */
(PID.TID 0000.0001)                 2.975690006299820E+05,      /* J = 33 */
(PID.TID 0000.0001)                 2.737907490675810E+05,      /* J = 34 */
(PID.TID 0000.0001)                 2.486786164970726E+05,      /* J = 35 */
(PID.TID 0000.0001)                 2.223549467040776E+05,      /* J = 36 */
(PID.TID 0000.0001)                 1.949479859617814E+05,      /* J = 37 */
(PID.TID 0000.0001)                 1.665912582279823E+05,      /* J = 38 */
(PID.TID 0000.0001)                 1.374229146297914E+05,      /* J = 39 */
(PID.TID 0000.0001)                 1.075850604052271E+05       /* J = 40 */
(PID.TID 0000.0001)     ;
(PID.TID 0000.0001) dyG =  /* dyG(:,1,:,1) ( m - cartesian, degrees - spherical ) */
(PID.TID 0000.0001)    90 @  4.447098934081552E+05              /* I =  1: 90 */
(PID.TID 0000.0001)     ;
(PID.TID 0000.0001) dyG =  /* dyG(1,:,1,:) ( m - cartesian, degrees - spherical ) */
(PID.TID 0000.0001)    40 @  4.447098934081552E+05              /* J =  1: 40 */
(PID.TID 0000.0001)     ;
(PID.TID 0000.0001) dxC =  /* dxC(:,1,:,1) ( m - cartesian, degrees - spherical ) */
(PID.TID 0000.0001)    90 @  9.246038586187513E+04              /* I =  1: 90 */
(PID.TID 0000.0001)     ;
(PID.TID 0000.0001) dxC =  /* dxC(1,:,1,:) ( m - cartesian, degrees - spherical ) */
(PID.TID 0000.0001)                 9.246038586187513E+04,      /* J =  1 */
(PID.TID 0000.0001)                 1.225786591246834E+05,      /* J =  2 */
(PID.TID 0000.0001)                 1.520997414818001E+05,      /* J =  3 */
(PID.TID 0000.0001)                 1.808798091874300E+05,      /* J =  4 */
(PID.TID 0000.0001)                 2.087786486446736E+05,      /* J =  5 */
(PID.TID 0000.0001)                 2.356603395120766E+05,      /* J =  6 */
(PID.TID 0000.0001)                 2.613939168938713E+05,      /* J =  7 */
(PID.TID 0000.0001)                 2.858540093877838E+05,      /* J =  8 */
(PID.TID 0000.0001)                 3.089214498819035E+05,      /* J =  9 */
(PID.TID 0000.0001)                 3.304838561248741E+05,      /* J = 10 */
(PID.TID 0000.0001)                 3.504361782409254E+05,      /* J = 11 */
(PID.TID 0000.0001)                 3.686812105223083E+05,      /* J = 12 */
(PID.TID 0000.0001)                 3.851300650057322E+05,      /* J = 13 */
(PID.TID 0000.0001)                 3.997026045255871E+05,      /* J = 14 */
(PID.TID 0000.0001)                 4.123278331341585E+05,      /* J = 15 */
(PID.TID 0000.0001)                 4.229442419867491E+05,      /* J = 16 */
(PID.TID 0000.0001)                 4.315001090065869E+05,      /* J = 17 */
(PID.TID 0000.0001)                 4.379537508695839E+05,      /* J = 18 */
(PID.TID 0000.0001)                 4.422737260813013E+05,      /* J = 19 */
(PID.TID 0000.0001)     2 @  4.444389881567501E+05,             /* J = 20: 21 */
(PID.TID 0000.0001)                 4.422737260813013E+05,      /* J = 22 */
(PID.TID 0000.0001)                 4.379537508695839E+05,      /* J = 23 */
(PID.TID 0000.0001)                 4.315001090065869E+05,      /* J = 24 */
(PID.TID 0000.0001)                 4.229442419867491E+05,      /* J = 25 */
(PID.TID 0000.0001)                 4.123278331341585E+05,      /* J = 26 */
(PID.TID 0000.0001)                 3.997026045255871E+05,      /* J = 27 */
(PID.TID 0000.0001)                 3.851300650057322E+05,      /* J = 28 */
(PID.TID 0000.0001)                 3.686812105223083E+05,      /* J = 29 */
(PID.TID 0000.0001)                 3.504361782409254E+05,      /* J = 30 */
(PID.TID 0000.0001)                 3.304838561248741E+05,      /* J = 31 */
(PID.TID 0000.0001)                 3.089214498819035E+05,      /* J = 32 */
(PID.TID 0000.0001)                 2.858540093877838E+05,      /* J = 33 */
(PID.TID 0000.0001)                 2.613939168938713E+05,      /* J = 34 */
(PID.TID 0000.0001)                 2.356603395120766E+05,      /* J = 35 */
(PID.TID 0000.0001)                 2.087786486446736E+05,      /* J = 36 */
(PID.TID 0000.0001)                 1.808798091874300E+05,      /* J = 37 */
(PID.TID 0000.0001)                 1.520997414818001E+05,      /* J = 38 */
(PID.TID 0000.0001)                 1.225786591246834E+05,      /* J = 39 */
(PID.TID 0000.0001)                 9.246038586187513E+04       /* J = 40 */
(PID.TID 0000.0001)     ;
(PID.TID 0000.0001) dyC =  /* dyC(:,1,:,1) ( m - cartesian, degrees - spherical ) */
(PID.TID 0000.0001)    90 @  4.447098934081552E+05              /* I =  1: 90 */
(PID.TID 0000.0001)     ;
(PID.TID 0000.0001) dyC =  /* dyC(1,:,1,:) ( m - cartesian, degrees - spherical ) */
(PID.TID 0000.0001)    40 @  4.447098934081552E+05              /* J =  1: 40 */
(PID.TID 0000.0001)     ;
(PID.TID 0000.0001) dxV =  /* dxV(:,1,:,1) ( m - cartesian, degrees - spherical ) */
(PID.TID 0000.0001)    90 @  7.722306258078101E+04              /* I =  1: 90 */
(PID.TID 0000.0001)     ;
(PID.TID 0000.0001) dxV =  /* dxV(1,:,1,:) ( m - cartesian, degrees - spherical ) */
(PID.TID 0000.0001)                 7.722306258078101E+04,      /* J =  1 */
(PID.TID 0000.0001)                 1.075850604052271E+05,      /* J =  2 */
(PID.TID 0000.0001)                 1.374229146297914E+05,      /* J =  3 */
(PID.TID 0000.0001)                 1.665912582279823E+05,      /* J =  4 */
(PID.TID 0000.0001)                 1.949479859617814E+05,      /* J =  5 */
(PID.TID 0000.0001)                 2.223549467040776E+05,      /* J =  6 */
(PID.TID 0000.0001)                 2.486786164970726E+05,      /* J =  7 */
(PID.TID 0000.0001)                 2.737907490675810E+05,      /* J =  8 */
(PID.TID 0000.0001)                 2.975690006299820E+05,      /* J =  9 */
(PID.TID 0000.0001)                 3.198975259328452E+05,      /* J = 10 */
(PID.TID 0000.0001)                 3.406675426453503E+05,      /* J = 11 */
(PID.TID 0000.0001)                 3.597778613338689E+05,      /* J = 12 */
(PID.TID 0000.0001)                 3.771353784467131E+05,      /* J = 13 */
(PID.TID 0000.0001)                 3.926555299052806E+05,      /* J = 14 */
(PID.TID 0000.0001)                 4.062627030917454E+05,      /* J = 15 */
(PID.TID 0000.0001)                 4.178906052261313E+05,      /* J = 16 */
(PID.TID 0000.0001)                 4.274825863380723E+05,      /* J = 17 */
(PID.TID 0000.0001)                 4.349919152597734E+05,      /* J = 18 */
(PID.TID 0000.0001)                 4.403820072955634E+05,      /* J = 19 */
(PID.TID 0000.0001)                 4.436266024588540E+05,      /* J = 20 */
(PID.TID 0000.0001)                 4.447098934081552E+05,      /* J = 21 */
(PID.TID 0000.0001)                 4.436266024588540E+05,      /* J = 22 */
(PID.TID 0000.0001)                 4.403820072955634E+05,      /* J = 23 */
(PID.TID 0000.0001)                 4.349919152597734E+05,      /* J = 24 */
(PID.TID 0000.0001)                 4.274825863380723E+05,      /* J = 25 */
(PID.TID 0000.0001)                 4.178906052261313E+05,      /* J = 26 */
(PID.TID 0000.0001)                 4.062627030917454E+05,      /* J = 27 */
(PID.TID 0000.0001)                 3.926555299052806E+05,      /* J = 28 */
(PID.TID 0000.0001)                 3.771353784467131E+05,      /* J = 29 */
(PID.TID 0000.0001)                 3.597778613338689E+05,      /* J = 30 */
(PID.TID 0000.0001)                 3.406675426453503E+05,      /* J = 31 */
(PID.TID 0000.0001)                 3.198975259328452E+05,      /* J = 32 */
(PID.TID 0000.0001)                 2.975690006299820E+05,      /* J = 33 */
(PID.TID 0000.0001)                 2.737907490675810E+05,      /* J = 34 */
(PID.TID 0000.0001)                 2.486786164970726E+05,      /* J = 35 */
(PID.TID 0000.0001)                 2.223549467040776E+05,      /* J = 36 */
(PID.TID 0000.0001)                 1.949479859617814E+05,      /* J = 37 */
(PID.TID 0000.0001)                 1.665912582279823E+05,      /* J = 38 */
(PID.TID 0000.0001)                 1.374229146297914E+05,      /* J = 39 */
(PID.TID 0000.0001)                 1.075850604052271E+05       /* J = 40 */
(PID.TID 0000.0001)     ;
(PID.TID 0000.0001) dyU =  /* dyU(:,1,:,1) ( m - cartesian, degrees - spherical ) */
(PID.TID 0000.0001)    90 @  4.447098934081552E+05              /* I =  1: 90 */
(PID.TID 0000.0001)     ;
(PID.TID 0000.0001) dyU =  /* dyU(1,:,1,:) ( m - cartesian, degrees - spherical ) */
(PID.TID 0000.0001)    40 @  4.447098934081552E+05              /* J =  1: 40 */
(PID.TID 0000.0001)     ;
(PID.TID 0000.0001) rA =  /* rA(:,1,:,1) ( m - cartesian, degrees - spherical ) */
(PID.TID 0000.0001)    90 @  4.110969866729054E+10              /* I =  1: 90 */
(PID.TID 0000.0001)     ;
(PID.TID 0000.0001) rA =  /* rA(1,:,1,:) ( m - cartesian, degrees - spherical ) */
(PID.TID 0000.0001)                 4.110969866729054E+10,      /* J =  1 */
(PID.TID 0000.0001)                 5.450087291636668E+10,      /* J =  2 */
(PID.TID 0000.0001)                 6.762652439100243E+10,      /* J =  3 */
(PID.TID 0000.0001)                 8.042270623659999E+10,      /* J =  4 */
(PID.TID 0000.0001)                 9.282707674147508E+10,      /* J =  5 */
(PID.TID 0000.0001)                 1.047792030594103E+11,      /* J =  6 */
(PID.TID 0000.0001)                 1.162208556324092E+11,      /* J =  7 */
(PID.TID 0000.0001)                 1.270962918792467E+11,      /* J =  8 */
(PID.TID 0000.0001)                 1.373525277677230E+11,      /* J =  9 */
(PID.TID 0000.0001)                 1.469395959475425E+11,      /* J = 10 */
(PID.TID 0000.0001)                 1.558107891862221E+11,      /* J = 11 */
(PID.TID 0000.0001)                 1.639228879220325E+11,      /* J = 12 */
(PID.TID 0000.0001)                 1.712363708253575E+11,      /* J = 13 */
(PID.TID 0000.0001)                 1.777156073426414E+11,      /* J = 14 */
(PID.TID 0000.0001)                 1.833290312848624E+11,      /* J = 15 */
(PID.TID 0000.0001)                 1.880492946148330E+11,      /* J = 16 */
(PID.TID 0000.0001)                 1.918534006840893E+11,      /* J = 17 */
(PID.TID 0000.0001)                 1.947228162702492E+11,      /* J = 18 */
(PID.TID 0000.0001)                 1.966435618690094E+11,      /* J = 19 */
(PID.TID 0000.0001)                 1.976062798008855E+11,      /* J = 20 */
(PID.TID 0000.0001)                 1.976062798008856E+11,      /* J = 21 */
(PID.TID 0000.0001)                 1.966435618690094E+11,      /* J = 22 */
(PID.TID 0000.0001)                 1.947228162702492E+11,      /* J = 23 */
(PID.TID 0000.0001)                 1.918534006840893E+11,      /* J = 24 */
(PID.TID 0000.0001)                 1.880492946148330E+11,      /* J = 25 */
(PID.TID 0000.0001)                 1.833290312848623E+11,      /* J = 26 */
(PID.TID 0000.0001)                 1.777156073426414E+11,      /* J = 27 */
(PID.TID 0000.0001)                 1.712363708253574E+11,      /* J = 28 */
(PID.TID 0000.0001)                 1.639228879220325E+11,      /* J = 29 */
(PID.TID 0000.0001)                 1.558107891862220E+11,      /* J = 30 */
(PID.TID 0000.0001)                 1.469395959475424E+11,      /* J = 31 */
(PID.TID 0000.0001)                 1.373525277677230E+11,      /* J = 32 */
(PID.TID 0000.0001)                 1.270962918792467E+11,      /* J = 33 */
(PID.TID 0000.0001)                 1.162208556324095E+11,      /* J = 34 */
(PID.TID 0000.0001)                 1.047792030594104E+11,      /* J = 35 */
(PID.TID 0000.0001)                 9.282707674147527E+10,      /* J = 36 */
(PID.TID 0000.0001)                 8.042270623660011E+10,      /* J = 37 */
(PID.TID 0000.0001)                 6.762652439100233E+10,      /* J = 38 */
(PID.TID 0000.0001)                 5.450087291636658E+10,      /* J = 39 */
(PID.TID 0000.0001)                 4.110969866729044E+10       /* J = 40 */
(PID.TID 0000.0001)     ;
(PID.TID 0000.0001) rAw =  /* rAw(:,1,:,1) ( m - cartesian, degrees - spherical ) */
(PID.TID 0000.0001)    90 @  4.110969866729054E+10              /* I =  1: 90 */
(PID.TID 0000.0001)     ;
(PID.TID 0000.0001) rAw =  /* rAw(1,:,1,:) ( m - cartesian, degrees - spherical ) */
(PID.TID 0000.0001)                 4.110969866729054E+10,      /* J =  1 */
(PID.TID 0000.0001)                 5.450087291636668E+10,      /* J =  2 */
(PID.TID 0000.0001)                 6.762652439100243E+10,      /* J =  3 */
(PID.TID 0000.0001)                 8.042270623659999E+10,      /* J =  4 */
(PID.TID 0000.0001)                 9.282707674147508E+10,      /* J =  5 */
(PID.TID 0000.0001)                 1.047792030594103E+11,      /* J =  6 */
(PID.TID 0000.0001)                 1.162208556324092E+11,      /* J =  7 */
(PID.TID 0000.0001)                 1.270962918792467E+11,      /* J =  8 */
(PID.TID 0000.0001)                 1.373525277677230E+11,      /* J =  9 */
(PID.TID 0000.0001)                 1.469395959475425E+11,      /* J = 10 */
(PID.TID 0000.0001)                 1.558107891862221E+11,      /* J = 11 */
(PID.TID 0000.0001)                 1.639228879220325E+11,      /* J = 12 */
(PID.TID 0000.0001)                 1.712363708253575E+11,      /* J = 13 */
(PID.TID 0000.0001)                 1.777156073426414E+11,      /* J = 14 */
(PID.TID 0000.0001)                 1.833290312848624E+11,      /* J = 15 */
(PID.TID 0000.0001)                 1.880492946148330E+11,      /* J = 16 */
(PID.TID 0000.0001)                 1.918534006840893E+11,      /* J = 17 */
(PID.TID 0000.0001)                 1.947228162702492E+11,      /* J = 18 */
(PID.TID 0000.0001)                 1.966435618690094E+11,      /* J = 19 */
(PID.TID 0000.0001)                 1.976062798008855E+11,      /* J = 20 */
(PID.TID 0000.0001)                 1.976062798008856E+11,      /* J = 21 */
(PID.TID 0000.0001)                 1.966435618690094E+11,      /* J = 22 */
(PID.TID 0000.0001)                 1.947228162702492E+11,      /* J = 23 */
(PID.TID 0000.0001)                 1.918534006840893E+11,      /* J = 24 */
(PID.TID 0000.0001)                 1.880492946148330E+11,      /* J = 25 */
(PID.TID 0000.0001)                 1.833290312848623E+11,      /* J = 26 */
(PID.TID 0000.0001)                 1.777156073426414E+11,      /* J = 27 */
(PID.TID 0000.0001)                 1.712363708253574E+11,      /* J = 28 */
(PID.TID 0000.0001)                 1.639228879220325E+11,      /* J = 29 */
(PID.TID 0000.0001)                 1.558107891862220E+11,      /* J = 30 */
(PID.TID 0000.0001)                 1.469395959475424E+11,      /* J = 31 */
(PID.TID 0000.0001)                 1.373525277677230E+11,      /* J = 32 */
(PID.TID 0000.0001)                 1.270962918792467E+11,      /* J = 33 */
(PID.TID 0000.0001)                 1.162208556324095E+11,      /* J = 34 */
(PID.TID 0000.0001)                 1.047792030594104E+11,      /* J = 35 */
(PID.TID 0000.0001)                 9.282707674147527E+10,      /* J = 36 */
(PID.TID 0000.0001)                 8.042270623660011E+10,      /* J = 37 */
(PID.TID 0000.0001)                 6.762652439100233E+10,      /* J = 38 */
(PID.TID 0000.0001)                 5.450087291636658E+10,      /* J = 39 */
(PID.TID 0000.0001)                 4.110969866729044E+10       /* J = 40 */
(PID.TID 0000.0001)     ;
(PID.TID 0000.0001) rAs =  /* rAs(:,1,:,1) ( m - cartesian, degrees - spherical ) */
(PID.TID 0000.0001)    90 @  3.433488626798236E+10              /* I =  1: 90 */
(PID.TID 0000.0001)     ;
(PID.TID 0000.0001) rAs =  /* rAs(1,:,1,:) ( m - cartesian, degrees - spherical ) */
(PID.TID 0000.0001)                 3.433488626798236E+10,      /* J =  1 */
(PID.TID 0000.0001)                 4.783442523123635E+10,      /* J =  2 */
(PID.TID 0000.0001)                 6.110091968306405E+10,      /* J =  3 */
(PID.TID 0000.0001)                 7.406973659603827E+10,      /* J =  4 */
(PID.TID 0000.0001)                 8.667769319778091E+10,      /* J =  5 */
(PID.TID 0000.0001)                 9.886336479107472E+10,      /* J =  6 */
(PID.TID 0000.0001)                 1.105673840088174E+11,      /* J =  7 */
(PID.TID 0000.0001)                 1.217327300458637E+11,      /* J =  8 */
(PID.TID 0000.0001)                 1.323050064586579E+11,      /* J =  9 */
(PID.TID 0000.0001)                 1.422327061792379E+11,      /* J = 10 */
(PID.TID 0000.0001)                 1.514674624524945E+11,      /* J = 11 */
(PID.TID 0000.0001)                 1.599642844741385E+11,      /* J = 12 */
(PID.TID 0000.0001)                 1.676817765813787E+11,      /* J = 13 */
(PID.TID 0000.0001)                 1.745823399284268E+11,      /* J = 14 */
(PID.TID 0000.0001)                 1.806323556642997E+11,      /* J = 15 */
(PID.TID 0000.0001)                 1.858023487204767E+11,      /* J = 16 */
(PID.TID 0000.0001)                 1.900671314104744E+11,      /* J = 17 */
(PID.TID 0000.0001)                 1.934059261417216E+11,      /* J = 18 */
(PID.TID 0000.0001)                 1.958024666419019E+11,      /* J = 19 */
(PID.TID 0000.0001)                 1.972450772065981E+11,      /* J = 20 */
(PID.TID 0000.0001)                 1.977267295821495E+11,      /* J = 21 */
(PID.TID 0000.0001)                 1.972450772065981E+11,      /* J = 22 */
(PID.TID 0000.0001)                 1.958024666419019E+11,      /* J = 23 */
(PID.TID 0000.0001)                 1.934059261417216E+11,      /* J = 24 */
(PID.TID 0000.0001)                 1.900671314104744E+11,      /* J = 25 */
(PID.TID 0000.0001)                 1.858023487204767E+11,      /* J = 26 */
(PID.TID 0000.0001)                 1.806323556642997E+11,      /* J = 27 */
(PID.TID 0000.0001)                 1.745823399284267E+11,      /* J = 28 */
(PID.TID 0000.0001)                 1.676817765813788E+11,      /* J = 29 */
(PID.TID 0000.0001)                 1.599642844741386E+11,      /* J = 30 */
(PID.TID 0000.0001)                 1.514674624524945E+11,      /* J = 31 */
(PID.TID 0000.0001)                 1.422327061792377E+11,      /* J = 32 */
(PID.TID 0000.0001)                 1.323050064586577E+11,      /* J = 33 */
(PID.TID 0000.0001)                 1.217327300458638E+11,      /* J = 34 */
(PID.TID 0000.0001)                 1.105673840088174E+11,      /* J = 35 */
(PID.TID 0000.0001)                 9.886336479107451E+10,      /* J = 36 */
(PID.TID 0000.0001)                 8.667769319778070E+10,      /* J = 37 */
(PID.TID 0000.0001)                 7.406973659603806E+10,      /* J = 38 */
(PID.TID 0000.0001)                 6.110091968306404E+10,      /* J = 39 */
(PID.TID 0000.0001)                 4.783442523123634E+10       /* J = 40 */
(PID.TID 0000.0001)     ;
(PID.TID 0000.0001) 
(PID.TID 0000.0001)  MDSREADFIELD: opening global file: lev_t.bin
(PID.TID 0000.0001) // =======================================================
(PID.TID 0000.0001) // Field Initial Temperature at iteration          1
(PID.TID 0000.0001) // CMIN =         -8.538625820175458E-01
(PID.TID 0000.0001) // CMAX =          2.012045717433744E+00
(PID.TID 0000.0001) // CINT =          1.061447518315292E-01
(PID.TID 0000.0001) // SYMBOLS (CMIN->CMAX): -abcdefghijklmnopqrstuvwxyz+
(PID.TID 0000.0001) //                  0.0: .
(PID.TID 0000.0001) // RANGE I (Lo:Hi:Step):(   1:  90:   1)
(PID.TID 0000.0001) // RANGE J (Lo:Hi:Step):(  40:   1:  -1)
(PID.TID 0000.0001) // RANGE K (Lo:Hi:Step):(   1:   1:   1)
(PID.TID 0000.0001) // =======================================================
(PID.TID 0000.0001) K =   1
(PID.TID 0000.0001)                I=10      I=20      I=30      I=40      I=50      I=60      I=70      I=80      I=90
(PID.TID 0000.0001) |--J--|123456789|123456789|123456789|123456789|123456789|123456789|123456789|123456789|123456789|
(PID.TID 0000.0001)     40 ..........................................................................................
(PID.TID 0000.0001)     39 ..........................................................................................
(PID.TID 0000.0001)     38 ..........................................................................................
(PID.TID 0000.0001)     37 ..........................................................................................
(PID.TID 0000.0001)     36 ..........................................................................................
(PID.TID 0000.0001)     35 ..........................................................................................
(PID.TID 0000.0001)     34 ..........................................................................................
(PID.TID 0000.0001)     33 .......................................rrr.rrrrrrsss......................................
(PID.TID 0000.0001)     32 ......................................rrrr.rrrrssssss.....................................
(PID.TID 0000.0001)     31 ....................................rrrrrr.rrrrssssss......................yy.............
(PID.TID 0000.0001)     30 ....................................rrrr.rr.rrsssssssssss................yyyy.............
(PID.TID 0000.0001)     29 ...................................rrrr.rrr...rssrsrrssss...............yy.yyy.....++.....
(PID.TID 0000.0001)     28 ...................................rrrrrrrrrrrrrrrrrrr..................yyyxxx.....++.....
(PID.TID 0000.0001)     27 .....................................rrrrrrrr.r...rrr...................yyxxxx..zzzz+.....
(PID.TID 0000.0001)     26 ...............................tss..rrrrrrrrrrr....rrrrrr...............yyyxxx..zzzz......
(PID.TID 0000.0001)     25 ...............................stt..rrr..rq.....qrrrrqqqq.................www...zz........
(PID.TID 0000.0001)     24 ...............................tt...rrrrrqqqqqqqqqqqqqq.........................zzzz......
(PID.TID 0000.0001)     23 ....................................rrrr...qqqqq.qrrqrr.........................yzzz......
(PID.TID 0000.0001)     22 ...........................................qppppp..r.rr...................................
(PID.TID 0000.0001)     21 ...........................................pppppp.......................................yz
(PID.TID 0000.0001)     20 ............................................ppppppp...............................llp...zz
(PID.TID 0000.0001)     19 zz................qqq.......................pppp.pppp.............................lll.....
(PID.TID 0000.0001)     18 zz................qqq....oo.o.....................qpq.............................lll....z
(PID.TID 0000.0001)     17 zz................qqq.ooooooo.....................qp..............................lll....z
(PID.TID 0000.0001)     16 ++.................qq.oooooo...................nno................................llm....+
(PID.TID 0000.0001)     15 +......................noooo..................nnno................................llm....+
(PID.TID 0000.0001)     14 +...........nnn........nn.o...................nnnooo..............................mmm....+
(PID.TID 0000.0001)     13 .oo.........nnn...........oo..................nnnnnnoo....................................
(PID.TID 0000.0001)     12 nmm.......................nn..mmm.............ooooooooo...................................
(PID.TID 0000.0001)     11 oon.ll........ii...........mmmmmmmm...........n.noooooooo....................ggfgg........
(PID.TID 0000.0001)     10 on..l.hi......ii..............lmmmm.............mnnoooooo...................hhgggg........
(PID.TID 0000.0001)      9 .....ggg......................................nmmmmnnnnnn...................hhgggg........
(PID.TID 0000.0001)      8 .....fe......................................mmmmmm............................ff.........
(PID.TID 0000.0001)      7 .......bb...cc.............................llmmmm.................iii.....................
(PID.TID 0000.0001)      6 -aaaaabbbbbbccc............................lllm.............hhi.i.iii....................-
(PID.TID 0000.0001)      5 ---aaaaaaaaabbb...........................................hhhhhhhh.h.................-----
(PID.TID 0000.0001)      4 ..-aaaaa..................................................hhhhhhh....................----a
(PID.TID 0000.0001)      3 ..........................................................................................
(PID.TID 0000.0001)      2 ..........................................................................................
(PID.TID 0000.0001)      1 ..........................................................................................
(PID.TID 0000.0001) // =======================================================
(PID.TID 0000.0001) // END OF FIELD                                          =
(PID.TID 0000.0001) // =======================================================
(PID.TID 0000.0001) 
(PID.TID 0000.0001)  MDSREADFIELD: opening global file: lev_s.bin
(PID.TID 0000.0001) // =======================================================
(PID.TID 0000.0001) // Field Initial Salinity at iteration          1
(PID.TID 0000.0001) // CMIN =          3.464784170881562E+01
(PID.TID 0000.0001) // CMAX =          3.490372370636981E+01
(PID.TID 0000.0001) // CINT =          9.477111020525586E-03
(PID.TID 0000.0001) // SYMBOLS (CMIN->CMAX): -abcdefghijklmnopqrstuvwxyz+
(PID.TID 0000.0001) //                  0.0: .
(PID.TID 0000.0001) // RANGE I (Lo:Hi:Step):(   1:  90:   1)
(PID.TID 0000.0001) // RANGE J (Lo:Hi:Step):(  40:   1:  -1)
(PID.TID 0000.0001) // RANGE K (Lo:Hi:Step):(   1:   1:   1)
(PID.TID 0000.0001) // =======================================================
(PID.TID 0000.0001) K =   1
(PID.TID 0000.0001)                I=10      I=20      I=30      I=40      I=50      I=60      I=70      I=80      I=90
(PID.TID 0000.0001) |--J--|123456789|123456789|123456789|123456789|123456789|123456789|123456789|123456789|123456789|
(PID.TID 0000.0001)     40 ..........................................................................................
(PID.TID 0000.0001)     39 ..........................................................................................
(PID.TID 0000.0001)     38 ..........................................................................................
(PID.TID 0000.0001)     37 ..........................................................................................
(PID.TID 0000.0001)     36 ..........................................................................................
(PID.TID 0000.0001)     35 ..........................................................................................
(PID.TID 0000.0001)     34 ..........................................................................................
(PID.TID 0000.0001)     33 .......................................ddd.ddeeeeddd......................................
(PID.TID 0000.0001)     32 ......................................dddd.dddddddddd.....................................
(PID.TID 0000.0001)     31 ....................................edddde.eeedddddde......................+z.............
(PID.TID 0000.0001)     30 ....................................eefe.ee.eddddddddddee................+++z.............
(PID.TID 0000.0001)     29 ...................................ddee.dee...dddddeddddd...............++.zyy.....yz.....
(PID.TID 0000.0001)     28 ...................................cceebdeeeeeeddddded..................zzzyxx.....zz.....
(PID.TID 0000.0001)     27 .....................................deddeedd.e...dde...................zyyxxx..zzyzz.....
(PID.TID 0000.0001)     26 ...............................ddd..feeeeeeedef....eeeeee...............yzywww..z+zz......
(PID.TID 0000.0001)     25 ...............................ddc..edd..fe.....eeffffeee.................wwv...++........
(PID.TID 0000.0001)     24 ...............................dd...ddeffffeffefeeffeee.........................yyyz......
(PID.TID 0000.0001)     23 ....................................eded...effff.dffeee.........................yyzz......
(PID.TID 0000.0001)     22 ...........................................efffff..e.ee...................................
(PID.TID 0000.0001)     21 ...........................................fffgff.......................................yx
(PID.TID 0000.0001)     20 ............................................fghgffg...............................hin...xx
(PID.TID 0000.0001)     19 xy................ggf.......................fggg.ffff.............................iii.....
(PID.TID 0000.0001)     18 yy................cdd....gh.h.....................fff.............................ihh....y
(PID.TID 0000.0001)     17 yy................ddf.gggghhh.....................ff..............................ijj....y
(PID.TID 0000.0001)     16 yy.................fh.gggggi...................gff................................hii....y
(PID.TID 0000.0001)     15 y......................fgggh..................gggg................................gii....y
(PID.TID 0000.0001)     14 y...........ggg........gg.g...................gggggg..............................ijj....y
(PID.TID 0000.0001)     13 .ii.........ggg...........gg..................gggggfgg....................................
(PID.TID 0000.0001)     12 hhh.......................gg..ggg.............gggggfggg...................................
(PID.TID 0000.0001)     11 ggg.gf........dd...........hggggggg...........f.fggffffgg....................ccbcc........
(PID.TID 0000.0001)     10 gg..f.de......dd..............hgggg.............gfgggfggg...................edcccb........
(PID.TID 0000.0001)      9 .....ccd......................................fffffgggffg...................ccccbb........
(PID.TID 0000.0001)      8 .....cc......................................ffffff............................bb.........
(PID.TID 0000.0001)      7 .......bb...bb.............................efffff.................fff.....................
(PID.TID 0000.0001)      6 ---aaaaaaaabbbb............................efff.............fff.f.fff....................-
(PID.TID 0000.0001)      5 ---aaabaaaaaaaa...........................................ffgfffgf.f.................-----
(PID.TID 0000.0001)      4 ..-aabba..................................................fffffff....................-----
(PID.TID 0000.0001)      3 ..........................................................................................
(PID.TID 0000.0001)      2 ..........................................................................................
(PID.TID 0000.0001)      1 ..........................................................................................
(PID.TID 0000.0001) // =======================================================
(PID.TID 0000.0001) // END OF FIELD                                          =
(PID.TID 0000.0001) // =======================================================
(PID.TID 0000.0001) 
(PID.TID 0000.0001) Start initial hydrostatic pressure computation
(PID.TID 0000.0001) Pressure is predetermined for buoyancyRelation OCEANICP
(PID.TID 0000.0001) 
(PID.TID 0000.0001)  MDSREADFIELD: opening global file: trenberth_taux.bin
(PID.TID 0000.0001)  MDSREADFIELD: opening global file: trenberth_tauy.bin
(PID.TID 0000.0001)  MDSREADFIELD: opening global file: shi_qnet.bin
(PID.TID 0000.0001)  MDSREADFIELD: opening global file: shi_empmr.bin
(PID.TID 0000.0001)  MDSREADFIELD: opening global file: lev_sst.bin
(PID.TID 0000.0001)  MDSREADFIELD: opening global file: deltageopotjmd95.bin
(PID.TID 0000.0001) // =======================================================
(PID.TID 0000.0001) // Model current state
(PID.TID 0000.0001) // =======================================================
(PID.TID 0000.0001) 
(PID.TID 0000.0001) // =======================================================
(PID.TID 0000.0001) // Begin MONITOR dynamic field statistics
(PID.TID 0000.0001) // =======================================================
(PID.TID 0000.0001) %MON time_tsnumber                =                     0
(PID.TID 0000.0001) %MON time_secondsf                =   0.0000000000000E+00
(PID.TID 0000.0001) %MON dynstat_eta_max              =   0.0000000000000E+00
(PID.TID 0000.0001) %MON dynstat_eta_min              =   0.0000000000000E+00
(PID.TID 0000.0001) %MON dynstat_eta_mean             =   2.4574127173791-175
(PID.TID 0000.0001) %MON dynstat_eta_sd               =   0.0000000000000E+00
(PID.TID 0000.0001) %MON dynstat_eta_del2             =   2.6021073202073-157
(PID.TID 0000.0001) %MON dynstat_uvel_max             =   0.0000000000000E+00
(PID.TID 0000.0001) %MON dynstat_uvel_min             =   0.0000000000000E+00
(PID.TID 0000.0001) %MON dynstat_uvel_mean            =   4.9386135928958-176
(PID.TID 0000.0001) %MON dynstat_uvel_sd              =   0.0000000000000E+00
(PID.TID 0000.0001) %MON dynstat_uvel_del2            =   2.2840588031750-158
(PID.TID 0000.0001) %MON dynstat_vvel_max             =   0.0000000000000E+00
(PID.TID 0000.0001) %MON dynstat_vvel_min             =   0.0000000000000E+00
(PID.TID 0000.0001) %MON dynstat_vvel_mean            =   4.9893111697207-176
(PID.TID 0000.0001) %MON dynstat_vvel_sd              =   0.0000000000000E+00
(PID.TID 0000.0001) %MON dynstat_vvel_del2            =   2.3416939318532-158
(PID.TID 0000.0001) %MON dynstat_wvel_max             =   0.0000000000000E+00
(PID.TID 0000.0001) %MON dynstat_wvel_min             =   0.0000000000000E+00
(PID.TID 0000.0001) %MON dynstat_wvel_mean            =   4.2644728822337-176
(PID.TID 0000.0001) %MON dynstat_wvel_sd              =   0.0000000000000E+00
(PID.TID 0000.0001) %MON dynstat_wvel_del2            =   2.1209290082175-158
(PID.TID 0000.0001) %MON dynstat_theta_max            =   2.9733511003948E+01
(PID.TID 0000.0001) %MON dynstat_theta_min            =  -2.6263839329562E+00
(PID.TID 0000.0001) %MON dynstat_theta_mean           =   3.6018664655655E+00
(PID.TID 0000.0001) %MON dynstat_theta_sd             =   4.4018845380980E+00
(PID.TID 0000.0001) %MON dynstat_theta_del2           =   1.5429255071065E-01
(PID.TID 0000.0001) %MON dynstat_salt_max             =   3.7475629659304E+01
(PID.TID 0000.0001) %MON dynstat_salt_min             =   2.9752769471420E+01
(PID.TID 0000.0001) %MON dynstat_salt_mean            =   3.4718001015838E+01
(PID.TID 0000.0001) %MON dynstat_salt_sd              =   2.9462524950604E-01
(PID.TID 0000.0001) %MON dynstat_salt_del2            =   2.6846692931047E-02
(PID.TID 0000.0001) %MON advcfl_uvel_max              =   0.0000000000000E+00
(PID.TID 0000.0001) %MON advcfl_vvel_max              =   0.0000000000000E+00
(PID.TID 0000.0001) %MON advcfl_wvel_max              =   0.0000000000000E+00
(PID.TID 0000.0001) %MON advcfl_W_hf_max              =   0.0000000000000E+00
(PID.TID 0000.0001) %MON pe_b_mean                    =   0.0000000000000E+00
(PID.TID 0000.0001) %MON ke_max                       =   0.0000000000000E+00
(PID.TID 0000.0001) %MON ke_mean                      =   0.0000000000000E+00
(PID.TID 0000.0001) %MON ke_vol                       =   1.3442141716554E+22
(PID.TID 0000.0001) %MON vort_r_min                   =   0.0000000000000E+00
(PID.TID 0000.0001) %MON vort_r_max                   =   0.0000000000000E+00
(PID.TID 0000.0001) %MON vort_a_mean                  =  -2.4531015880774E-05
(PID.TID 0000.0001) %MON vort_a_sd                    =   7.3436042941019E-05
(PID.TID 0000.0001) %MON vort_p_mean                  =  -2.9390264918857E-05
(PID.TID 0000.0001) %MON vort_p_sd                    =   1.0331963168452E-04
(PID.TID 0000.0001) %MON surfExpan_theta_mean         =   0.0000000000000E+00
(PID.TID 0000.0001) %MON surfExpan_salt_mean          =   0.0000000000000E+00
(PID.TID 0000.0001) // =======================================================
(PID.TID 0000.0001) // End MONITOR dynamic field statistics
(PID.TID 0000.0001) // =======================================================
 S/R EXTERNAL_FIELDS_LOAD: Reading new data  0. 0
(PID.TID 0000.0001)  MDSREADFIELD: opening global file: trenberth_taux.bin
(PID.TID 0000.0001)  MDSREADFIELD: opening global file: trenberth_taux.bin
(PID.TID 0000.0001)  MDSREADFIELD: opening global file: trenberth_tauy.bin
(PID.TID 0000.0001)  MDSREADFIELD: opening global file: trenberth_tauy.bin
(PID.TID 0000.0001)  MDSREADFIELD: opening global file: shi_qnet.bin
(PID.TID 0000.0001)  MDSREADFIELD: opening global file: shi_qnet.bin
(PID.TID 0000.0001)  MDSREADFIELD: opening global file: shi_empmr.bin
(PID.TID 0000.0001)  MDSREADFIELD: opening global file: shi_empmr.bin
(PID.TID 0000.0001)  MDSREADFIELD: opening global file: lev_sst.bin
(PID.TID 0000.0001)  MDSREADFIELD: opening global file: lev_sst.bin
(PID.TID 0000.0001)  MDSREADFIELD: opening global file: deltageopotjmd95.bin
(PID.TID 0000.0001)  MDSREADFIELD: opening global file: deltageopotjmd95.bin
time,SST,SSS,fu,fv,Q,E-P,i0,i1,a,b =   0.0000E+00  2.4948E+01  0.0000E+00 -1.0804E-02  2.9462E-02 -8.6505E+01 -5.1109E-09    12     1  5.3333E-01  4.6667E-01
time,fu0,fu1,fu =   0.0000E+00 -1.3840E-02 -8.1474E-03 -1.0804E-02  5.3333E-01  4.6667E-01
 cg2d: Sum(rhs),rhsMax =   6.10622663543836E-16  1.71163423876591E+02
(PID.TID 0000.0001)                    cg2d_init_res =    9.36692222671516E+00
(PID.TID 0000.0001)                       cg2d_iters =   107
(PID.TID 0000.0001)                         cg2d_res =    9.63057839262021E-10
(PID.TID 0000.0001) // =======================================================
(PID.TID 0000.0001) // Begin MONITOR dynamic field statistics
(PID.TID 0000.0001) // =======================================================
(PID.TID 0000.0001) %MON time_tsnumber                =                     1
(PID.TID 0000.0001) %MON time_secondsf                =   1.7280000000000E+05
(PID.TID 0000.0001) %MON dynstat_eta_max              =   4.1657165020824E+04
(PID.TID 0000.0001) %MON dynstat_eta_min              =  -8.8276375956766E+04
(PID.TID 0000.0001) %MON dynstat_eta_mean             =  -1.0950096901964E-12
(PID.TID 0000.0001) %MON dynstat_eta_sd               =   3.6901405584725E+04
(PID.TID 0000.0001) %MON dynstat_eta_del2             =   2.3562066944369E+04
(PID.TID 0000.0001) %MON dynstat_uvel_max             =   3.5125732017451E-02
(PID.TID 0000.0001) %MON dynstat_uvel_min             =  -3.5357446912040E-02
(PID.TID 0000.0001) %MON dynstat_uvel_mean            =  -8.4137049442003E-04
(PID.TID 0000.0001) %MON dynstat_uvel_sd              =   2.2142813851381E-03
(PID.TID 0000.0001) %MON dynstat_uvel_del2            =   7.7406251871371E-04
(PID.TID 0000.0001) %MON dynstat_vvel_max             =   3.5008027831034E-02
(PID.TID 0000.0001) %MON dynstat_vvel_min             =  -2.4496078806589E-02
(PID.TID 0000.0001) %MON dynstat_vvel_mean            =   1.0871907722555E-03
(PID.TID 0000.0001) %MON dynstat_vvel_sd              =   2.2888132759183E-03
(PID.TID 0000.0001) %MON dynstat_vvel_del2            =   7.6102756372939E-04
(PID.TID 0000.0001) %MON dynstat_wvel_max             =   5.0250186481042E-01
(PID.TID 0000.0001) %MON dynstat_wvel_min             =  -6.2689460614527E-01
(PID.TID 0000.0001) %MON dynstat_wvel_mean            =  -6.6718508441641E-03
(PID.TID 0000.0001) %MON dynstat_wvel_sd              =   1.5353628629540E-01
(PID.TID 0000.0001) %MON dynstat_wvel_del2            =   6.1610670030928E-02
(PID.TID 0000.0001) %MON dynstat_theta_max            =   2.9713265304180E+01
(PID.TID 0000.0001) %MON dynstat_theta_min            =  -2.6183664565810E+00
(PID.TID 0000.0001) %MON dynstat_theta_mean           =   3.6019910573991E+00
(PID.TID 0000.0001) %MON dynstat_theta_sd             =   4.4015315967485E+00
(PID.TID 0000.0001) %MON dynstat_theta_del2           =   1.5479567598383E-01
(PID.TID 0000.0001) %MON dynstat_salt_max             =   3.7478618521905E+01
(PID.TID 0000.0001) %MON dynstat_salt_min             =   2.9762213911218E+01
(PID.TID 0000.0001) %MON dynstat_salt_mean            =   3.4718001015838E+01
(PID.TID 0000.0001) %MON dynstat_salt_sd              =   2.9451022507208E-01
(PID.TID 0000.0001) %MON dynstat_salt_del2            =   2.6959492538962E-02
(PID.TID 0000.0001) %MON advcfl_uvel_max              =   2.1969228355722E-02
(PID.TID 0000.0001) %MON advcfl_vvel_max              =   1.3602996692611E-02
(PID.TID 0000.0001) %MON advcfl_wvel_max              =   4.1333629360711E-02
(PID.TID 0000.0001) %MON advcfl_W_hf_max              =   4.1333629360710E-02
(PID.TID 0000.0001) %MON pe_b_mean                    =  -6.4369790121843E-03
(PID.TID 0000.0001) %MON ke_max                       =   5.7559085137897E-04
(PID.TID 0000.0001) %MON ke_mean                      =   5.4209038534732E-06
(PID.TID 0000.0001) %MON ke_vol                       =   1.3442141716554E+22
(PID.TID 0000.0001) %MON vort_r_min                   =  -1.1938224035749E-07
(PID.TID 0000.0001) %MON vort_r_max                   =   1.5595002978092E-07
(PID.TID 0000.0001) %MON vort_a_mean                  =  -2.4531015891592E-05
(PID.TID 0000.0001) %MON vort_a_sd                    =   7.3435845880052E-05
(PID.TID 0000.0001) %MON vort_p_mean                  =  -2.9390264931819E-05
(PID.TID 0000.0001) %MON vort_p_sd                    =   1.0331909362888E-04
(PID.TID 0000.0001) %MON surfExpan_theta_mean         =   6.7340147146042E-02
(PID.TID 0000.0001) %MON surfExpan_salt_mean          =  -2.2622015400241E-04
(PID.TID 0000.0001) // =======================================================
(PID.TID 0000.0001) // End MONITOR dynamic field statistics
(PID.TID 0000.0001) // =======================================================
time,SST,SSS,fu,fv,Q,E-P,i0,i1,a,b =   1.7280E+05  2.5087E+01  0.0000E+00 -1.0425E-02  2.8680E-02 -8.7292E+01 -5.1109E-09    12     1  6.0000E-01  4.0000E-01
time,fu0,fu1,fu =   1.7280E+05 -1.3840E-02 -8.1474E-03 -1.0425E-02  6.0000E-01  4.0000E-01
 cg2d: Sum(rhs),rhsMax =   1.69309011255336E-15  1.74491047479739E+02
(PID.TID 0000.0001)                    cg2d_init_res =    2.47708172279530E-01
(PID.TID 0000.0001)                       cg2d_iters =   100
(PID.TID 0000.0001)                         cg2d_res =    8.69452889433595E-10
(PID.TID 0000.0001) // =======================================================
(PID.TID 0000.0001) // Begin MONITOR dynamic field statistics
(PID.TID 0000.0001) // =======================================================
(PID.TID 0000.0001) %MON time_tsnumber                =                     2
(PID.TID 0000.0001) %MON time_secondsf                =   3.4560000000000E+05
(PID.TID 0000.0001) %MON dynstat_eta_max              =   4.8801003935148E+04
(PID.TID 0000.0001) %MON dynstat_eta_min              =  -8.9519125012634E+04
(PID.TID 0000.0001) %MON dynstat_eta_mean             =  -2.0583663219923E-13
(PID.TID 0000.0001) %MON dynstat_eta_sd               =   3.9643961847771E+04
(PID.TID 0000.0001) %MON dynstat_eta_del2             =   2.4287467918833E+04
(PID.TID 0000.0001) %MON dynstat_uvel_max             =   6.3634222922679E-02
(PID.TID 0000.0001) %MON dynstat_uvel_min             =  -4.0770527965876E-02
(PID.TID 0000.0001) %MON dynstat_uvel_mean            =  -1.1816102449752E-03
(PID.TID 0000.0001) %MON dynstat_uvel_sd              =   2.2777926493052E-03
(PID.TID 0000.0001) %MON dynstat_uvel_del2            =   8.3222316084319E-04
(PID.TID 0000.0001) %MON dynstat_vvel_max             =   5.2235073509046E-02
(PID.TID 0000.0001) %MON dynstat_vvel_min             =  -3.0675681745593E-02
(PID.TID 0000.0001) %MON dynstat_vvel_mean            =   1.5483556713287E-03
(PID.TID 0000.0001) %MON dynstat_vvel_sd              =   2.9966041351362E-03
(PID.TID 0000.0001) %MON dynstat_vvel_del2            =   9.0390644547169E-04
(PID.TID 0000.0001) %MON dynstat_wvel_max             =   6.3728869238342E-01
(PID.TID 0000.0001) %MON dynstat_wvel_min             =  -7.8830959081479E-01
(PID.TID 0000.0001) %MON dynstat_wvel_mean            =  -3.3033341293979E-03
(PID.TID 0000.0001) %MON dynstat_wvel_sd              =   8.9420032131624E-02
(PID.TID 0000.0001) %MON dynstat_wvel_del2            =   4.6781541393182E-02
(PID.TID 0000.0001) %MON dynstat_theta_max            =   2.9688317749558E+01
(PID.TID 0000.0001) %MON dynstat_theta_min            =  -2.6127583359216E+00
(PID.TID 0000.0001) %MON dynstat_theta_mean           =   3.6019450086211E+00
(PID.TID 0000.0001) %MON dynstat_theta_sd             =   4.4012662190688E+00
(PID.TID 0000.0001) %MON dynstat_theta_del2           =   1.5406689430966E-01
(PID.TID 0000.0001) %MON dynstat_salt_max             =   3.7481694673619E+01
(PID.TID 0000.0001) %MON dynstat_salt_min             =   2.9765580136839E+01
(PID.TID 0000.0001) %MON dynstat_salt_mean            =   3.4718001573793E+01
(PID.TID 0000.0001) %MON dynstat_salt_sd              =   2.9441685774619E-01
(PID.TID 0000.0001) %MON dynstat_salt_del2            =   2.7040206794804E-02
(PID.TID 0000.0001) %MON advcfl_uvel_max              =   3.3744577226830E-02
(PID.TID 0000.0001) %MON advcfl_vvel_max              =   2.0296874065896E-02
(PID.TID 0000.0001) %MON advcfl_wvel_max              =   5.3361721740676E-02
(PID.TID 0000.0001) %MON advcfl_W_hf_max              =   5.3361721740676E-02
(PID.TID 0000.0001) %MON pe_b_mean                    =  -7.1801699538543E-03
(PID.TID 0000.0001) %MON ke_max                       =   1.7108501652507E-03
(PID.TID 0000.0001) %MON ke_mean                      =   8.0817995004357E-06
(PID.TID 0000.0001) %MON ke_vol                       =   1.3442141716554E+22
(PID.TID 0000.0001) %MON vort_r_min                   =  -1.7583725407496E-07
(PID.TID 0000.0001) %MON vort_r_max                   =   1.8567143777433E-07
(PID.TID 0000.0001) %MON vort_a_mean                  =  -2.4531016005856E-05
(PID.TID 0000.0001) %MON vort_a_sd                    =   7.3435759247754E-05
(PID.TID 0000.0001) %MON vort_p_mean                  =  -2.9399877552700E-05
(PID.TID 0000.0001) %MON vort_p_sd                    =   1.0336783841402E-04
(PID.TID 0000.0001) %MON surfExpan_theta_mean         =   3.6681877092933E-02
(PID.TID 0000.0001) %MON surfExpan_salt_mean          =  -9.6953799357876E-05
(PID.TID 0000.0001) // =======================================================
(PID.TID 0000.0001) // End MONITOR dynamic field statistics
(PID.TID 0000.0001) // =======================================================
time,SST,SSS,fu,fv,Q,E-P,i0,i1,a,b =   3.4560E+05  2.5227E+01  0.0000E+00 -1.0045E-02  2.7897E-02 -8.8079E+01 -5.1109E-09    12     1  6.6667E-01  3.3333E-01
time,fu0,fu1,fu =   3.4560E+05 -1.3840E-02 -8.1474E-03 -1.0045E-02  6.6667E-01  3.3333E-01
 cg2d: Sum(rhs),rhsMax =  -1.16573417585641E-15  1.72945928711721E+02
(PID.TID 0000.0001)                    cg2d_init_res =    1.06014926367092E-01
(PID.TID 0000.0001)                       cg2d_iters =    99
(PID.TID 0000.0001)                         cg2d_res =    8.15177193630444E-10
(PID.TID 0000.0001) // =======================================================
(PID.TID 0000.0001) // Begin MONITOR dynamic field statistics
(PID.TID 0000.0001) // =======================================================
(PID.TID 0000.0001) %MON time_tsnumber                =                     3
(PID.TID 0000.0001) %MON time_secondsf                =   5.1840000000000E+05
(PID.TID 0000.0001) %MON dynstat_eta_max              =   5.1297753286323E+04
(PID.TID 0000.0001) %MON dynstat_eta_min              =  -9.1295481037472E+04
(PID.TID 0000.0001) %MON dynstat_eta_mean             =   4.6326779393329E-13
(PID.TID 0000.0001) %MON dynstat_eta_sd               =   3.9696774459890E+04
(PID.TID 0000.0001) %MON dynstat_eta_del2             =   2.3981509310588E+04
(PID.TID 0000.0001) %MON dynstat_uvel_max             =   7.1974517618097E-02
(PID.TID 0000.0001) %MON dynstat_uvel_min             =  -5.1968821885669E-02
(PID.TID 0000.0001) %MON dynstat_uvel_mean            =  -1.1614093869737E-03
(PID.TID 0000.0001) %MON dynstat_uvel_sd              =   2.7063575042036E-03
(PID.TID 0000.0001) %MON dynstat_uvel_del2            =   1.1074016787261E-03
(PID.TID 0000.0001) %MON dynstat_vvel_max             =   5.4077395959112E-02
(PID.TID 0000.0001) %MON dynstat_vvel_min             =  -4.5486543243163E-02
(PID.TID 0000.0001) %MON dynstat_vvel_mean            =   1.5247168504973E-03
(PID.TID 0000.0001) %MON dynstat_vvel_sd              =   4.1663366888732E-03
(PID.TID 0000.0001) %MON dynstat_vvel_del2            =   1.2424151003544E-03
(PID.TID 0000.0001) %MON dynstat_wvel_max             =   8.8862456021137E-01
(PID.TID 0000.0001) %MON dynstat_wvel_min             =  -1.0818412022358E+00
(PID.TID 0000.0001) %MON dynstat_wvel_mean            =  -1.5498459949708E-03
(PID.TID 0000.0001) %MON dynstat_wvel_sd              =   1.2224222012355E-01
(PID.TID 0000.0001) %MON dynstat_wvel_del2            =   6.2569737891994E-02
(PID.TID 0000.0001) %MON dynstat_theta_max            =   2.9675051403739E+01
(PID.TID 0000.0001) %MON dynstat_theta_min            =  -2.6038579342234E+00
(PID.TID 0000.0001) %MON dynstat_theta_mean           =   3.6021604296629E+00
(PID.TID 0000.0001) %MON dynstat_theta_sd             =   4.4012819003185E+00
(PID.TID 0000.0001) %MON dynstat_theta_del2           =   1.5212462216103E-01
(PID.TID 0000.0001) %MON dynstat_salt_max             =   3.7435160943017E+01
(PID.TID 0000.0001) %MON dynstat_salt_min             =   2.9770563574354E+01
(PID.TID 0000.0001) %MON dynstat_salt_mean            =   3.4718001226694E+01
(PID.TID 0000.0001) %MON dynstat_salt_sd              =   2.9442255048471E-01
(PID.TID 0000.0001) %MON dynstat_salt_del2            =   2.6913038679664E-02
(PID.TID 0000.0001) %MON advcfl_uvel_max              =   4.2013947592141E-02
(PID.TID 0000.0001) %MON advcfl_vvel_max              =   2.1012741475392E-02
(PID.TID 0000.0001) %MON advcfl_wvel_max              =   6.7819188088445E-02
(PID.TID 0000.0001) %MON advcfl_W_hf_max              =   6.7819188088445E-02
(PID.TID 0000.0001) %MON pe_b_mean                    =  -8.1526783132170E-03
(PID.TID 0000.0001) %MON ke_max                       =   2.0313786999838E-03
(PID.TID 0000.0001) %MON ke_mean                      =   1.2750686470966E-05
(PID.TID 0000.0001) %MON ke_vol                       =   1.3442141716554E+22
(PID.TID 0000.0001) %MON vort_r_min                   =  -2.0971588093838E-07
(PID.TID 0000.0001) %MON vort_r_max                   =   2.3823144416449E-07
(PID.TID 0000.0001) %MON vort_a_mean                  =  -2.4531016156362E-05
(PID.TID 0000.0001) %MON vort_a_sd                    =   7.3435757775056E-05
(PID.TID 0000.0001) %MON vort_p_mean                  =  -2.9400606306568E-05
(PID.TID 0000.0001) %MON vort_p_sd                    =   1.0337416740282E-04
(PID.TID 0000.0001) %MON surfExpan_theta_mean         =   1.7624275980042E-02
(PID.TID 0000.0001) %MON surfExpan_salt_mean          =  -2.8926312783370E-04
(PID.TID 0000.0001) // =======================================================
(PID.TID 0000.0001) // End MONITOR dynamic field statistics
(PID.TID 0000.0001) // =======================================================
time,SST,SSS,fu,fv,Q,E-P,i0,i1,a,b =   5.1840E+05  2.5366E+01  0.0000E+00 -9.6655E-03  2.7114E-02 -8.8865E+01 -5.1109E-09    12     1  7.3333E-01  2.6667E-01
time,fu0,fu1,fu =   5.1840E+05 -1.3840E-02 -8.1474E-03 -9.6655E-03  7.3333E-01  2.6667E-01
 cg2d: Sum(rhs),rhsMax =   1.08246744900953E-15  1.72905618116671E+02
(PID.TID 0000.0001)                    cg2d_init_res =    8.88323940783974E-03
(PID.TID 0000.0001)                       cg2d_iters =    91
(PID.TID 0000.0001)                         cg2d_res =    9.15902666808413E-10
(PID.TID 0000.0001) // =======================================================
(PID.TID 0000.0001) // Begin MONITOR dynamic field statistics
(PID.TID 0000.0001) // =======================================================
(PID.TID 0000.0001) %MON time_tsnumber                =                     4
(PID.TID 0000.0001) %MON time_secondsf                =   6.9120000000000E+05
(PID.TID 0000.0001) %MON dynstat_eta_max              =   5.1013832711299E+04
(PID.TID 0000.0001) %MON dynstat_eta_min              =  -9.2901638104040E+04
(PID.TID 0000.0001) %MON dynstat_eta_mean             =   6.9142042590188E-13
(PID.TID 0000.0001) %MON dynstat_eta_sd               =   4.0207170733603E+04
(PID.TID 0000.0001) %MON dynstat_eta_del2             =   2.3955142833888E+04
(PID.TID 0000.0001) %MON dynstat_uvel_max             =   6.1609535493572E-02
(PID.TID 0000.0001) %MON dynstat_uvel_min             =  -7.8157091684445E-02
(PID.TID 0000.0001) %MON dynstat_uvel_mean            =  -8.8769617921487E-04
(PID.TID 0000.0001) %MON dynstat_uvel_sd              =   3.1026057403467E-03
(PID.TID 0000.0001) %MON dynstat_uvel_del2            =   1.3422797063558E-03
(PID.TID 0000.0001) %MON dynstat_vvel_max             =   5.0830165347174E-02
(PID.TID 0000.0001) %MON dynstat_vvel_min             =  -5.9423759582665E-02
(PID.TID 0000.0001) %MON dynstat_vvel_mean            =   1.2053479226724E-03
(PID.TID 0000.0001) %MON dynstat_vvel_sd              =   5.2716610575655E-03
(PID.TID 0000.0001) %MON dynstat_vvel_del2            =   1.5552159995445E-03
(PID.TID 0000.0001) %MON dynstat_wvel_max             =   1.1534444350596E+00
(PID.TID 0000.0001) %MON dynstat_wvel_min             =  -1.3278287843375E+00
(PID.TID 0000.0001) %MON dynstat_wvel_mean            =  -9.7457886737227E-04
(PID.TID 0000.0001) %MON dynstat_wvel_sd              =   1.4928687949953E-01
(PID.TID 0000.0001) %MON dynstat_wvel_del2            =   7.3883507898298E-02
(PID.TID 0000.0001) %MON dynstat_theta_max            =   2.9664831878906E+01
(PID.TID 0000.0001) %MON dynstat_theta_min            =  -2.5955295786819E+00
(PID.TID 0000.0001) %MON dynstat_theta_mean           =   3.6023453974627E+00
(PID.TID 0000.0001) %MON dynstat_theta_sd             =   4.4013280688695E+00
(PID.TID 0000.0001) %MON dynstat_theta_del2           =   1.4997265829746E-01
(PID.TID 0000.0001) %MON dynstat_salt_max             =   3.7435137772577E+01
(PID.TID 0000.0001) %MON dynstat_salt_min             =   2.9775143547744E+01
(PID.TID 0000.0001) %MON dynstat_salt_mean            =   3.4718001734936E+01
(PID.TID 0000.0001) %MON dynstat_salt_sd              =   2.9441625376917E-01
(PID.TID 0000.0001) %MON dynstat_salt_del2            =   2.6758708237996E-02
(PID.TID 0000.0001) %MON advcfl_uvel_max              =   4.9444188242542E-02
(PID.TID 0000.0001) %MON advcfl_vvel_max              =   2.3090166888777E-02
(PID.TID 0000.0001) %MON advcfl_wvel_max              =   8.2187501691761E-02
(PID.TID 0000.0001) %MON advcfl_W_hf_max              =   8.2187501691761E-02
(PID.TID 0000.0001) %MON pe_b_mean                    =  -8.3977546154493E-03
(PID.TID 0000.0001) %MON ke_max                       =   2.4116842654642E-03
(PID.TID 0000.0001) %MON ke_mean                      =   1.7824362706866E-05
(PID.TID 0000.0001) %MON ke_vol                       =   1.3442141716554E+22
(PID.TID 0000.0001) %MON vort_r_min                   =  -2.2419309848524E-07
(PID.TID 0000.0001) %MON vort_r_max                   =   2.8406279934541E-07
(PID.TID 0000.0001) %MON vort_a_mean                  =  -2.4531016293403E-05
(PID.TID 0000.0001) %MON vort_a_sd                    =   7.3435817992286E-05
(PID.TID 0000.0001) %MON vort_p_mean                  =  -2.9400708520647E-05
(PID.TID 0000.0001) %MON vort_p_sd                    =   1.0337649615541E-04
(PID.TID 0000.0001) %MON surfExpan_theta_mean         =   1.0062359859406E-02
(PID.TID 0000.0001) %MON surfExpan_salt_mean          =  -2.3718668973368E-04
(PID.TID 0000.0001) // =======================================================
(PID.TID 0000.0001) // End MONITOR dynamic field statistics
(PID.TID 0000.0001) // =======================================================
time,SST,SSS,fu,fv,Q,E-P,i0,i1,a,b =   6.9120E+05  2.5505E+01  0.0000E+00 -9.2860E-03  2.6332E-02 -8.9652E+01 -5.1109E-09    12     1  8.0000E-01  2.0000E-01
time,fu0,fu1,fu =   6.9120E+05 -1.3840E-02 -8.1474E-03 -9.2860E-03  8.0000E-01  2.0000E-01
 cg2d: Sum(rhs),rhsMax =  -8.32667268468867E-16  1.72918685742062E+02
(PID.TID 0000.0001)                    cg2d_init_res =    4.68680989898252E-03
(PID.TID 0000.0001)                       cg2d_iters =    94
(PID.TID 0000.0001)                         cg2d_res =    9.71861530117318E-10
(PID.TID 0000.0001) // =======================================================
(PID.TID 0000.0001) // Begin MONITOR dynamic field statistics
(PID.TID 0000.0001) // =======================================================
(PID.TID 0000.0001) %MON time_tsnumber                =                     5
(PID.TID 0000.0001) %MON time_secondsf                =   8.6400000000000E+05
(PID.TID 0000.0001) %MON dynstat_eta_max              =   5.8773429950977E+04
(PID.TID 0000.0001) %MON dynstat_eta_min              =  -9.4342806697862E+04
(PID.TID 0000.0001) %MON dynstat_eta_mean             =  -3.7006046743498E-12
(PID.TID 0000.0001) %MON dynstat_eta_sd               =   4.0653016510732E+04
(PID.TID 0000.0001) %MON dynstat_eta_del2             =   2.3953583530542E+04
(PID.TID 0000.0001) %MON dynstat_uvel_max             =   5.9543736426933E-02
(PID.TID 0000.0001) %MON dynstat_uvel_min             =  -9.1775117794307E-02
(PID.TID 0000.0001) %MON dynstat_uvel_mean            =  -4.7330517597919E-04
(PID.TID 0000.0001) %MON dynstat_uvel_sd              =   3.5781752298174E-03
(PID.TID 0000.0001) %MON dynstat_uvel_del2            =   1.5504532226945E-03
(PID.TID 0000.0001) %MON dynstat_vvel_max             =   6.0695130334328E-02
(PID.TID 0000.0001) %MON dynstat_vvel_min             =  -7.2172497340078E-02
(PID.TID 0000.0001) %MON dynstat_vvel_mean            =   7.4645435863114E-04
(PID.TID 0000.0001) %MON dynstat_vvel_sd              =   6.3128256804597E-03
(PID.TID 0000.0001) %MON dynstat_vvel_del2            =   1.8433814985822E-03
(PID.TID 0000.0001) %MON dynstat_wvel_max             =   1.4020032070420E+00
(PID.TID 0000.0001) %MON dynstat_wvel_min             =  -1.5220719277431E+00
(PID.TID 0000.0001) %MON dynstat_wvel_mean            =  -6.8519351417160E-04
(PID.TID 0000.0001) %MON dynstat_wvel_sd              =   1.7381308379847E-01
(PID.TID 0000.0001) %MON dynstat_wvel_del2            =   8.3626762899882E-02
(PID.TID 0000.0001) %MON dynstat_theta_max            =   2.9661584826047E+01
(PID.TID 0000.0001) %MON dynstat_theta_min            =  -2.5873153223836E+00
(PID.TID 0000.0001) %MON dynstat_theta_mean           =   3.6024982629903E+00
(PID.TID 0000.0001) %MON dynstat_theta_sd             =   4.4013883502429E+00
(PID.TID 0000.0001) %MON dynstat_theta_del2           =   1.4774209040733E-01
(PID.TID 0000.0001) %MON dynstat_salt_max             =   3.7435038902269E+01
(PID.TID 0000.0001) %MON dynstat_salt_min             =   2.9777804453528E+01
(PID.TID 0000.0001) %MON dynstat_salt_mean            =   3.4718001594749E+01
(PID.TID 0000.0001) %MON dynstat_salt_sd              =   2.9441805887810E-01
(PID.TID 0000.0001) %MON dynstat_salt_del2            =   2.6634288478325E-02
(PID.TID 0000.0001) %MON advcfl_uvel_max              =   5.3867625671592E-02
(PID.TID 0000.0001) %MON advcfl_vvel_max              =   2.8043917450964E-02
(PID.TID 0000.0001) %MON advcfl_wvel_max              =   9.5633393123270E-02
(PID.TID 0000.0001) %MON advcfl_W_hf_max              =   9.5633393123270E-02
(PID.TID 0000.0001) %MON pe_b_mean                    =  -8.4403861982942E-03
(PID.TID 0000.0001) %MON ke_max                       =   3.6258454728481E-03
(PID.TID 0000.0001) %MON ke_mean                      =   2.4012661414745E-05
(PID.TID 0000.0001) %MON ke_vol                       =   1.3442141716554E+22
(PID.TID 0000.0001) %MON vort_r_min                   =  -2.5879790913472E-07
(PID.TID 0000.0001) %MON vort_r_max                   =   3.0035022717331E-07
(PID.TID 0000.0001) %MON vort_a_mean                  =  -2.4531016372286E-05
(PID.TID 0000.0001) %MON vort_a_sd                    =   7.3435913020474E-05
(PID.TID 0000.0001) %MON vort_p_mean                  =  -2.9400840474314E-05
(PID.TID 0000.0001) %MON vort_p_sd                    =   1.0337802947340E-04
(PID.TID 0000.0001) %MON surfExpan_theta_mean         =   6.0157019979998E-03
(PID.TID 0000.0001) %MON surfExpan_salt_mean          =  -1.1548439229778E-04
(PID.TID 0000.0001) // =======================================================
(PID.TID 0000.0001) // End MONITOR dynamic field statistics
(PID.TID 0000.0001) // =======================================================
time,SST,SSS,fu,fv,Q,E-P,i0,i1,a,b =   8.6400E+05  2.5645E+01  0.0000E+00 -8.9065E-03  2.5549E-02 -9.0439E+01 -5.1109E-09    12     1  8.6667E-01  1.3333E-01
time,fu0,fu1,fu =   8.6400E+05 -1.3840E-02 -8.1474E-03 -8.9065E-03  8.6667E-01  1.3333E-01
 cg2d: Sum(rhs),rhsMax =  -1.27675647831893E-15  1.72928021225933E+02
(PID.TID 0000.0001)                    cg2d_init_res =    3.45139699150742E-03
(PID.TID 0000.0001)                       cg2d_iters =    91
(PID.TID 0000.0001)                         cg2d_res =    9.78813015946890E-10
(PID.TID 0000.0001) // =======================================================
(PID.TID 0000.0001) // Begin MONITOR dynamic field statistics
(PID.TID 0000.0001) // =======================================================
(PID.TID 0000.0001) %MON time_tsnumber                =                     6
(PID.TID 0000.0001) %MON time_secondsf                =   1.0368000000000E+06
(PID.TID 0000.0001) %MON dynstat_eta_max              =   6.2209409981545E+04
(PID.TID 0000.0001) %MON dynstat_eta_min              =  -9.5072851669972E+04
(PID.TID 0000.0001) %MON dynstat_eta_mean             =   3.3104564176045E-12
(PID.TID 0000.0001) %MON dynstat_eta_sd               =   4.0801322073600E+04
(PID.TID 0000.0001) %MON dynstat_eta_del2             =   2.3953933554542E+04
(PID.TID 0000.0001) %MON dynstat_uvel_max             =   7.3968233367015E-02
(PID.TID 0000.0001) %MON dynstat_uvel_min             =  -9.0172290133028E-02
(PID.TID 0000.0001) %MON dynstat_uvel_mean            =  -3.8964179272243E-05
(PID.TID 0000.0001) %MON dynstat_uvel_sd              =   4.2141440558398E-03
(PID.TID 0000.0001) %MON dynstat_uvel_del2            =   1.7359279197000E-03
(PID.TID 0000.0001) %MON dynstat_vvel_max             =   6.9116494046450E-02
(PID.TID 0000.0001) %MON dynstat_vvel_min             =  -8.3440815266817E-02
(PID.TID 0000.0001) %MON dynstat_vvel_mean            =   2.7833870296926E-04
(PID.TID 0000.0001) %MON dynstat_vvel_sd              =   7.2913719417560E-03
(PID.TID 0000.0001) %MON dynstat_vvel_del2            =   2.1078935075189E-03
(PID.TID 0000.0001) %MON dynstat_wvel_max             =   1.6176785005061E+00
(PID.TID 0000.0001) %MON dynstat_wvel_min             =  -1.6533396907615E+00
(PID.TID 0000.0001) %MON dynstat_wvel_mean            =  -3.9198026064957E-04
(PID.TID 0000.0001) %MON dynstat_wvel_sd              =   1.9514667893793E-01
(PID.TID 0000.0001) %MON dynstat_wvel_del2            =   9.1433753301438E-02
(PID.TID 0000.0001) %MON dynstat_theta_max            =   2.9706282897796E+01
(PID.TID 0000.0001) %MON dynstat_theta_min            =  -2.5961459503672E+00
(PID.TID 0000.0001) %MON dynstat_theta_mean           =   3.6026389662629E+00
(PID.TID 0000.0001) %MON dynstat_theta_sd             =   4.4014686043609E+00
(PID.TID 0000.0001) %MON dynstat_theta_del2           =   1.4563318568777E-01
(PID.TID 0000.0001) %MON dynstat_salt_max             =   3.7434857875571E+01
(PID.TID 0000.0001) %MON dynstat_salt_min             =   2.9778878943695E+01
(PID.TID 0000.0001) %MON dynstat_salt_mean            =   3.4718001268952E+01
(PID.TID 0000.0001) %MON dynstat_salt_sd              =   2.9441940442648E-01
(PID.TID 0000.0001) %MON dynstat_salt_del2            =   2.6516191993045E-02
(PID.TID 0000.0001) %MON advcfl_uvel_max              =   5.3801156923237E-02
(PID.TID 0000.0001) %MON advcfl_vvel_max              =   3.2422424353111E-02
(PID.TID 0000.0001) %MON advcfl_wvel_max              =   1.0549015569659E-01
(PID.TID 0000.0001) %MON advcfl_W_hf_max              =   1.0549015569659E-01
(PID.TID 0000.0001) %MON pe_b_mean                    =  -8.5184392836668E-03
(PID.TID 0000.0001) %MON ke_max                       =   3.8298313174921E-03
(PID.TID 0000.0001) %MON ke_mean                      =   3.1908181094146E-05
(PID.TID 0000.0001) %MON ke_vol                       =   1.3442141716554E+22
(PID.TID 0000.0001) %MON vort_r_min                   =  -2.9329899304524E-07
(PID.TID 0000.0001) %MON vort_r_max                   =   3.0148725491414E-07
(PID.TID 0000.0001) %MON vort_a_mean                  =  -2.4531016356481E-05
(PID.TID 0000.0001) %MON vort_a_sd                    =   7.3436014131473E-05
(PID.TID 0000.0001) %MON vort_p_mean                  =  -2.9400918690520E-05
(PID.TID 0000.0001) %MON vort_p_sd                    =   1.0337864360060E-04
(PID.TID 0000.0001) %MON surfExpan_theta_mean         =   2.1317179650401E-03
(PID.TID 0000.0001) %MON surfExpan_salt_mean          =  -6.0616788314405E-05
(PID.TID 0000.0001) // =======================================================
(PID.TID 0000.0001) // End MONITOR dynamic field statistics
(PID.TID 0000.0001) // =======================================================
time,SST,SSS,fu,fv,Q,E-P,i0,i1,a,b =   1.0368E+06  2.5784E+01  0.0000E+00 -8.5269E-03  2.4767E-02 -9.1226E+01 -5.1109E-09    12     1  9.3333E-01  6.6667E-02
time,fu0,fu1,fu =   1.0368E+06 -1.3840E-02 -8.1474E-03 -8.5269E-03  9.3333E-01  6.6667E-02
 cg2d: Sum(rhs),rhsMax =   4.99600361081320E-16  1.72940039471530E+02
(PID.TID 0000.0001)                    cg2d_init_res =    3.58750402763527E-03
(PID.TID 0000.0001)                       cg2d_iters =    91
(PID.TID 0000.0001)                         cg2d_res =    9.19982459621512E-10
(PID.TID 0000.0001) // =======================================================
(PID.TID 0000.0001) // Begin MONITOR dynamic field statistics
(PID.TID 0000.0001) // =======================================================
(PID.TID 0000.0001) %MON time_tsnumber                =                     7
(PID.TID 0000.0001) %MON time_secondsf                =   1.2096000000000E+06
(PID.TID 0000.0001) %MON dynstat_eta_max              =   6.1155547604864E+04
(PID.TID 0000.0001) %MON dynstat_eta_min              =  -9.5059623616685E+04
(PID.TID 0000.0001) %MON dynstat_eta_mean             =   8.5215524418669E-12
(PID.TID 0000.0001) %MON dynstat_eta_sd               =   4.0659437810066E+04
(PID.TID 0000.0001) %MON dynstat_eta_del2             =   2.3955577295553E+04
(PID.TID 0000.0001) %MON dynstat_uvel_max             =   8.8189836914901E-02
(PID.TID 0000.0001) %MON dynstat_uvel_min             =  -7.5475971930813E-02
(PID.TID 0000.0001) %MON dynstat_uvel_mean            =   3.1900303795470E-04
(PID.TID 0000.0001) %MON dynstat_uvel_sd              =   4.9839450380672E-03
(PID.TID 0000.0001) %MON dynstat_uvel_del2            =   1.8998665214449E-03
(PID.TID 0000.0001) %MON dynstat_vvel_max             =   7.6043254870672E-02
(PID.TID 0000.0001) %MON dynstat_vvel_min             =  -9.4863250741315E-02
(PID.TID 0000.0001) %MON dynstat_vvel_mean            =  -9.9610559323575E-05
(PID.TID 0000.0001) %MON dynstat_vvel_sd              =   8.1826612271081E-03
(PID.TID 0000.0001) %MON dynstat_vvel_del2            =   2.3434668459286E-03
(PID.TID 0000.0001) %MON dynstat_wvel_max             =   1.7915102851138E+00
(PID.TID 0000.0001) %MON dynstat_wvel_min             =  -1.7236786142680E+00
(PID.TID 0000.0001) %MON dynstat_wvel_mean            =  -8.5393493076252E-05
(PID.TID 0000.0001) %MON dynstat_wvel_sd              =   2.1276769792272E-01
(PID.TID 0000.0001) %MON dynstat_wvel_del2            =   9.7203108131104E-02
(PID.TID 0000.0001) %MON dynstat_theta_max            =   2.9752525179090E+01
(PID.TID 0000.0001) %MON dynstat_theta_min            =  -2.6766339728278E+00
(PID.TID 0000.0001) %MON dynstat_theta_mean           =   3.6027764357502E+00
(PID.TID 0000.0001) %MON dynstat_theta_sd             =   4.4015744414525E+00
(PID.TID 0000.0001) %MON dynstat_theta_del2           =   1.4394313834607E-01
(PID.TID 0000.0001) %MON dynstat_salt_max             =   3.7434632087713E+01
(PID.TID 0000.0001) %MON dynstat_salt_min             =   2.9778945279625E+01
(PID.TID 0000.0001) %MON dynstat_salt_mean            =   3.4718001120684E+01
(PID.TID 0000.0001) %MON dynstat_salt_sd              =   2.9442001375018E-01
(PID.TID 0000.0001) %MON dynstat_salt_del2            =   2.6437662472478E-02
(PID.TID 0000.0001) %MON advcfl_uvel_max              =   5.8299764585119E-02
(PID.TID 0000.0001) %MON advcfl_vvel_max              =   3.6860816390820E-02
(PID.TID 0000.0001) %MON advcfl_wvel_max              =   1.1178102762542E-01
(PID.TID 0000.0001) %MON advcfl_W_hf_max              =   1.1178102762542E-01
(PID.TID 0000.0001) %MON pe_b_mean                    =  -8.6507613339753E-03
(PID.TID 0000.0001) %MON ke_max                       =   5.0511133543478E-03
(PID.TID 0000.0001) %MON ke_mean                      =   4.1311917196794E-05
(PID.TID 0000.0001) %MON ke_vol                       =   1.3442141716554E+22
(PID.TID 0000.0001) %MON vort_r_min                   =  -2.7681522208124E-07
(PID.TID 0000.0001) %MON vort_r_max                   =   2.6892707208669E-07
(PID.TID 0000.0001) %MON vort_a_mean                  =  -2.4531016238591E-05
(PID.TID 0000.0001) %MON vort_a_sd                    =   7.3436098291156E-05
(PID.TID 0000.0001) %MON vort_p_mean                  =  -2.9400918832572E-05
(PID.TID 0000.0001) %MON vort_p_sd                    =   1.0337849785344E-04
(PID.TID 0000.0001) %MON surfExpan_theta_mean         =  -1.6209610365448E-03
(PID.TID 0000.0001) %MON surfExpan_salt_mean          =  -5.5062144236738E-05
(PID.TID 0000.0001) // =======================================================
(PID.TID 0000.0001) // End MONITOR dynamic field statistics
(PID.TID 0000.0001) // =======================================================
 S/R EXTERNAL_FIELDS_LOAD: Reading new data  1209600. 7
(PID.TID 0000.0001)  MDSREADFIELD: opening global file: trenberth_taux.bin
(PID.TID 0000.0001)  MDSREADFIELD: opening global file: trenberth_taux.bin
(PID.TID 0000.0001)  MDSREADFIELD: opening global file: trenberth_tauy.bin
(PID.TID 0000.0001)  MDSREADFIELD: opening global file: trenberth_tauy.bin
(PID.TID 0000.0001)  MDSREADFIELD: opening global file: shi_qnet.bin
(PID.TID 0000.0001)  MDSREADFIELD: opening global file: shi_qnet.bin
(PID.TID 0000.0001)  MDSREADFIELD: opening global file: shi_empmr.bin
(PID.TID 0000.0001)  MDSREADFIELD: opening global file: shi_empmr.bin
(PID.TID 0000.0001)  MDSREADFIELD: opening global file: lev_sst.bin
(PID.TID 0000.0001)  MDSREADFIELD: opening global file: lev_sst.bin
(PID.TID 0000.0001)  MDSREADFIELD: opening global file: deltageopotjmd95.bin
(PID.TID 0000.0001)  MDSREADFIELD: opening global file: deltageopotjmd95.bin
time,SST,SSS,fu,fv,Q,E-P,i0,i1,a,b =   1.2096E+06  2.5923E+01  0.0000E+00 -8.1474E-03  2.3984E-02 -9.2012E+01 -5.1109E-09     1     2  0.0000E+00  1.0000E+00
time,fu0,fu1,fu =   1.2096E+06 -8.1474E-03 -4.7952E-03 -8.1474E-03  0.0000E+00  1.0000E+00
 cg2d: Sum(rhs),rhsMax =  -2.10942374678780E-15  1.72953755070505E+02
(PID.TID 0000.0001)                    cg2d_init_res =    3.93574816394871E-03
(PID.TID 0000.0001)                       cg2d_iters =    90
(PID.TID 0000.0001)                         cg2d_res =    8.67541391236363E-10
(PID.TID 0000.0001) // =======================================================
(PID.TID 0000.0001) // Begin MONITOR dynamic field statistics
(PID.TID 0000.0001) // =======================================================
(PID.TID 0000.0001) %MON time_tsnumber                =                     8
(PID.TID 0000.0001) %MON time_secondsf                =   1.3824000000000E+06
(PID.TID 0000.0001) %MON dynstat_eta_max              =   5.6617513998830E+04
(PID.TID 0000.0001) %MON dynstat_eta_min              =  -9.4430055509941E+04
(PID.TID 0000.0001) %MON dynstat_eta_mean             =   5.1427694117937E-12
(PID.TID 0000.0001) %MON dynstat_eta_sd               =   4.0356617829698E+04
(PID.TID 0000.0001) %MON dynstat_eta_del2             =   2.3957808585334E+04
(PID.TID 0000.0001) %MON dynstat_uvel_max             =   1.0172737110236E-01
(PID.TID 0000.0001) %MON dynstat_uvel_min             =  -6.5374030234265E-02
(PID.TID 0000.0001) %MON dynstat_uvel_mean            =   5.4566233520694E-04
(PID.TID 0000.0001) %MON dynstat_uvel_sd              =   5.8261907454148E-03
(PID.TID 0000.0001) %MON dynstat_uvel_del2            =   2.0399793960991E-03
(PID.TID 0000.0001) %MON dynstat_vvel_max             =   8.1474832893509E-02
(PID.TID 0000.0001) %MON dynstat_vvel_min             =  -1.0475388141092E-01
(PID.TID 0000.0001) %MON dynstat_vvel_mean            =  -3.3374681936798E-04
(PID.TID 0000.0001) %MON dynstat_vvel_sd              =   8.9610190332796E-03
(PID.TID 0000.0001) %MON dynstat_vvel_del2            =   2.5440447859689E-03
(PID.TID 0000.0001) %MON dynstat_wvel_max             =   1.9170802494181E+00
(PID.TID 0000.0001) %MON dynstat_wvel_min             =  -1.7392509093160E+00
(PID.TID 0000.0001) %MON dynstat_wvel_mean            =   1.7826811364489E-04
(PID.TID 0000.0001) %MON dynstat_wvel_sd              =   2.2630218048142E-01
(PID.TID 0000.0001) %MON dynstat_wvel_del2            =   1.0084102235321E-01
(PID.TID 0000.0001) %MON dynstat_theta_max            =   2.9804736284657E+01
(PID.TID 0000.0001) %MON dynstat_theta_min            =  -2.7604594238904E+00
(PID.TID 0000.0001) %MON dynstat_theta_mean           =   3.6029089375575E+00
(PID.TID 0000.0001) %MON dynstat_theta_sd             =   4.4017029756332E+00
(PID.TID 0000.0001) %MON dynstat_theta_del2           =   1.4262763834342E-01
(PID.TID 0000.0001) %MON dynstat_salt_max             =   3.7434376362808E+01
(PID.TID 0000.0001) %MON dynstat_salt_min             =   2.9778314484473E+01
(PID.TID 0000.0001) %MON dynstat_salt_mean            =   3.4718001104349E+01
(PID.TID 0000.0001) %MON dynstat_salt_sd              =   2.9442253807844E-01
(PID.TID 0000.0001) %MON dynstat_salt_del2            =   2.6382091186383E-02
(PID.TID 0000.0001) %MON advcfl_uvel_max              =   6.7249039057111E-02
(PID.TID 0000.0001) %MON advcfl_vvel_max              =   4.0703998215740E-02
(PID.TID 0000.0001) %MON advcfl_wvel_max              =   1.1933299052196E-01
(PID.TID 0000.0001) %MON advcfl_W_hf_max              =   1.1933299052196E-01
(PID.TID 0000.0001) %MON pe_b_mean                    =  -8.7595464342123E-03
(PID.TID 0000.0001) %MON ke_max                       =   6.3510652561603E-03
(PID.TID 0000.0001) %MON ke_mean                      =   5.1550707991108E-05
(PID.TID 0000.0001) %MON ke_vol                       =   1.3442141716554E+22
(PID.TID 0000.0001) %MON vort_r_min                   =  -2.4490677503523E-07
(PID.TID 0000.0001) %MON vort_r_max                   =   2.1345205502429E-07
(PID.TID 0000.0001) %MON vort_a_mean                  =  -2.4531016037797E-05
(PID.TID 0000.0001) %MON vort_a_sd                    =   7.3436152146031E-05
(PID.TID 0000.0001) %MON vort_p_mean                  =  -2.9400853010846E-05
(PID.TID 0000.0001) %MON vort_p_sd                    =   1.0337784306214E-04
(PID.TID 0000.0001) %MON surfExpan_theta_mean         =  -4.3265484955501E-03
(PID.TID 0000.0001) %MON surfExpan_salt_mean          =  -5.6964605893363E-05
(PID.TID 0000.0001) // =======================================================
(PID.TID 0000.0001) // End MONITOR dynamic field statistics
(PID.TID 0000.0001) // =======================================================
time,SST,SSS,fu,fv,Q,E-P,i0,i1,a,b =   1.3824E+06  2.5894E+01  0.0000E+00 -7.9239E-03  2.3829E-02 -9.0919E+01 -5.1109E-09     1     2  6.6667E-02  9.3333E-01
time,fu0,fu1,fu =   1.3824E+06 -8.1474E-03 -4.7952E-03 -7.9239E-03  6.6667E-02  9.3333E-01
 cg2d: Sum(rhs),rhsMax =  -1.22124532708767E-15  1.72967906282843E+02
(PID.TID 0000.0001)                    cg2d_init_res =    3.96270101021519E-03
(PID.TID 0000.0001)                       cg2d_iters =    92
(PID.TID 0000.0001)                         cg2d_res =    9.26993962883360E-10
(PID.TID 0000.0001) // =======================================================
(PID.TID 0000.0001) // Begin MONITOR dynamic field statistics
(PID.TID 0000.0001) // =======================================================
(PID.TID 0000.0001) %MON time_tsnumber                =                     9
(PID.TID 0000.0001) %MON time_secondsf                =   1.5552000000000E+06
(PID.TID 0000.0001) %MON dynstat_eta_max              =   5.2268303005649E+04
(PID.TID 0000.0001) %MON dynstat_eta_min              =  -9.3568478647454E+04
(PID.TID 0000.0001) %MON dynstat_eta_mean             =  -4.1028868819719E-12
(PID.TID 0000.0001) %MON dynstat_eta_sd               =   4.0032063929328E+04
(PID.TID 0000.0001) %MON dynstat_eta_del2             =   2.3959225220683E+04
(PID.TID 0000.0001) %MON dynstat_uvel_max             =   1.1448767301229E-01
(PID.TID 0000.0001) %MON dynstat_uvel_min             =  -6.6937232148293E-02
(PID.TID 0000.0001) %MON dynstat_uvel_mean            =   6.2892028603320E-04
(PID.TID 0000.0001) %MON dynstat_uvel_sd              =   6.7070490589749E-03
(PID.TID 0000.0001) %MON dynstat_uvel_del2            =   2.1577253053304E-03
(PID.TID 0000.0001) %MON dynstat_vvel_max             =   8.4913125303659E-02
(PID.TID 0000.0001) %MON dynstat_vvel_min             =  -1.1294488939952E-01
(PID.TID 0000.0001) %MON dynstat_vvel_mean            =  -4.1852410169227E-04
(PID.TID 0000.0001) %MON dynstat_vvel_sd              =   9.6114317829657E-03
(PID.TID 0000.0001) %MON dynstat_vvel_del2            =   2.7078707501132E-03
(PID.TID 0000.0001) %MON dynstat_wvel_max             =   1.9910166122324E+00
(PID.TID 0000.0001) %MON dynstat_wvel_min             =  -1.7055307315022E+00
(PID.TID 0000.0001) %MON dynstat_wvel_mean            =   3.5988316604187E-04
(PID.TID 0000.0001) %MON dynstat_wvel_sd              =   2.3569587499963E-01
(PID.TID 0000.0001) %MON dynstat_wvel_del2            =   1.0250588521593E-01
(PID.TID 0000.0001) %MON dynstat_theta_max            =   2.9845474780632E+01
(PID.TID 0000.0001) %MON dynstat_theta_min            =  -2.8334015777535E+00
(PID.TID 0000.0001) %MON dynstat_theta_mean           =   3.6030340945561E+00
(PID.TID 0000.0001) %MON dynstat_theta_sd             =   4.4018516081018E+00
(PID.TID 0000.0001) %MON dynstat_theta_del2           =   1.4178839696901E-01
(PID.TID 0000.0001) %MON dynstat_salt_max             =   3.7434103472414E+01
(PID.TID 0000.0001) %MON dynstat_salt_min             =   2.9777172508980E+01
(PID.TID 0000.0001) %MON dynstat_salt_mean            =   3.4718001108534E+01
(PID.TID 0000.0001) %MON dynstat_salt_sd              =   2.9442158836486E-01
(PID.TID 0000.0001) %MON dynstat_salt_del2            =   2.6367947340948E-02
(PID.TID 0000.0001) %MON advcfl_uvel_max              =   7.5684507625920E-02
(PID.TID 0000.0001) %MON advcfl_vvel_max              =   4.3886761184162E-02
(PID.TID 0000.0001) %MON advcfl_wvel_max              =   1.2739493515569E-01
(PID.TID 0000.0001) %MON advcfl_W_hf_max              =   1.2739493515569E-01
(PID.TID 0000.0001) %MON pe_b_mean                    =  -8.7721727132636E-03
(PID.TID 0000.0001) %MON ke_max                       =   7.7151372247148E-03
(PID.TID 0000.0001) %MON ke_mean                      =   6.2037973482533E-05
(PID.TID 0000.0001) %MON ke_vol                       =   1.3442141716554E+22
(PID.TID 0000.0001) %MON vort_r_min                   =  -3.2430526220544E-07
(PID.TID 0000.0001) %MON vort_r_max                   =   2.8388634981177E-07
(PID.TID 0000.0001) %MON vort_a_mean                  =  -2.4531015789582E-05
(PID.TID 0000.0001) %MON vort_a_sd                    =   7.3436172394649E-05
(PID.TID 0000.0001) %MON vort_p_mean                  =  -2.9400747424831E-05
(PID.TID 0000.0001) %MON vort_p_sd                    =   1.0337690673272E-04
(PID.TID 0000.0001) %MON surfExpan_theta_mean         =  -5.4609908287183E-03
(PID.TID 0000.0001) %MON surfExpan_salt_mean          =  -5.4001573300304E-05
(PID.TID 0000.0001) // =======================================================
(PID.TID 0000.0001) // End MONITOR dynamic field statistics
(PID.TID 0000.0001) // =======================================================
time,SST,SSS,fu,fv,Q,E-P,i0,i1,a,b =   1.5552E+06  2.5865E+01  0.0000E+00 -7.7005E-03  2.3673E-02 -8.9826E+01 -5.1109E-09     1     2  1.3333E-01  8.6667E-01
time,fu0,fu1,fu =   1.5552E+06 -8.1474E-03 -4.7952E-03 -7.7005E-03  1.3333E-01  8.6667E-01
 cg2d: Sum(rhs),rhsMax =   1.08246744900953E-15  1.72980800633962E+02
(PID.TID 0000.0001)                    cg2d_init_res =    3.62695521559728E-03
(PID.TID 0000.0001)                       cg2d_iters =    93
(PID.TID 0000.0001)                         cg2d_res =    9.19571280157560E-10
(PID.TID 0000.0001) // =======================================================
(PID.TID 0000.0001) // Begin MONITOR dynamic field statistics
(PID.TID 0000.0001) // =======================================================
(PID.TID 0000.0001) %MON time_tsnumber                =                    10
(PID.TID 0000.0001) %MON time_secondsf                =   1.7280000000000E+06
(PID.TID 0000.0001) %MON dynstat_eta_max              =   5.1372737622820E+04
(PID.TID 0000.0001) %MON dynstat_eta_min              =  -9.2841919525609E+04
(PID.TID 0000.0001) %MON dynstat_eta_mean             =  -2.0708975996853E-12
(PID.TID 0000.0001) %MON dynstat_eta_sd               =   3.9769765977491E+04
(PID.TID 0000.0001) %MON dynstat_eta_del2             =   2.3960643105580E+04
(PID.TID 0000.0001) %MON dynstat_uvel_max             =   1.2630603097682E-01
(PID.TID 0000.0001) %MON dynstat_uvel_min             =  -6.6697547844953E-02
(PID.TID 0000.0001) %MON dynstat_uvel_mean            =   5.9161923274451E-04
(PID.TID 0000.0001) %MON dynstat_uvel_sd              =   7.6230662907469E-03
(PID.TID 0000.0001) %MON dynstat_uvel_del2            =   2.2639205745996E-03
(PID.TID 0000.0001) %MON dynstat_vvel_max             =   8.6873279182542E-02
(PID.TID 0000.0001) %MON dynstat_vvel_min             =  -1.1933262080555E-01
(PID.TID 0000.0001) %MON dynstat_vvel_mean            =  -3.8445031543396E-04
(PID.TID 0000.0001) %MON dynstat_vvel_sd              =   1.0130009593846E-02
(PID.TID 0000.0001) %MON dynstat_vvel_del2            =   2.8365043598829E-03
(PID.TID 0000.0001) %MON dynstat_wvel_max             =   2.0207514206314E+00
(PID.TID 0000.0001) %MON dynstat_wvel_min             =  -1.6345195450670E+00
(PID.TID 0000.0001) %MON dynstat_wvel_mean            =   4.4775871111043E-04
(PID.TID 0000.0001) %MON dynstat_wvel_sd              =   2.4123949920857E-01
(PID.TID 0000.0001) %MON dynstat_wvel_del2            =   1.0254506394264E-01
(PID.TID 0000.0001) %MON dynstat_theta_max            =   2.9880790568028E+01
(PID.TID 0000.0001) %MON dynstat_theta_min            =  -2.9013489060094E+00
(PID.TID 0000.0001) %MON dynstat_theta_mean           =   3.6031509461309E+00
(PID.TID 0000.0001) %MON dynstat_theta_sd             =   4.4020171607642E+00
(PID.TID 0000.0001) %MON dynstat_theta_del2           =   1.4123755503087E-01
(PID.TID 0000.0001) %MON dynstat_salt_max             =   3.7433823896858E+01
(PID.TID 0000.0001) %MON dynstat_salt_min             =   2.9775824838857E+01
(PID.TID 0000.0001) %MON dynstat_salt_mean            =   3.4718001099165E+01
(PID.TID 0000.0001) %MON dynstat_salt_sd              =   2.9442386318416E-01
(PID.TID 0000.0001) %MON dynstat_salt_del2            =   2.6379631475615E-02
(PID.TID 0000.0001) %MON advcfl_uvel_max              =   8.3497284145506E-02
(PID.TID 0000.0001) %MON advcfl_vvel_max              =   4.6368828714753E-02
(PID.TID 0000.0001) %MON advcfl_wvel_max              =   1.3317599457366E-01
(PID.TID 0000.0001) %MON advcfl_W_hf_max              =   1.3317599457366E-01
(PID.TID 0000.0001) %MON pe_b_mean                    =  -8.6739271907696E-03
(PID.TID 0000.0001) %MON ke_max                       =   9.1174084266098E-03
(PID.TID 0000.0001) %MON ke_mean                      =   7.2538708809246E-05
(PID.TID 0000.0001) %MON ke_vol                       =   1.3442141716554E+22
(PID.TID 0000.0001) %MON vort_r_min                   =  -4.0597716331735E-07
(PID.TID 0000.0001) %MON vort_r_max                   =   3.6468893256024E-07
(PID.TID 0000.0001) %MON vort_a_mean                  =  -2.4531015535715E-05
(PID.TID 0000.0001) %MON vort_a_sd                    =   7.3436164012589E-05
(PID.TID 0000.0001) %MON vort_p_mean                  =  -2.9400633754447E-05
(PID.TID 0000.0001) %MON vort_p_sd                    =   1.0337595053004E-04
(PID.TID 0000.0001) %MON surfExpan_theta_mean         =  -5.1197734018668E-03
(PID.TID 0000.0001) %MON surfExpan_salt_mean          =  -5.2476314477239E-05
(PID.TID 0000.0001) // =======================================================
(PID.TID 0000.0001) // End MONITOR dynamic field statistics
(PID.TID 0000.0001) // =======================================================
time,SST,SSS,fu,fv,Q,E-P,i0,i1,a,b =   1.7280E+06  2.5836E+01  0.0000E+00 -7.4770E-03  2.3518E-02 -8.8733E+01 -5.1109E-09     1     2  2.0000E-01  8.0000E-01
time,fu0,fu1,fu =   1.7280E+06 -8.1474E-03 -4.7952E-03 -7.4770E-03  2.0000E-01  8.0000E-01
 cg2d: Sum(rhs),rhsMax =  -8.32667268468867E-16  1.72990806573897E+02
(PID.TID 0000.0001)                    cg2d_init_res =    3.12693255391927E-03
(PID.TID 0000.0001)                       cg2d_iters =    91
(PID.TID 0000.0001)                         cg2d_res =    9.41623334440318E-10
(PID.TID 0000.0001) // =======================================================
(PID.TID 0000.0001) // Begin MONITOR dynamic field statistics
(PID.TID 0000.0001) // =======================================================
(PID.TID 0000.0001) %MON time_tsnumber                =                    11
(PID.TID 0000.0001) %MON time_secondsf                =   1.9008000000000E+06
(PID.TID 0000.0001) %MON dynstat_eta_max              =   4.7513739896497E+04
(PID.TID 0000.0001) %MON dynstat_eta_min              =  -9.2588064193602E+04
(PID.TID 0000.0001) %MON dynstat_eta_mean             =   3.0083820625536E-12
(PID.TID 0000.0001) %MON dynstat_eta_sd               =   3.9595096943294E+04
(PID.TID 0000.0001) %MON dynstat_eta_del2             =   2.3961818309107E+04
(PID.TID 0000.0001) %MON dynstat_uvel_max             =   1.3711742228903E-01
(PID.TID 0000.0001) %MON dynstat_uvel_min             =  -6.4754327132085E-02
(PID.TID 0000.0001) %MON dynstat_uvel_mean            =   4.7896958416272E-04
(PID.TID 0000.0001) %MON dynstat_uvel_sd              =   8.5766912758555E-03
(PID.TID 0000.0001) %MON dynstat_uvel_del2            =   2.3669394305819E-03
(PID.TID 0000.0001) %MON dynstat_vvel_max             =   8.9472864393265E-02
(PID.TID 0000.0001) %MON dynstat_vvel_min             =  -1.2387115858413E-01
(PID.TID 0000.0001) %MON dynstat_vvel_mean            =  -2.8045046897180E-04
(PID.TID 0000.0001) %MON dynstat_vvel_sd              =   1.0519087505263E-02
(PID.TID 0000.0001) %MON dynstat_vvel_del2            =   2.9318056325504E-03
(PID.TID 0000.0001) %MON dynstat_wvel_max             =   2.1374447248128E+00
(PID.TID 0000.0001) %MON dynstat_wvel_min             =  -1.5548489699688E+00
(PID.TID 0000.0001) %MON dynstat_wvel_mean            =   4.5215440071547E-04
(PID.TID 0000.0001) %MON dynstat_wvel_sd              =   2.4343836622198E-01
(PID.TID 0000.0001) %MON dynstat_wvel_del2            =   1.0143198536092E-01
(PID.TID 0000.0001) %MON dynstat_theta_max            =   2.9910876643039E+01
(PID.TID 0000.0001) %MON dynstat_theta_min            =  -2.9643081178776E+00
(PID.TID 0000.0001) %MON dynstat_theta_mean           =   3.6032596462690E+00
(PID.TID 0000.0001) %MON dynstat_theta_sd             =   4.4021927271562E+00
(PID.TID 0000.0001) %MON dynstat_theta_del2           =   1.4115161656020E-01
(PID.TID 0000.0001) %MON dynstat_salt_max             =   3.7433555552790E+01
(PID.TID 0000.0001) %MON dynstat_salt_min             =   2.9774406625824E+01
(PID.TID 0000.0001) %MON dynstat_salt_mean            =   3.4718001095460E+01
(PID.TID 0000.0001) %MON dynstat_salt_sd              =   2.9442147470374E-01
(PID.TID 0000.0001) %MON dynstat_salt_del2            =   2.6410165917575E-02
(PID.TID 0000.0001) %MON advcfl_uvel_max              =   9.0644383974570E-02
(PID.TID 0000.0001) %MON advcfl_vvel_max              =   4.8132358916719E-02
(PID.TID 0000.0001) %MON advcfl_wvel_max              =   1.3649302382821E-01
(PID.TID 0000.0001) %MON advcfl_W_hf_max              =   1.3649302382821E-01
(PID.TID 0000.0001) %MON pe_b_mean                    =  -8.5000508728275E-03
(PID.TID 0000.0001) %MON ke_max                       =   1.0551185537177E-02
(PID.TID 0000.0001) %MON ke_mean                      =   8.3050547139915E-05
(PID.TID 0000.0001) %MON ke_vol                       =   1.3442141716554E+22
(PID.TID 0000.0001) %MON vort_r_min                   =  -4.6845104027941E-07
(PID.TID 0000.0001) %MON vort_r_max                   =   4.2580599579662E-07
(PID.TID 0000.0001) %MON vort_a_mean                  =  -2.4531015314925E-05
(PID.TID 0000.0001) %MON vort_a_sd                    =   7.3436137276270E-05
(PID.TID 0000.0001) %MON vort_p_mean                  =  -2.9400538993474E-05
(PID.TID 0000.0001) %MON vort_p_sd                    =   1.0337519794206E-04
(PID.TID 0000.0001) %MON surfExpan_theta_mean         =  -3.7970446591733E-03
(PID.TID 0000.0001) %MON surfExpan_salt_mean          =  -5.6064620142786E-05
(PID.TID 0000.0001) // =======================================================
(PID.TID 0000.0001) // End MONITOR dynamic field statistics
(PID.TID 0000.0001) // =======================================================
time,SST,SSS,fu,fv,Q,E-P,i0,i1,a,b =   1.9008E+06  2.5807E+01  0.0000E+00 -7.2535E-03  2.3362E-02 -8.7640E+01 -5.1109E-09     1     2  2.6667E-01  7.3333E-01
time,fu0,fu1,fu =   1.9008E+06 -8.1474E-03 -4.7952E-03 -7.2535E-03  2.6667E-01  7.3333E-01
 cg2d: Sum(rhs),rhsMax =  -5.27355936696949E-16  1.72997154636377E+02
(PID.TID 0000.0001)                    cg2d_init_res =    2.73183151549572E-03
(PID.TID 0000.0001)                       cg2d_iters =    84
(PID.TID 0000.0001)                         cg2d_res =    8.91277331113961E-10
(PID.TID 0000.0001) // =======================================================
(PID.TID 0000.0001) // Begin MONITOR dynamic field statistics
(PID.TID 0000.0001) // =======================================================
(PID.TID 0000.0001) %MON time_tsnumber                =                    12
(PID.TID 0000.0001) %MON time_secondsf                =   2.0736000000000E+06
(PID.TID 0000.0001) %MON dynstat_eta_max              =   4.2957375273692E+04
(PID.TID 0000.0001) %MON dynstat_eta_min              =  -9.2540141475743E+04
(PID.TID 0000.0001) %MON dynstat_eta_mean             =  -2.6661669237476E-12
(PID.TID 0000.0001) %MON dynstat_eta_sd               =   3.9503389606320E+04
(PID.TID 0000.0001) %MON dynstat_eta_del2             =   2.3962703372477E+04
(PID.TID 0000.0001) %MON dynstat_uvel_max             =   1.4843376992416E-01
(PID.TID 0000.0001) %MON dynstat_uvel_min             =  -6.9027727584677E-02
(PID.TID 0000.0001) %MON dynstat_uvel_mean            =   3.4368353625984E-04
(PID.TID 0000.0001) %MON dynstat_uvel_sd              =   9.5587069154011E-03
(PID.TID 0000.0001) %MON dynstat_uvel_del2            =   2.4639827056845E-03
(PID.TID 0000.0001) %MON dynstat_vvel_max             =   9.0793661508824E-02
(PID.TID 0000.0001) %MON dynstat_vvel_min             =  -1.2719203335910E-01
(PID.TID 0000.0001) %MON dynstat_vvel_mean            =  -1.5660024770508E-04
(PID.TID 0000.0001) %MON dynstat_vvel_sd              =   1.0783416680556E-02
(PID.TID 0000.0001) %MON dynstat_vvel_del2            =   2.9991184105153E-03
(PID.TID 0000.0001) %MON dynstat_wvel_max             =   2.2828403545948E+00
(PID.TID 0000.0001) %MON dynstat_wvel_min             =  -1.4727510144343E+00
(PID.TID 0000.0001) %MON dynstat_wvel_mean            =   3.9594042989330E-04
(PID.TID 0000.0001) %MON dynstat_wvel_sd              =   2.4285440829597E-01
(PID.TID 0000.0001) %MON dynstat_wvel_del2            =   9.9697378214005E-02
(PID.TID 0000.0001) %MON dynstat_theta_max            =   2.9935979696734E+01
(PID.TID 0000.0001) %MON dynstat_theta_min            =  -3.0223750554618E+00
(PID.TID 0000.0001) %MON dynstat_theta_mean           =   3.6033618821414E+00
(PID.TID 0000.0001) %MON dynstat_theta_sd             =   4.4023807984267E+00
(PID.TID 0000.0001) %MON dynstat_theta_del2           =   1.4124664194247E-01
(PID.TID 0000.0001) %MON dynstat_salt_max             =   3.7433320138569E+01
(PID.TID 0000.0001) %MON dynstat_salt_min             =   2.9773042499726E+01
(PID.TID 0000.0001) %MON dynstat_salt_mean            =   3.4718001105607E+01
(PID.TID 0000.0001) %MON dynstat_salt_sd              =   2.9441709983091E-01
(PID.TID 0000.0001) %MON dynstat_salt_del2            =   2.6441632429396E-02
(PID.TID 0000.0001) %MON advcfl_uvel_max              =   9.7107977461088E-02
(PID.TID 0000.0001) %MON advcfl_vvel_max              =   4.9422744333418E-02
(PID.TID 0000.0001) %MON advcfl_wvel_max              =   1.3719975151555E-01
(PID.TID 0000.0001) %MON advcfl_W_hf_max              =   1.3719975151555E-01
(PID.TID 0000.0001) %MON pe_b_mean                    =  -8.2992363171894E-03
(PID.TID 0000.0001) %MON ke_max                       =   1.1974233280988E-02
(PID.TID 0000.0001) %MON ke_mean                      =   9.3565124453901E-05
(PID.TID 0000.0001) %MON ke_vol                       =   1.3442141716554E+22
(PID.TID 0000.0001) %MON vort_r_min                   =  -5.0685699380114E-07
(PID.TID 0000.0001) %MON vort_r_max                   =   4.6224507959225E-07
(PID.TID 0000.0001) %MON vort_a_mean                  =  -2.4531015157077E-05
(PID.TID 0000.0001) %MON vort_a_sd                    =   7.3436104282731E-05
(PID.TID 0000.0001) %MON vort_p_mean                  =  -2.9400476001119E-05
(PID.TID 0000.0001) %MON vort_p_sd                    =   1.0337477620817E-04
(PID.TID 0000.0001) %MON surfExpan_theta_mean         =  -2.1023866793331E-03
(PID.TID 0000.0001) %MON surfExpan_salt_mean          =  -6.1239432801095E-05
(PID.TID 0000.0001) // =======================================================
(PID.TID 0000.0001) // End MONITOR dynamic field statistics
(PID.TID 0000.0001) // =======================================================
time,SST,SSS,fu,fv,Q,E-P,i0,i1,a,b =   2.0736E+06  2.5778E+01  0.0000E+00 -7.0300E-03  2.3207E-02 -8.6547E+01 -5.1109E-09     1     2  3.3333E-01  6.6667E-01
time,fu0,fu1,fu =   2.0736E+06 -8.1474E-03 -4.7952E-03 -7.0300E-03  3.3333E-01  6.6667E-01
 cg2d: Sum(rhs),rhsMax =  -2.77555756156289E-16  1.73000010865400E+02
(PID.TID 0000.0001)                    cg2d_init_res =    2.58837430312724E-03
(PID.TID 0000.0001)                       cg2d_iters =    88
(PID.TID 0000.0001)                         cg2d_res =    8.46683364573002E-10
(PID.TID 0000.0001) // =======================================================
(PID.TID 0000.0001) // Begin MONITOR dynamic field statistics
(PID.TID 0000.0001) // =======================================================
(PID.TID 0000.0001) %MON time_tsnumber                =                    13
(PID.TID 0000.0001) %MON time_secondsf                =   2.2464000000000E+06
(PID.TID 0000.0001) %MON dynstat_eta_max              =   4.2948340569036E+04
(PID.TID 0000.0001) %MON dynstat_eta_min              =  -9.2455781210115E+04
(PID.TID 0000.0001) %MON dynstat_eta_mean             =  -1.5744492504686E-12
(PID.TID 0000.0001) %MON dynstat_eta_sd               =   3.9482745975470E+04
(PID.TID 0000.0001) %MON dynstat_eta_del2             =   2.3963388015785E+04
(PID.TID 0000.0001) %MON dynstat_uvel_max             =   1.5902780884781E-01
(PID.TID 0000.0001) %MON dynstat_uvel_min             =  -7.3961501408116E-02
(PID.TID 0000.0001) %MON dynstat_uvel_mean            =   2.3222277546623E-04
(PID.TID 0000.0001) %MON dynstat_uvel_sd              =   1.0547398758357E-02
(PID.TID 0000.0001) %MON dynstat_uvel_del2            =   2.5592693828242E-03
(PID.TID 0000.0001) %MON dynstat_vvel_max             =   9.1003856281374E-02
(PID.TID 0000.0001) %MON dynstat_vvel_min             =  -1.3058526260668E-01
(PID.TID 0000.0001) %MON dynstat_vvel_mean            =  -5.1752339090926E-05
(PID.TID 0000.0001) %MON dynstat_vvel_sd              =   1.0929001104447E-02
(PID.TID 0000.0001) %MON dynstat_vvel_del2            =   3.0421866870018E-03
(PID.TID 0000.0001) %MON dynstat_wvel_max             =   2.4171445036695E+00
(PID.TID 0000.0001) %MON dynstat_wvel_min             =  -1.4411326670919E+00
(PID.TID 0000.0001) %MON dynstat_wvel_mean            =   3.0735617406817E-04
(PID.TID 0000.0001) %MON dynstat_wvel_sd              =   2.4000459796975E-01
(PID.TID 0000.0001) %MON dynstat_wvel_del2            =   9.7676201855437E-02
(PID.TID 0000.0001) %MON dynstat_theta_max            =   2.9956271897364E+01
(PID.TID 0000.0001) %MON dynstat_theta_min            =  -3.0756285166412E+00
(PID.TID 0000.0001) %MON dynstat_theta_mean           =   3.6034590870236E+00
(PID.TID 0000.0001) %MON dynstat_theta_sd             =   4.4025855155069E+00
(PID.TID 0000.0001) %MON dynstat_theta_del2           =   1.4163298954984E-01
(PID.TID 0000.0001) %MON dynstat_salt_max             =   3.7433142404398E+01
(PID.TID 0000.0001) %MON dynstat_salt_min             =   2.9771788622105E+01
(PID.TID 0000.0001) %MON dynstat_salt_mean            =   3.4718001120258E+01
(PID.TID 0000.0001) %MON dynstat_salt_sd              =   2.9441789102484E-01
(PID.TID 0000.0001) %MON dynstat_salt_del2            =   2.6500694611637E-02
(PID.TID 0000.0001) %MON advcfl_uvel_max              =   1.0286601792299E-01
(PID.TID 0000.0001) %MON advcfl_vvel_max              =   5.0741244377319E-02
(PID.TID 0000.0001) %MON advcfl_wvel_max              =   1.3519869353095E-01
(PID.TID 0000.0001) %MON advcfl_W_hf_max              =   1.3519869353095E-01
(PID.TID 0000.0001) %MON pe_b_mean                    =  -8.1066590880127E-03
(PID.TID 0000.0001) %MON ke_max                       =   1.3355692200279E-02
(PID.TID 0000.0001) %MON ke_mean                      =   1.0394546978407E-04
(PID.TID 0000.0001) %MON ke_vol                       =   1.3442141716554E+22
(PID.TID 0000.0001) %MON vort_r_min                   =  -5.2049880000358E-07
(PID.TID 0000.0001) %MON vort_r_max                   =   4.7336685842292E-07
(PID.TID 0000.0001) %MON vort_a_mean                  =  -2.4531015079029E-05
(PID.TID 0000.0001) %MON vort_a_sd                    =   7.3436075752450E-05
(PID.TID 0000.0001) %MON vort_p_mean                  =  -2.9400449433597E-05
(PID.TID 0000.0001) %MON vort_p_sd                    =   1.0337471428652E-04
(PID.TID 0000.0001) %MON surfExpan_theta_mean         =  -5.6025987878375E-04
(PID.TID 0000.0001) %MON surfExpan_salt_mean          =  -6.0358546465927E-05
(PID.TID 0000.0001) // =======================================================
(PID.TID 0000.0001) // End MONITOR dynamic field statistics
(PID.TID 0000.0001) // =======================================================
time,SST,SSS,fu,fv,Q,E-P,i0,i1,a,b =   2.2464E+06  2.5749E+01  0.0000E+00 -6.8065E-03  2.3052E-02 -8.5454E+01 -5.1109E-09     1     2  4.0000E-01  6.0000E-01
time,fu0,fu1,fu =   2.2464E+06 -8.1474E-03 -4.7952E-03 -6.8065E-03  4.0000E-01  6.0000E-01
 cg2d: Sum(rhs),rhsMax =  -3.05311331771918E-16  1.73000150166626E+02
(PID.TID 0000.0001)                    cg2d_init_res =    2.58972096452914E-03
(PID.TID 0000.0001)                       cg2d_iters =    88
(PID.TID 0000.0001)                         cg2d_res =    9.90552695526873E-10
(PID.TID 0000.0001) // =======================================================
(PID.TID 0000.0001) // Begin MONITOR dynamic field statistics
(PID.TID 0000.0001) // =======================================================
(PID.TID 0000.0001) %MON time_tsnumber                =                    14
(PID.TID 0000.0001) %MON time_secondsf                =   2.4192000000000E+06
(PID.TID 0000.0001) %MON dynstat_eta_max              =   4.3130163612768E+04
(PID.TID 0000.0001) %MON dynstat_eta_min              =  -9.2543608457078E+04
(PID.TID 0000.0001) %MON dynstat_eta_mean             =  -2.7422333537964E-12
(PID.TID 0000.0001) %MON dynstat_eta_sd               =   3.9518068114272E+04
(PID.TID 0000.0001) %MON dynstat_eta_del2             =   2.3964255774965E+04
(PID.TID 0000.0001) %MON dynstat_uvel_max             =   1.6830304595861E-01
(PID.TID 0000.0001) %MON dynstat_uvel_min             =  -7.9853833218192E-02
(PID.TID 0000.0001) %MON dynstat_uvel_mean            =   1.7504257558068E-04
(PID.TID 0000.0001) %MON dynstat_uvel_sd              =   1.1517398650242E-02
(PID.TID 0000.0001) %MON dynstat_uvel_del2            =   2.6532815429262E-03
(PID.TID 0000.0001) %MON dynstat_vvel_max             =   9.0201401449844E-02
(PID.TID 0000.0001) %MON dynstat_vvel_min             =  -1.3247688995908E-01
(PID.TID 0000.0001) %MON dynstat_vvel_mean            =   1.2558141831769E-05
(PID.TID 0000.0001) %MON dynstat_vvel_sd              =   1.0964164707587E-02
(PID.TID 0000.0001) %MON dynstat_vvel_del2            =   3.0637084896890E-03
(PID.TID 0000.0001) %MON dynstat_wvel_max             =   2.5417069486607E+00
(PID.TID 0000.0001) %MON dynstat_wvel_min             =  -1.5100963583911E+00
(PID.TID 0000.0001) %MON dynstat_wvel_mean            =   2.1249075968779E-04
(PID.TID 0000.0001) %MON dynstat_wvel_sd              =   2.3537484450972E-01
(PID.TID 0000.0001) %MON dynstat_wvel_del2            =   9.5583509248349E-02
(PID.TID 0000.0001) %MON dynstat_theta_max            =   2.9971857892329E+01
(PID.TID 0000.0001) %MON dynstat_theta_min            =  -3.1241396002628E+00
(PID.TID 0000.0001) %MON dynstat_theta_mean           =   3.6035544691782E+00
(PID.TID 0000.0001) %MON dynstat_theta_sd             =   4.4027941440261E+00
(PID.TID 0000.0001) %MON dynstat_theta_del2           =   1.4211884526735E-01
(PID.TID 0000.0001) %MON dynstat_salt_max             =   3.7433047498340E+01
(PID.TID 0000.0001) %MON dynstat_salt_min             =   2.9770641037909E+01
(PID.TID 0000.0001) %MON dynstat_salt_mean            =   3.4718001118989E+01
(PID.TID 0000.0001) %MON dynstat_salt_sd              =   2.9440980335508E-01
(PID.TID 0000.0001) %MON dynstat_salt_del2            =   2.6562663679607E-02
(PID.TID 0000.0001) %MON advcfl_uvel_max              =   1.0788275259612E-01
(PID.TID 0000.0001) %MON advcfl_vvel_max              =   5.1476270090352E-02
(PID.TID 0000.0001) %MON advcfl_wvel_max              =   1.3045314075517E-01
(PID.TID 0000.0001) %MON advcfl_W_hf_max              =   1.3045314075517E-01
(PID.TID 0000.0001) %MON pe_b_mean                    =  -7.9405779719015E-03
(PID.TID 0000.0001) %MON ke_max                       =   1.4667009175921E-02
(PID.TID 0000.0001) %MON ke_mean                      =   1.1397125014104E-04
(PID.TID 0000.0001) %MON ke_vol                       =   1.3442141716554E+22
(PID.TID 0000.0001) %MON vort_r_min                   =  -5.1258017885185E-07
(PID.TID 0000.0001) %MON vort_r_max                   =   4.6624569904312E-07
(PID.TID 0000.0001) %MON vort_a_mean                  =  -2.4531015083495E-05
(PID.TID 0000.0001) %MON vort_a_sd                    =   7.3436058777076E-05
(PID.TID 0000.0001) %MON vort_p_mean                  =  -2.9400455784765E-05
(PID.TID 0000.0001) %MON vort_p_sd                    =   1.0337495417158E-04
(PID.TID 0000.0001) %MON surfExpan_theta_mean         =   4.9385551506147E-04
(PID.TID 0000.0001) %MON surfExpan_salt_mean          =  -4.7717281420323E-05
(PID.TID 0000.0001) // =======================================================
(PID.TID 0000.0001) // End MONITOR dynamic field statistics
(PID.TID 0000.0001) // =======================================================
time,SST,SSS,fu,fv,Q,E-P,i0,i1,a,b =   2.4192E+06  2.5720E+01  0.0000E+00 -6.5830E-03  2.2896E-02 -8.4361E+01 -5.1109E-09     1     2  4.6667E-01  5.3333E-01
time,fu0,fu1,fu =   2.4192E+06 -8.1474E-03 -4.7952E-03 -6.5830E-03  4.6667E-01  5.3333E-01
 cg2d: Sum(rhs),rhsMax =  -1.11022302462516E-15  1.72998547146472E+02
(PID.TID 0000.0001)                    cg2d_init_res =    2.55874390038075E-03
(PID.TID 0000.0001)                       cg2d_iters =    89
(PID.TID 0000.0001)                         cg2d_res =    8.26388182565997E-10
(PID.TID 0000.0001) // =======================================================
(PID.TID 0000.0001) // Begin MONITOR dynamic field statistics
(PID.TID 0000.0001) // =======================================================
(PID.TID 0000.0001) %MON time_tsnumber                =                    15
(PID.TID 0000.0001) %MON time_secondsf                =   2.5920000000000E+06
(PID.TID 0000.0001) %MON dynstat_eta_max              =   4.4272746937189E+04
(PID.TID 0000.0001) %MON dynstat_eta_min              =  -9.2733331570877E+04
(PID.TID 0000.0001) %MON dynstat_eta_mean             =  -8.6574184408190E-12
(PID.TID 0000.0001) %MON dynstat_eta_sd               =   3.9586691492311E+04
(PID.TID 0000.0001) %MON dynstat_eta_del2             =   2.3965700271858E+04
(PID.TID 0000.0001) %MON dynstat_uvel_max             =   1.7615302496300E-01
(PID.TID 0000.0001) %MON dynstat_uvel_min             =  -8.4389753513657E-02
(PID.TID 0000.0001) %MON dynstat_uvel_mean            =   1.8262574723598E-04
(PID.TID 0000.0001) %MON dynstat_uvel_sd              =   1.2447549757819E-02
(PID.TID 0000.0001) %MON dynstat_uvel_del2            =   2.7472293315077E-03
(PID.TID 0000.0001) %MON dynstat_vvel_max             =   8.8498064448482E-02
(PID.TID 0000.0001) %MON dynstat_vvel_min             =  -1.3287236572011E-01
(PID.TID 0000.0001) %MON dynstat_vvel_mean            =   3.2384875316201E-05
(PID.TID 0000.0001) %MON dynstat_vvel_sd              =   1.0901195518227E-02
(PID.TID 0000.0001) %MON dynstat_vvel_del2            =   3.0698344248781E-03
(PID.TID 0000.0001) %MON dynstat_wvel_max             =   2.6569044906746E+00
(PID.TID 0000.0001) %MON dynstat_wvel_min             =  -1.5547932050912E+00
(PID.TID 0000.0001) %MON dynstat_wvel_mean            =   1.2979507803618E-04
(PID.TID 0000.0001) %MON dynstat_wvel_sd              =   2.2947306131303E-01
(PID.TID 0000.0001) %MON dynstat_wvel_del2            =   9.3649216911955E-02
(PID.TID 0000.0001) %MON dynstat_theta_max            =   2.9982785580741E+01
(PID.TID 0000.0001) %MON dynstat_theta_min            =  -3.1679769249380E+00
(PID.TID 0000.0001) %MON dynstat_theta_mean           =   3.6036486896855E+00
(PID.TID 0000.0001) %MON dynstat_theta_sd             =   4.4030320640200E+00
(PID.TID 0000.0001) %MON dynstat_theta_del2           =   1.4261321524852E-01
(PID.TID 0000.0001) %MON dynstat_salt_max             =   3.7433058134283E+01
(PID.TID 0000.0001) %MON dynstat_salt_min             =   2.9769554656244E+01
(PID.TID 0000.0001) %MON dynstat_salt_mean            =   3.4718001087012E+01
(PID.TID 0000.0001) %MON dynstat_salt_sd              =   2.9440921061602E-01
(PID.TID 0000.0001) %MON dynstat_salt_del2            =   2.6605029963420E-02
(PID.TID 0000.0001) %MON advcfl_uvel_max              =   1.1210750908066E-01
(PID.TID 0000.0001) %MON advcfl_vvel_max              =   5.1629939285748E-02
(PID.TID 0000.0001) %MON advcfl_wvel_max              =   1.2299767529994E-01
(PID.TID 0000.0001) %MON advcfl_W_hf_max              =   1.2299767529994E-01
(PID.TID 0000.0001) %MON pe_b_mean                    =  -7.8116846101027E-03
(PID.TID 0000.0001) %MON ke_max                       =   1.5884790981219E-02
(PID.TID 0000.0001) %MON ke_mean                      =   1.2345018059989E-04
(PID.TID 0000.0001) %MON ke_vol                       =   1.3442141716554E+22
(PID.TID 0000.0001) %MON vort_r_min                   =  -4.8909102707091E-07
(PID.TID 0000.0001) %MON vort_r_max                   =   4.9988509145845E-07
(PID.TID 0000.0001) %MON vort_a_mean                  =  -2.4531015159431E-05
(PID.TID 0000.0001) %MON vort_a_sd                    =   7.3436055917737E-05
(PID.TID 0000.0001) %MON vort_p_mean                  =  -2.9400485710277E-05
(PID.TID 0000.0001) %MON vort_p_sd                    =   1.0337537890246E-04
(PID.TID 0000.0001) %MON surfExpan_theta_mean         =   9.4388694879538E-04
(PID.TID 0000.0001) %MON surfExpan_salt_mean          =  -2.2212085612883E-05
(PID.TID 0000.0001) // =======================================================
(PID.TID 0000.0001) // End MONITOR dynamic field statistics
(PID.TID 0000.0001) // =======================================================
time,SST,SSS,fu,fv,Q,E-P,i0,i1,a,b =   2.5920E+06  2.5691E+01  0.0000E+00 -6.3596E-03  2.2741E-02 -8.3268E+01 -5.1109E-09     1     2  5.3333E-01  4.6667E-01
time,fu0,fu1,fu =   2.5920E+06 -8.1474E-03 -4.7952E-03 -6.3596E-03  5.3333E-01  4.6667E-01
 cg2d: Sum(rhs),rhsMax =  -4.99600361081320E-16  1.72996022066966E+02
(PID.TID 0000.0001)                    cg2d_init_res =    2.45008509665324E-03
(PID.TID 0000.0001)                       cg2d_iters =    89
(PID.TID 0000.0001)                         cg2d_res =    7.73750765614645E-10
(PID.TID 0000.0001) // =======================================================
(PID.TID 0000.0001) // Begin MONITOR dynamic field statistics
(PID.TID 0000.0001) // =======================================================
(PID.TID 0000.0001) %MON time_tsnumber                =                    16
(PID.TID 0000.0001) %MON time_secondsf                =   2.7648000000000E+06
(PID.TID 0000.0001) %MON dynstat_eta_max              =   4.6789405938975E+04
(PID.TID 0000.0001) %MON dynstat_eta_min              =  -9.2852436728229E+04
(PID.TID 0000.0001) %MON dynstat_eta_mean             =  -4.7514497837054E-12
(PID.TID 0000.0001) %MON dynstat_eta_sd               =   3.9659503890932E+04
(PID.TID 0000.0001) %MON dynstat_eta_del2             =   2.3966763343792E+04
(PID.TID 0000.0001) %MON dynstat_uvel_max             =   1.8326059198591E-01
(PID.TID 0000.0001) %MON dynstat_uvel_min             =  -8.7623465776190E-02
(PID.TID 0000.0001) %MON dynstat_uvel_mean            =   2.4727625608035E-04
(PID.TID 0000.0001) %MON dynstat_uvel_sd              =   1.3323140580782E-02
(PID.TID 0000.0001) %MON dynstat_uvel_del2            =   2.8447694519208E-03
(PID.TID 0000.0001) %MON dynstat_vvel_max             =   8.9080998842195E-02
(PID.TID 0000.0001) %MON dynstat_vvel_min             =  -1.3177977563318E-01
(PID.TID 0000.0001) %MON dynstat_vvel_mean            =   1.7431152157340E-05
(PID.TID 0000.0001) %MON dynstat_vvel_sd              =   1.0756937775330E-02
(PID.TID 0000.0001) %MON dynstat_vvel_del2            =   3.0670882855678E-03
(PID.TID 0000.0001) %MON dynstat_wvel_max             =   2.7623140564556E+00
(PID.TID 0000.0001) %MON dynstat_wvel_min             =  -1.5768143055669E+00
(PID.TID 0000.0001) %MON dynstat_wvel_mean            =   6.7075620793928E-05
(PID.TID 0000.0001) %MON dynstat_wvel_sd              =   2.2284687211626E-01
(PID.TID 0000.0001) %MON dynstat_wvel_del2            =   9.1870765815791E-02
(PID.TID 0000.0001) %MON dynstat_theta_max            =   2.9989060863063E+01
(PID.TID 0000.0001) %MON dynstat_theta_min            =  -3.2072080143470E+00
(PID.TID 0000.0001) %MON dynstat_theta_mean           =   3.6037435815493E+00
(PID.TID 0000.0001) %MON dynstat_theta_sd             =   4.4032904938878E+00
(PID.TID 0000.0001) %MON dynstat_theta_del2           =   1.4297894111487E-01
(PID.TID 0000.0001) %MON dynstat_salt_max             =   3.7433192125263E+01
(PID.TID 0000.0001) %MON dynstat_salt_min             =   2.9768463770749E+01
(PID.TID 0000.0001) %MON dynstat_salt_mean            =   3.4718001020333E+01
(PID.TID 0000.0001) %MON dynstat_salt_sd              =   2.9441201053624E-01
(PID.TID 0000.0001) %MON dynstat_salt_del2            =   2.6649050902435E-02
(PID.TID 0000.0001) %MON advcfl_uvel_max              =   1.1547897317536E-01
(PID.TID 0000.0001) %MON advcfl_vvel_max              =   5.1205393824044E-02
(PID.TID 0000.0001) %MON advcfl_wvel_max              =   1.1294530438996E-01
(PID.TID 0000.0001) %MON advcfl_W_hf_max              =   1.1294530438996E-01
(PID.TID 0000.0001) %MON pe_b_mean                    =  -7.7299703761883E-03
(PID.TID 0000.0001) %MON ke_max                       =   1.6992342859805E-02
(PID.TID 0000.0001) %MON ke_mean                      =   1.3228021475552E-04
(PID.TID 0000.0001) %MON ke_vol                       =   1.3442141716554E+22
(PID.TID 0000.0001) %MON vort_r_min                   =  -4.8631187425591E-07
(PID.TID 0000.0001) %MON vort_r_max                   =   5.2770228819661E-07
(PID.TID 0000.0001) %MON vort_a_mean                  =  -2.4531015284977E-05
(PID.TID 0000.0001) %MON vort_a_sd                    =   7.3436065618288E-05
(PID.TID 0000.0001) %MON vort_p_mean                  =  -2.9400527412204E-05
(PID.TID 0000.0001) %MON vort_p_sd                    =   1.0337585325661E-04
(PID.TID 0000.0001) %MON surfExpan_theta_mean         =   8.6715430967259E-04
(PID.TID 0000.0001) %MON surfExpan_salt_mean          =   1.2480401641017E-05
(PID.TID 0000.0001) // =======================================================
(PID.TID 0000.0001) // End MONITOR dynamic field statistics
(PID.TID 0000.0001) // =======================================================
time,SST,SSS,fu,fv,Q,E-P,i0,i1,a,b =   2.7648E+06  2.5662E+01  0.0000E+00 -6.1361E-03  2.2585E-02 -8.2175E+01 -5.1109E-09     1     2  6.0000E-01  4.0000E-01
time,fu0,fu1,fu =   2.7648E+06 -8.1474E-03 -4.7952E-03 -6.1361E-03  6.0000E-01  4.0000E-01
 cg2d: Sum(rhs),rhsMax =  -9.71445146547012E-16  1.72993070116000E+02
(PID.TID 0000.0001)                    cg2d_init_res =    2.30541350170316E-03
(PID.TID 0000.0001)                       cg2d_iters =    86
(PID.TID 0000.0001)                         cg2d_res =    9.80493554934878E-10
(PID.TID 0000.0001) // =======================================================
(PID.TID 0000.0001) // Begin MONITOR dynamic field statistics
(PID.TID 0000.0001) // =======================================================
(PID.TID 0000.0001) %MON time_tsnumber                =                    17
(PID.TID 0000.0001) %MON time_secondsf                =   2.9376000000000E+06
(PID.TID 0000.0001) %MON dynstat_eta_max              =   4.8392797065095E+04
(PID.TID 0000.0001) %MON dynstat_eta_min              =  -9.2898951790048E+04
(PID.TID 0000.0001) %MON dynstat_eta_mean             =  -3.0900868091074E-12
(PID.TID 0000.0001) %MON dynstat_eta_sd               =   3.9709927340981E+04
(PID.TID 0000.0001) %MON dynstat_eta_del2             =   2.3967311187149E+04
(PID.TID 0000.0001) %MON dynstat_uvel_max             =   1.9076618932105E-01
(PID.TID 0000.0001) %MON dynstat_uvel_min             =  -9.1158802867277E-02
(PID.TID 0000.0001) %MON dynstat_uvel_mean            =   3.4910137497112E-04
(PID.TID 0000.0001) %MON dynstat_uvel_sd              =   1.4133812149430E-02
(PID.TID 0000.0001) %MON dynstat_uvel_del2            =   2.9457256095874E-03
(PID.TID 0000.0001) %MON dynstat_vvel_max             =   9.2144757699594E-02
(PID.TID 0000.0001) %MON dynstat_vvel_min             =  -1.2921766108887E-01
(PID.TID 0000.0001) %MON dynstat_vvel_mean            =  -1.5114334468511E-05
(PID.TID 0000.0001) %MON dynstat_vvel_sd              =   1.0552145670269E-02
(PID.TID 0000.0001) %MON dynstat_vvel_del2            =   3.0594166998036E-03
(PID.TID 0000.0001) %MON dynstat_wvel_max             =   2.8570474406976E+00
(PID.TID 0000.0001) %MON dynstat_wvel_min             =  -1.5805358431705E+00
(PID.TID 0000.0001) %MON dynstat_wvel_mean            =   2.3315401980201E-05
(PID.TID 0000.0001) %MON dynstat_wvel_sd              =   2.1606932846065E-01
(PID.TID 0000.0001) %MON dynstat_wvel_del2            =   9.0379056950801E-02
(PID.TID 0000.0001) %MON dynstat_theta_max            =   2.9990663773984E+01
(PID.TID 0000.0001) %MON dynstat_theta_min            =  -3.2418974117261E+00
(PID.TID 0000.0001) %MON dynstat_theta_mean           =   3.6038393020909E+00
(PID.TID 0000.0001) %MON dynstat_theta_sd             =   4.4035652004766E+00
(PID.TID 0000.0001) %MON dynstat_theta_del2           =   1.4327287477901E-01
(PID.TID 0000.0001) %MON dynstat_salt_max             =   3.7433460601974E+01
(PID.TID 0000.0001) %MON dynstat_salt_min             =   2.9767300644927E+01
(PID.TID 0000.0001) %MON dynstat_salt_mean            =   3.4718000930101E+01
(PID.TID 0000.0001) %MON dynstat_salt_sd              =   2.9441346812112E-01
(PID.TID 0000.0001) %MON dynstat_salt_del2            =   2.6687101279480E-02
(PID.TID 0000.0001) %MON advcfl_uvel_max              =   1.1878421815170E-01
(PID.TID 0000.0001) %MON advcfl_vvel_max              =   5.0209838294882E-02
(PID.TID 0000.0001) %MON advcfl_wvel_max              =   1.0048998823486E-01
(PID.TID 0000.0001) %MON advcfl_W_hf_max              =   1.0048998823486E-01
(PID.TID 0000.0001) %MON pe_b_mean                    =  -7.7031976055360E-03
(PID.TID 0000.0001) %MON ke_max                       =   1.7979383853277E-02
(PID.TID 0000.0001) %MON ke_mean                      =   1.4043121442935E-04
(PID.TID 0000.0001) %MON ke_vol                       =   1.3442141716554E+22
(PID.TID 0000.0001) %MON vort_r_min                   =  -5.1066411410350E-07
(PID.TID 0000.0001) %MON vort_r_max                   =   5.4986962608467E-07
(PID.TID 0000.0001) %MON vort_a_mean                  =  -2.4531015431942E-05
(PID.TID 0000.0001) %MON vort_a_sd                    =   7.3436083563406E-05
(PID.TID 0000.0001) %MON vort_p_mean                  =  -2.9400569134543E-05
(PID.TID 0000.0001) %MON vort_p_sd                    =   1.0337625318573E-04
(PID.TID 0000.0001) %MON surfExpan_theta_mean         =   4.6724516592984E-04
(PID.TID 0000.0001) %MON surfExpan_salt_mean          =   5.0635246124526E-05
(PID.TID 0000.0001) // =======================================================
(PID.TID 0000.0001) // End MONITOR dynamic field statistics
(PID.TID 0000.0001) // =======================================================
time,SST,SSS,fu,fv,Q,E-P,i0,i1,a,b =   2.9376E+06  2.5633E+01  0.0000E+00 -5.9126E-03  2.2430E-02 -8.1082E+01 -5.1109E-09     1     2  6.6667E-01  3.3333E-01
time,fu0,fu1,fu =   2.9376E+06 -8.1474E-03 -4.7952E-03 -5.9126E-03  6.6667E-01  3.3333E-01
 cg2d: Sum(rhs),rhsMax =  -9.15933995315754E-16  1.72989818823046E+02
(PID.TID 0000.0001)                    cg2d_init_res =    2.20657756221958E-03
(PID.TID 0000.0001)                       cg2d_iters =    84
(PID.TID 0000.0001)                         cg2d_res =    8.44018806719560E-10
(PID.TID 0000.0001) // =======================================================
(PID.TID 0000.0001) // Begin MONITOR dynamic field statistics
(PID.TID 0000.0001) // =======================================================
(PID.TID 0000.0001) %MON time_tsnumber                =                    18
(PID.TID 0000.0001) %MON time_secondsf                =   3.1104000000000E+06
(PID.TID 0000.0001) %MON dynstat_eta_max              =   4.8834901967634E+04
(PID.TID 0000.0001) %MON dynstat_eta_min              =  -9.2835667851895E+04
(PID.TID 0000.0001) %MON dynstat_eta_mean             =   1.1499636085468E-12
(PID.TID 0000.0001) %MON dynstat_eta_sd               =   3.9723822732025E+04
(PID.TID 0000.0001) %MON dynstat_eta_del2             =   2.3967135699173E+04
(PID.TID 0000.0001) %MON dynstat_uvel_max             =   1.9673996481535E-01
(PID.TID 0000.0001) %MON dynstat_uvel_min             =  -9.5060539827593E-02
(PID.TID 0000.0001) %MON dynstat_uvel_mean            =   4.6370201557753E-04
(PID.TID 0000.0001) %MON dynstat_uvel_sd              =   1.4870643207826E-02
(PID.TID 0000.0001) %MON dynstat_uvel_del2            =   3.0459660703842E-03
(PID.TID 0000.0001) %MON dynstat_vvel_max             =   9.4736791357298E-02
(PID.TID 0000.0001) %MON dynstat_vvel_min             =  -1.2522379481547E-01
(PID.TID 0000.0001) %MON dynstat_vvel_mean            =  -4.6941415042768E-05
(PID.TID 0000.0001) %MON dynstat_vvel_sd              =   1.0310270044951E-02
(PID.TID 0000.0001) %MON dynstat_vvel_del2            =   3.0533328328516E-03
(PID.TID 0000.0001) %MON dynstat_wvel_max             =   2.9401062609262E+00
(PID.TID 0000.0001) %MON dynstat_wvel_min             =  -1.6425587314125E+00
(PID.TID 0000.0001) %MON dynstat_wvel_mean            =  -8.0936295044940E-06
(PID.TID 0000.0001) %MON dynstat_wvel_sd              =   2.0968400296952E-01
(PID.TID 0000.0001) %MON dynstat_wvel_del2            =   8.9285516341659E-02
(PID.TID 0000.0001) %MON dynstat_theta_max            =   2.9987563634940E+01
(PID.TID 0000.0001) %MON dynstat_theta_min            =  -3.2721039006167E+00
(PID.TID 0000.0001) %MON dynstat_theta_mean           =   3.6039358448374E+00
(PID.TID 0000.0001) %MON dynstat_theta_sd             =   4.4038589265705E+00
(PID.TID 0000.0001) %MON dynstat_theta_del2           =   1.4350319132569E-01
(PID.TID 0000.0001) %MON dynstat_salt_max             =   3.7433867092846E+01
(PID.TID 0000.0001) %MON dynstat_salt_min             =   2.9766010524434E+01
(PID.TID 0000.0001) %MON dynstat_salt_mean            =   3.4718000829494E+01
(PID.TID 0000.0001) %MON dynstat_salt_sd              =   2.9441390429795E-01
(PID.TID 0000.0001) %MON dynstat_salt_del2            =   2.6708400585591E-02
(PID.TID 0000.0001) %MON advcfl_uvel_max              =   1.2370205306022E-01
(PID.TID 0000.0001) %MON advcfl_vvel_max              =   4.8657949968866E-02
(PID.TID 0000.0001) %MON advcfl_wvel_max              =   9.8319616505771E-02
(PID.TID 0000.0001) %MON advcfl_W_hf_max              =   9.8319616505771E-02
(PID.TID 0000.0001) %MON pe_b_mean                    =  -7.7318655583733E-03
(PID.TID 0000.0001) %MON ke_max                       =   1.8840518487564E-02
(PID.TID 0000.0001) %MON ke_mean                      =   1.4789028421487E-04
(PID.TID 0000.0001) %MON ke_vol                       =   1.3442141716554E+22
(PID.TID 0000.0001) %MON vort_r_min                   =  -5.3031880552933E-07
(PID.TID 0000.0001) %MON vort_r_max                   =   5.6701062740654E-07
(PID.TID 0000.0001) %MON vort_a_mean                  =  -2.4531015571415E-05
(PID.TID 0000.0001) %MON vort_a_sd                    =   7.3436104415799E-05
(PID.TID 0000.0001) %MON vort_p_mean                  =  -2.9400602137696E-05
(PID.TID 0000.0001) %MON vort_p_sd                    =   1.0337650151509E-04
(PID.TID 0000.0001) %MON surfExpan_theta_mean         =  -1.3057687609706E-05
(PID.TID 0000.0001) %MON surfExpan_salt_mean          =   8.5133114123212E-05
(PID.TID 0000.0001) // =======================================================
(PID.TID 0000.0001) // End MONITOR dynamic field statistics
(PID.TID 0000.0001) // =======================================================
time,SST,SSS,fu,fv,Q,E-P,i0,i1,a,b =   3.1104E+06  2.5605E+01  0.0000E+00 -5.6891E-03  2.2274E-02 -7.9989E+01 -5.1109E-09     1     2  7.3333E-01  2.6667E-01
time,fu0,fu1,fu =   3.1104E+06 -8.1474E-03 -4.7952E-03 -5.6891E-03  7.3333E-01  2.6667E-01
 cg2d: Sum(rhs),rhsMax =  -2.44249065417534E-15  1.72986107157337E+02
(PID.TID 0000.0001)                    cg2d_init_res =    2.18102075735315E-03
(PID.TID 0000.0001)                       cg2d_iters =    87
(PID.TID 0000.0001)                         cg2d_res =    8.56758188709107E-10
(PID.TID 0000.0001) // =======================================================
(PID.TID 0000.0001) // Begin MONITOR dynamic field statistics
(PID.TID 0000.0001) // =======================================================
(PID.TID 0000.0001) %MON time_tsnumber                =                    19
(PID.TID 0000.0001) %MON time_secondsf                =   3.2832000000000E+06
(PID.TID 0000.0001) %MON dynstat_eta_max              =   4.8224387810834E+04
(PID.TID 0000.0001) %MON dynstat_eta_min              =  -9.2712801151509E+04
(PID.TID 0000.0001) %MON dynstat_eta_mean             =  -9.6873382988767E-12
(PID.TID 0000.0001) %MON dynstat_eta_sd               =   3.9703080446797E+04
(PID.TID 0000.0001) %MON dynstat_eta_del2             =   2.3966250517721E+04
(PID.TID 0000.0001) %MON dynstat_uvel_max             =   2.0110488562270E-01
(PID.TID 0000.0001) %MON dynstat_uvel_min             =  -9.8447664576720E-02
(PID.TID 0000.0001) %MON dynstat_uvel_mean            =   5.6927868164452E-04
(PID.TID 0000.0001) %MON dynstat_uvel_sd              =   1.5524672097449E-02
(PID.TID 0000.0001) %MON dynstat_uvel_del2            =   3.1434729665341E-03
(PID.TID 0000.0001) %MON dynstat_vvel_max             =   9.6880621949246E-02
(PID.TID 0000.0001) %MON dynstat_vvel_min             =  -1.1986189037159E-01
(PID.TID 0000.0001) %MON dynstat_vvel_mean            =  -6.3709247180643E-05
(PID.TID 0000.0001) %MON dynstat_vvel_sd              =   1.0056186913520E-02
(PID.TID 0000.0001) %MON dynstat_vvel_del2            =   3.0513816223690E-03
(PID.TID 0000.0001) %MON dynstat_wvel_max             =   3.0106680347352E+00
(PID.TID 0000.0001) %MON dynstat_wvel_min             =  -1.7726738951177E+00
(PID.TID 0000.0001) %MON dynstat_wvel_mean            =  -3.4991382505131E-05
(PID.TID 0000.0001) %MON dynstat_wvel_sd              =   2.0415220987054E-01
(PID.TID 0000.0001) %MON dynstat_wvel_del2            =   8.8715894787573E-02
(PID.TID 0000.0001) %MON dynstat_theta_max            =   2.9979731582096E+01
(PID.TID 0000.0001) %MON dynstat_theta_min            =  -3.2978794209873E+00
(PID.TID 0000.0001) %MON dynstat_theta_mean           =   3.6040337120731E+00
(PID.TID 0000.0001) %MON dynstat_theta_sd             =   4.4041721426779E+00
(PID.TID 0000.0001) %MON dynstat_theta_del2           =   1.4382684936810E-01
(PID.TID 0000.0001) %MON dynstat_salt_max             =   3.7434407378920E+01
(PID.TID 0000.0001) %MON dynstat_salt_min             =   2.9764561512308E+01
(PID.TID 0000.0001) %MON dynstat_salt_mean            =   3.4718000738347E+01
(PID.TID 0000.0001) %MON dynstat_salt_sd              =   2.9441595825720E-01
(PID.TID 0000.0001) %MON dynstat_salt_del2            =   2.6751195257701E-02
(PID.TID 0000.0001) %MON advcfl_uvel_max              =   1.2742110724839E-01
(PID.TID 0000.0001) %MON advcfl_vvel_max              =   4.6574485891189E-02
(PID.TID 0000.0001) %MON advcfl_wvel_max              =   9.7953098619633E-02
(PID.TID 0000.0001) %MON advcfl_W_hf_max              =   9.7953098619633E-02
(PID.TID 0000.0001) %MON pe_b_mean                    =  -7.8070785074206E-03
(PID.TID 0000.0001) %MON ke_max                       =   1.9573379174943E-02
(PID.TID 0000.0001) %MON ke_mean                      =   1.5462324650434E-04
(PID.TID 0000.0001) %MON ke_vol                       =   1.3442141716554E+22
(PID.TID 0000.0001) %MON vort_r_min                   =  -5.4491986943830E-07
(PID.TID 0000.0001) %MON vort_r_max                   =   5.7991893718311E-07
(PID.TID 0000.0001) %MON vort_a_mean                  =  -2.4531015679743E-05
(PID.TID 0000.0001) %MON vort_a_sd                    =   7.3436123403870E-05
(PID.TID 0000.0001) %MON vort_p_mean                  =  -2.9400621938254E-05
(PID.TID 0000.0001) %MON vort_p_sd                    =   1.0337655976064E-04
(PID.TID 0000.0001) %MON surfExpan_theta_mean         =  -3.6261606636016E-04
(PID.TID 0000.0001) %MON surfExpan_salt_mean          =   1.1038369875516E-04
(PID.TID 0000.0001) // =======================================================
(PID.TID 0000.0001) // End MONITOR dynamic field statistics
(PID.TID 0000.0001) // =======================================================
time,SST,SSS,fu,fv,Q,E-P,i0,i1,a,b =   3.2832E+06  2.5576E+01  0.0000E+00 -5.4656E-03  2.2119E-02 -7.8896E+01 -5.1109E-09     1     2  8.0000E-01  2.0000E-01
time,fu0,fu1,fu =   3.2832E+06 -8.1474E-03 -4.7952E-03 -5.4656E-03  8.0000E-01  2.0000E-01
 cg2d: Sum(rhs),rhsMax =   2.83106871279415E-15  1.72981616755524E+02
(PID.TID 0000.0001)                    cg2d_init_res =    2.20678526678341E-03
(PID.TID 0000.0001)                       cg2d_iters =    88
(PID.TID 0000.0001)                         cg2d_res =    8.50857072333446E-10
(PID.TID 0000.0001) // =======================================================
(PID.TID 0000.0001) // Begin MONITOR dynamic field statistics
(PID.TID 0000.0001) // =======================================================
(PID.TID 0000.0001) %MON time_tsnumber                =                    20
(PID.TID 0000.0001) %MON time_secondsf                =   3.4560000000000E+06
(PID.TID 0000.0001) %MON dynstat_eta_max              =   4.6919005419131E+04
(PID.TID 0000.0001) %MON dynstat_eta_min              =  -9.2592391553768E+04
(PID.TID 0000.0001) %MON dynstat_eta_mean             =   1.4352392410689E-12
(PID.TID 0000.0001) %MON dynstat_eta_sd               =   3.9661648705774E+04
(PID.TID 0000.0001) %MON dynstat_eta_del2             =   2.3964945571459E+04
(PID.TID 0000.0001) %MON dynstat_uvel_max             =   2.0380492237442E-01
(PID.TID 0000.0001) %MON dynstat_uvel_min             =  -1.0119271351064E-01
(PID.TID 0000.0001) %MON dynstat_uvel_mean            =   6.5145501847693E-04
(PID.TID 0000.0001) %MON dynstat_uvel_sd              =   1.6087071613469E-02
(PID.TID 0000.0001) %MON dynstat_uvel_del2            =   3.2340693052589E-03
(PID.TID 0000.0001) %MON dynstat_vvel_max             =   9.8610241397014E-02
(PID.TID 0000.0001) %MON dynstat_vvel_min             =  -1.1322532849998E-01
(PID.TID 0000.0001) %MON dynstat_vvel_mean            =  -5.8030660618956E-05
(PID.TID 0000.0001) %MON dynstat_vvel_sd              =   9.8150653861471E-03
(PID.TID 0000.0001) %MON dynstat_vvel_del2            =   3.0584558743831E-03
(PID.TID 0000.0001) %MON dynstat_wvel_max             =   3.0682364113621E+00
(PID.TID 0000.0001) %MON dynstat_wvel_min             =  -1.8897157139925E+00
(PID.TID 0000.0001) %MON dynstat_wvel_mean            =  -6.2928682844503E-05
(PID.TID 0000.0001) %MON dynstat_wvel_sd              =   1.9981011353268E-01
(PID.TID 0000.0001) %MON dynstat_wvel_del2            =   8.8540856878388E-02
(PID.TID 0000.0001) %MON dynstat_theta_max            =   2.9967149828683E+01
(PID.TID 0000.0001) %MON dynstat_theta_min            =  -3.3192712225289E+00
(PID.TID 0000.0001) %MON dynstat_theta_mean           =   3.6041327875058E+00
(PID.TID 0000.0001) %MON dynstat_theta_sd             =   4.4045043961957E+00
(PID.TID 0000.0001) %MON dynstat_theta_del2           =   1.4394224940705E-01
(PID.TID 0000.0001) %MON dynstat_salt_max             =   3.7435274147517E+01
(PID.TID 0000.0001) %MON dynstat_salt_min             =   2.9762948626869E+01
(PID.TID 0000.0001) %MON dynstat_salt_mean            =   3.4718000671546E+01
(PID.TID 0000.0001) %MON dynstat_salt_sd              =   2.9441587652993E-01
(PID.TID 0000.0001) %MON dynstat_salt_del2            =   2.6780454885955E-02
(PID.TID 0000.0001) %MON advcfl_uvel_max              =   1.2984289288531E-01
(PID.TID 0000.0001) %MON advcfl_vvel_max              =   4.3995730823192E-02
(PID.TID 0000.0001) %MON advcfl_wvel_max              =   9.7216024118122E-02
(PID.TID 0000.0001) %MON advcfl_W_hf_max              =   9.7216024118122E-02
(PID.TID 0000.0001) %MON pe_b_mean                    =  -7.9131751042503E-03
(PID.TID 0000.0001) %MON ke_max                       =   2.0295634582817E-02
(PID.TID 0000.0001) %MON ke_mean                      =   1.6057159230544E-04
(PID.TID 0000.0001) %MON ke_vol                       =   1.3442141716554E+22
(PID.TID 0000.0001) %MON vort_r_min                   =  -5.5421656601516E-07
(PID.TID 0000.0001) %MON vort_r_max                   =   5.8935153664087E-07
(PID.TID 0000.0001) %MON vort_a_mean                  =  -2.4531015741707E-05
(PID.TID 0000.0001) %MON vort_a_sd                    =   7.3436137405297E-05
(PID.TID 0000.0001) %MON vort_p_mean                  =  -2.9400628701737E-05
(PID.TID 0000.0001) %MON vort_p_sd                    =   1.0337644867771E-04
(PID.TID 0000.0001) %MON surfExpan_theta_mean         =  -4.5391094252834E-04
(PID.TID 0000.0001) %MON surfExpan_salt_mean          =   1.2287946970980E-04
(PID.TID 0000.0001) // =======================================================
(PID.TID 0000.0001) // End MONITOR dynamic field statistics
(PID.TID 0000.0001) // =======================================================
(PID.TID 0000.0001) %CHECKPOINT        20 ckptA
(PID.TID 0000.0001)   Seconds in section "ALL                    [THE_MODEL_MAIN]":
(PID.TID 0000.0001)           User time:  18.0699999
(PID.TID 0000.0001)         System time:  0.25999999
(PID.TID 0000.0001)     Wall clock time:  19.7801731
(PID.TID 0000.0001)          No. starts: 1
(PID.TID 0000.0001)           No. stops: 1
(PID.TID 0000.0001)   Seconds in section "INITIALISE_FIXED       [THE_MODEL_MAIN]":
(PID.TID 0000.0001)           User time:  0.140000006
(PID.TID 0000.0001)         System time:  0.0299999993
(PID.TID 0000.0001)     Wall clock time:  0.235235929
(PID.TID 0000.0001)          No. starts: 1
(PID.TID 0000.0001)           No. stops: 1
(PID.TID 0000.0001)   Seconds in section "THE_MAIN_LOOP          [THE_MODEL_MAIN]":
(PID.TID 0000.0001)           User time:  17.8000008
(PID.TID 0000.0001)         System time:  0.159999998
(PID.TID 0000.0001)     Wall clock time:  18.5497081
(PID.TID 0000.0001)          No. starts: 1
(PID.TID 0000.0001)           No. stops: 1
(PID.TID 0000.0001)   Seconds in section "INITIALISE_VARIA    [THE_MAIN_LOOP]":
(PID.TID 0000.0001)           User time:  0.150000006
(PID.TID 0000.0001)         System time:  0.0499999989
(PID.TID 0000.0001)     Wall clock time:  0.258598089
(PID.TID 0000.0001)          No. starts: 1
(PID.TID 0000.0001)           No. stops: 1
(PID.TID 0000.0001)   Seconds in section "MONITOR             [THE_MAIN_LOOP]":
(PID.TID 0000.0001)           User time:  0.139999986
(PID.TID 0000.0001)         System time:  0.
(PID.TID 0000.0001)     Wall clock time:  0.135865211
(PID.TID 0000.0001)          No. starts: 1
(PID.TID 0000.0001)           No. stops: 1
(PID.TID 0000.0001)   Seconds in section "DO_THE_MODEL_IO     [THE_MAIN_LOOP]":
(PID.TID 0000.0001)           User time:  0.0500000119
(PID.TID 0000.0001)         System time:  0.
(PID.TID 0000.0001)     Wall clock time:  0.277563095
(PID.TID 0000.0001)          No. starts: 1
(PID.TID 0000.0001)           No. stops: 1
(PID.TID 0000.0001)   Seconds in section "MAIN LOOP           [THE_MAIN_LOOP]":
(PID.TID 0000.0001)           User time:  17.4600008
(PID.TID 0000.0001)         System time:  0.109999999
(PID.TID 0000.0001)     Wall clock time:  17.8775699
(PID.TID 0000.0001)          No. starts: 1
(PID.TID 0000.0001)           No. stops: 1
(PID.TID 0000.0001)   Seconds in section "FORWARD_STEP        [THE_MAIN_LOOP]":
(PID.TID 0000.0001)           User time:  17.4600008
(PID.TID 0000.0001)         System time:  0.109999999
(PID.TID 0000.0001)     Wall clock time:  17.8771336
(PID.TID 0000.0001)          No. starts: 20
(PID.TID 0000.0001)           No. stops: 20
(PID.TID 0000.0001)   Seconds in section "UPDATE_ETAH        [FORWARD_STEP]":
(PID.TID 0000.0001)           User time:  0.0100002289
(PID.TID 0000.0001)         System time:  0.
(PID.TID 0000.0001)     Wall clock time:  0.002607584
(PID.TID 0000.0001)          No. starts: 20
(PID.TID 0000.0001)           No. stops: 20
(PID.TID 0000.0001)   Seconds in section "CALC_SURF_DR      [FORWARD_STEP]":
(PID.TID 0000.0001)           User time:  0.0699982643
(PID.TID 0000.0001)         System time:  0.
(PID.TID 0000.0001)     Wall clock time:  0.0312693119
(PID.TID 0000.0001)          No. starts: 20
(PID.TID 0000.0001)           No. stops: 20
(PID.TID 0000.0001)   Seconds in section "EXTERNAL_FIELDS_LOAD[FORWARD_STEP]":
(PID.TID 0000.0001)           User time:  0.0199999809
(PID.TID 0000.0001)         System time:  0.
(PID.TID 0000.0001)     Wall clock time:  0.110790014
(PID.TID 0000.0001)          No. starts: 20
(PID.TID 0000.0001)           No. stops: 20
(PID.TID 0000.0001)   Seconds in section "THERMODYNAMICS      [FORWARD_STEP]":
(PID.TID 0000.0001)           User time:  5.06999755
(PID.TID 0000.0001)         System time:  0.0300000086
(PID.TID 0000.0001)     Wall clock time:  5.12575412
(PID.TID 0000.0001)          No. starts: 20
(PID.TID 0000.0001)           No. stops: 20
(PID.TID 0000.0001)   Seconds in section "BLOCKING_EXCHANGES  [FORWARD_STEP]":
(PID.TID 0000.0001)           User time:  0.0300006866
(PID.TID 0000.0001)         System time:  0.
(PID.TID 0000.0001)     Wall clock time:  0.0708332062
(PID.TID 0000.0001)          No. starts: 40
(PID.TID 0000.0001)           No. stops: 40
(PID.TID 0000.0001)   Seconds in section "DYNAMICS            [FORWARD_STEP]":
(PID.TID 0000.0001)           User time:  4.91000199
(PID.TID 0000.0001)         System time:  0.0199999958
(PID.TID 0000.0001)     Wall clock time:  4.92325068
(PID.TID 0000.0001)          No. starts: 20
(PID.TID 0000.0001)           No. stops: 20
(PID.TID 0000.0001)   Seconds in section "UPDATE_SURF_DR     [FORWARD_STEP]":
(PID.TID 0000.0001)           User time:  0.0100002289
(PID.TID 0000.0001)         System time:  0.
(PID.TID 0000.0001)     Wall clock time:  0.0196762085
(PID.TID 0000.0001)          No. starts: 20
(PID.TID 0000.0001)           No. stops: 20
(PID.TID 0000.0001)   Seconds in section "UPDATE_CG2D        [FORWARD_STEP]":
(PID.TID 0000.0001)           User time:  0.189998627
(PID.TID 0000.0001)         System time:  0.
(PID.TID 0000.0001)     Wall clock time:  0.158300638
(PID.TID 0000.0001)          No. starts: 20
(PID.TID 0000.0001)           No. stops: 20
(PID.TID 0000.0001)   Seconds in section "SOLVE_FOR_PRESSURE  [FORWARD_STEP]":
(PID.TID 0000.0001)           User time:  3.64000022
(PID.TID 0000.0001)         System time:  0.00999999791
(PID.TID 0000.0001)     Wall clock time:  3.66709113
(PID.TID 0000.0001)          No. starts: 20
(PID.TID 0000.0001)           No. stops: 20
(PID.TID 0000.0001)   Seconds in section "THE_CORRECTION_STEP [FORWARD_STEP]":
(PID.TID 0000.0001)           User time:  1.36999941
(PID.TID 0000.0001)         System time:  0.
(PID.TID 0000.0001)     Wall clock time:  1.34353304
(PID.TID 0000.0001)          No. starts: 20
(PID.TID 0000.0001)           No. stops: 20
(PID.TID 0000.0001)   Seconds in section "MONITOR             [FORWARD_STEP]":
(PID.TID 0000.0001)           User time:  2.08000243
(PID.TID 0000.0001)         System time:  0.
(PID.TID 0000.0001)     Wall clock time:  2.06780648
(PID.TID 0000.0001)          No. starts: 20
(PID.TID 0000.0001)           No. stops: 20
(PID.TID 0000.0001)   Seconds in section "DO_THE_MODEL_IO     [FORWARD_STEP]":
(PID.TID 0000.0001)           User time:  0.0500011444
(PID.TID 0000.0001)         System time:  0.049999997
(PID.TID 0000.0001)     Wall clock time:  0.349211931
(PID.TID 0000.0001)          No. starts: 20
(PID.TID 0000.0001)           No. stops: 20
(PID.TID 0000.0001)   Seconds in section "WRITE_CHECKPOINT    [FORWARD_STEP]":
(PID.TID 0000.0001)           User time:  0.
(PID.TID 0000.0001)         System time:  0.
(PID.TID 0000.0001)     Wall clock time:  0.000435352325
(PID.TID 0000.0001)          No. starts: 20
(PID.TID 0000.0001)           No. stops: 20
(PID.TID 0000.0001)   Seconds in section "WRITE_CHECKPOINT       [THE_MODEL_MAIN]":
(PID.TID 0000.0001)           User time:  0.129999161
(PID.TID 0000.0001)         System time:  0.0699999928
(PID.TID 0000.0001)     Wall clock time:  0.995126009
(PID.TID 0000.0001)          No. starts: 1
(PID.TID 0000.0001)           No. stops: 1
(PID.TID 0000.0001) // ======================================================
(PID.TID 0000.0001) // Tile <-> Tile communication statistics
(PID.TID 0000.0001) // ======================================================
(PID.TID 0000.0001) // o Tile number: 000001
(PID.TID 0000.0001) //         No. X exchanges =              0
(PID.TID 0000.0001) //            Max. X spins =              0
(PID.TID 0000.0001) //            Min. X spins =     1000000000
(PID.TID 0000.0001) //          Total. X spins =              0
(PID.TID 0000.0001) //            Avg. X spins =       0.00E+00
(PID.TID 0000.0001) //         No. Y exchanges =              0
(PID.TID 0000.0001) //            Max. Y spins =              0
(PID.TID 0000.0001) //            Min. Y spins =     1000000000
(PID.TID 0000.0001) //          Total. Y spins =              0
(PID.TID 0000.0001) //            Avg. Y spins =       0.00E+00
(PID.TID 0000.0001) // o Tile number: 000002
(PID.TID 0000.0001) //         No. X exchanges =              0
(PID.TID 0000.0001) //            Max. X spins =              0
(PID.TID 0000.0001) //            Min. X spins =     1000000000
(PID.TID 0000.0001) //          Total. X spins =              0
(PID.TID 0000.0001) //            Avg. X spins =       0.00E+00
(PID.TID 0000.0001) //         No. Y exchanges =              0
(PID.TID 0000.0001) //            Max. Y spins =              0
(PID.TID 0000.0001) //            Min. Y spins =     1000000000
(PID.TID 0000.0001) //          Total. Y spins =              0
(PID.TID 0000.0001) //            Avg. Y spins =       0.00E+00
(PID.TID 0000.0001) // o Thread number: 000001
(PID.TID 0000.0001) //            No. barriers =          29498
(PID.TID 0000.0001) //      Max. barrier spins =              1
(PID.TID 0000.0001) //      Min. barrier spins =              1
(PID.TID 0000.0001) //     Total barrier spins =          29498
(PID.TID 0000.0001) //      Avg. barrier spins =       1.00E+00
