(PID.TID 0000.0001) 
(PID.TID 0000.0001) // ======================================================
(PID.TID 0000.0001) //                      MITgcm UV
(PID.TID 0000.0001) //                      =========
(PID.TID 0000.0001) // ======================================================
(PID.TID 0000.0001) // execution environment starting up...
(PID.TID 0000.0001) 
(PID.TID 0000.0001) // MITgcmUV version:  checkpoint57n_post
(PID.TID 0000.0001) // Build user:        jmc
(PID.TID 0000.0001) // Build host:        faulks
(PID.TID 0000.0001) // Build date:        Fri Jul 29 17:25:42 EDT 2005
(PID.TID 0000.0001) 
(PID.TID 0000.0001) // =======================================================
(PID.TID 0000.0001) // Execution Environment parameter file "eedata"
(PID.TID 0000.0001) // =======================================================
(PID.TID 0000.0001) ># Example "eedata" file
(PID.TID 0000.0001) ># Lines beginning "#" are comments
(PID.TID 0000.0001) ># nTx - No. threads per process in X
(PID.TID 0000.0001) ># nTy - No. threads per process in Y
(PID.TID 0000.0001) > &EEPARMS
(PID.TID 0000.0001) > nTx=1,nTy=1
(PID.TID 0000.0001) > &
(PID.TID 0000.0001) ># Note: Some systems use & as the
(PID.TID 0000.0001) ># namelist terminator. Other systems
(PID.TID 0000.0001) ># use a / character (as shown here).
(PID.TID 0000.0001) ># BUT some compilers do not understand "/"
(PID.TID 0000.0001) 
(PID.TID 0000.0001) // =======================================================
(PID.TID 0000.0001) // Computational Grid Specification ( see files "SIZE.h" )
(PID.TID 0000.0001) //                                  ( and "eedata"       )
(PID.TID 0000.0001) // =======================================================
(PID.TID 0000.0001)      nPx =    1 ; /* No. processes in X */
(PID.TID 0000.0001)      nPy =    1 ; /* No. processes in Y */
(PID.TID 0000.0001)      nSx =    1 ; /* No. tiles in X per process */
(PID.TID 0000.0001)      nSy =    2 ; /* No. tiles in Y per process */
(PID.TID 0000.0001)      sNx =   90 ; /* Tile size in X */
(PID.TID 0000.0001)      sNy =   20 ; /* Tile size in Y */
(PID.TID 0000.0001)      OLx =    2 ; /* Tile overlap distance in X */
(PID.TID 0000.0001)      OLy =    2 ; /* Tile overlap distance in Y */
(PID.TID 0000.0001)      nTx =    1 ; /* No. threads in X per process */
(PID.TID 0000.0001)      nTy =    1 ; /* No. threads in Y per process */
(PID.TID 0000.0001)       Nr =   15 ; /* No. levels in the vertical   */
(PID.TID 0000.0001)       nX =   90 ; /* Total domain size in X ( = nPx*nSx*sNx ) */
(PID.TID 0000.0001)       nY =   40 ; /* Total domain size in Y ( = nPy*nSy*sNy ) */
(PID.TID 0000.0001)   nTiles =    2 ; /* Total no. tiles per process ( = nSx*nSy ) */
(PID.TID 0000.0001)   nProcs =    1 ; /* Total no. processes ( = nPx*nPy ) */
(PID.TID 0000.0001) nThreads =    1 ; /* Total no. threads per process ( = nTx*nTy ) */
(PID.TID 0000.0001) usingMPI =    F ; /* Flag used to control whether MPI is in use */
(PID.TID 0000.0001)                   /*  note: To execute a program with MPI calls */
(PID.TID 0000.0001)                   /*  it must be launched appropriately e.g     */
(PID.TID 0000.0001)                   /*  "mpirun -np 64 ......"                    */
(PID.TID 0000.0001) useCoupler=   F ; /* Flag used to control communications with */
(PID.TID 0000.0001)                   /*  other model components, through a coupler */
(PID.TID 0000.0001) 
(PID.TID 0000.0001) // ======================================================
(PID.TID 0000.0001) // Mapping of tiles to threads
(PID.TID 0000.0001) // ======================================================
(PID.TID 0000.0001) // -o- Thread   1, tiles (   1:   1,   1:   2)
(PID.TID 0000.0001) 
(PID.TID 0000.0001) // ======================================================
(PID.TID 0000.0001) // Tile <-> Tile connectvity table
(PID.TID 0000.0001) // ======================================================
(PID.TID 0000.0001) // Tile number: 000001 (process no. = 000001)
(PID.TID 0000.0001) //        WEST: Tile = 000001, Process = 000001, Comm = put
(PID.TID 0000.0001) //                bi = 000001, bj = 000001
(PID.TID 0000.0001) //        EAST: Tile = 000001, Process = 000001, Comm = put
(PID.TID 0000.0001) //                bi = 000001, bj = 000001
(PID.TID 0000.0001) //       SOUTH: Tile = 000002, Process = 000001, Comm = put
(PID.TID 0000.0001) //                bi = 000001, bj = 000002
(PID.TID 0000.0001) //       NORTH: Tile = 000002, Process = 000001, Comm = put
(PID.TID 0000.0001) //                bi = 000001, bj = 000002
(PID.TID 0000.0001) // Tile number: 000002 (process no. = 000001)
(PID.TID 0000.0001) //        WEST: Tile = 000002, Process = 000001, Comm = put
(PID.TID 0000.0001) //                bi = 000001, bj = 000002
(PID.TID 0000.0001) //        EAST: Tile = 000002, Process = 000001, Comm = put
(PID.TID 0000.0001) //                bi = 000001, bj = 000002
(PID.TID 0000.0001) //       SOUTH: Tile = 000001, Process = 000001, Comm = put
(PID.TID 0000.0001) //                bi = 000001, bj = 000001
(PID.TID 0000.0001) //       NORTH: Tile = 000001, Process = 000001, Comm = put
(PID.TID 0000.0001) //                bi = 000001, bj = 000001
(PID.TID 0000.0001) 
(PID.TID 0000.0001) // =======================================================
(PID.TID 0000.0001) // Model parameter file "data"
(PID.TID 0000.0001) // =======================================================
(PID.TID 0000.0001) ># ====================
(PID.TID 0000.0001) ># | Model parameters |
(PID.TID 0000.0001) ># ====================
(PID.TID 0000.0001) >#
(PID.TID 0000.0001) ># Continuous equation parameters
(PID.TID 0000.0001) > &PARM01
(PID.TID 0000.0001) > tRef=15*20.,
(PID.TID 0000.0001) > sRef=15*35.,
(PID.TID 0000.0001) > viscAh =3.E5,
(PID.TID 0000.0001) > no_slip_sides=.TRUE.,
(PID.TID 0000.0001) > viscAr =1.721611620915750e5,
(PID.TID 0000.0001) >#viscAz =1.67E-3,
(PID.TID 0000.0001) > no_slip_bottom=.FALSE.,
(PID.TID 0000.0001) > diffKhT=1.E3,
(PID.TID 0000.0001) > diffKrT=5.154525811125000e3,
(PID.TID 0000.0001) >#diffKzT=0.5E-4,
(PID.TID 0000.0001) > diffKhS=1.E3,
(PID.TID 0000.0001) > diffKrS=5.154525811125000e3,
(PID.TID 0000.0001) >#diffKzS=0.5E-4,
(PID.TID 0000.0001) > implicitDiffusion=.TRUE.,
(PID.TID 0000.0001) > ivdc_kappa=1.030905162225000e9,
(PID.TID 0000.0001) >#ivdc_kappa=10.0,
(PID.TID 0000.0001) > gravity=9.81,
(PID.TID 0000.0001) > rhonil=1035.,
(PID.TID 0000.0001) > rhoConstFresh=999.8,
(PID.TID 0000.0001) > buoyancyRelation='OCEANICP',
(PID.TID 0000.0001) > integr_GeoPot=1,
(PID.TID 0000.0001) > eosType='JMD95P',
(PID.TID 0000.0001) > useNHMTerms=.TRUE.,
(PID.TID 0000.0001) > rigidLid=.FALSE.,
(PID.TID 0000.0001) > implicitFreeSurface=.TRUE.,
(PID.TID 0000.0001) > exactConserv=.TRUE.,
(PID.TID 0000.0001) > nonlinFreeSurf=4,
(PID.TID 0000.0001) > hFacInf=0.2,
(PID.TID 0000.0001) > hFacSup=2.0,
(PID.TID 0000.0001) >#useRealFreshWaterFlux=.TRUE.,
(PID.TID 0000.0001) > readBinaryPrec=64,
(PID.TID 0000.0001) > writeBinaryPrec=64,
(PID.TID 0000.0001) > cosPower=0.5,
(PID.TID 0000.0001) > &
(PID.TID 0000.0001) >
(PID.TID 0000.0001) ># Elliptic solver parameters
(PID.TID 0000.0001) > &PARM02
(PID.TID 0000.0001) > cg2dMaxIters=200,
(PID.TID 0000.0001) > cg2dTargetResidual=1.E-9,
(PID.TID 0000.0001) > &
(PID.TID 0000.0001) >
(PID.TID 0000.0001) ># Time stepping parameters
(PID.TID 0000.0001) > &PARM03
(PID.TID 0000.0001) > startTime =           0.,
(PID.TID 0000.0001) > endTime   =     3456000.,
(PID.TID 0000.0001) ># after 100 years of intergration, one gets a reasonable flow field
(PID.TID 0000.0001) >#endTime   = 3110400000.,
(PID.TID 0000.0001) > deltaTmom      =   1200.0,
(PID.TID 0000.0001) > deltaTtracer   = 172800.0,
(PID.TID 0000.0001) > deltaTfreesurf = 172800.0,
(PID.TID 0000.0001) > deltaTClock    = 172800.0,
(PID.TID 0000.0001) > pChkptFreq  = 3110400000.,
(PID.TID 0000.0001) > dumpFreq    = 3110400000.,
(PID.TID 0000.0001) > taveFreq    = 3110400000.,
(PID.TID 0000.0001) > monitorFreq =   1.,
(PID.TID 0000.0001) > periodicExternalForcing=.TRUE.,
(PID.TID 0000.0001) > externForcingPeriod=2592000.,
(PID.TID 0000.0001) > externForcingCycle=31104000.,
(PID.TID 0000.0001) > tauThetaClimRelax=5184000.0,
(PID.TID 0000.0001) > abEps=0.1,
(PID.TID 0000.0001) > &
(PID.TID 0000.0001) >
(PID.TID 0000.0001) ># Gridding parameters
(PID.TID 0000.0001) > &PARM04
(PID.TID 0000.0001) > usingCartesianGrid=.FALSE.,
(PID.TID 0000.0001) > usingSphericalPolarGrid=.TRUE.,
(PID.TID 0000.0001) > dXspacing=4.,
(PID.TID 0000.0001) > dYspacing=4.,
(PID.TID 0000.0001) > Ro_SeaLevel=53023122.566084,
(PID.TID 0000.0001) > groundAtK1=.TRUE.,
(PID.TID 0000.0001) > delR=7103300.720021, 6570548.440790, 6041670.010249,
(PID.TID 0000.0001) >      5516436.666057, 4994602.034410, 4475903.435290,
(PID.TID 0000.0001) >      3960063.245801, 3446790.312651, 2935781.405664,
(PID.TID 0000.0001) >      2426722.705046, 1919291.315988, 1413156.804970,
(PID.TID 0000.0001) >      1008846.750166,  705919.025481,  504089.693499,
(PID.TID 0000.0001) > phiMin=-80.,
(PID.TID 0000.0001) > &
(PID.TID 0000.0001) >
(PID.TID 0000.0001) ># Input datasets
(PID.TID 0000.0001) > &PARM05
(PID.TID 0000.0001) > topoFile       ='topog.bin',
(PID.TID 0000.0001) > pLoadFile      ='deltageopotjmd95.bin',
(PID.TID 0000.0001) > hydrogThetaFile='lev_t.bin',
(PID.TID 0000.0001) > hydrogSaltFile ='lev_s.bin',
(PID.TID 0000.0001) > zonalWindFile  ='trenberth_taux.bin',
(PID.TID 0000.0001) > meridWindFile  ='trenberth_tauy.bin',
(PID.TID 0000.0001) > thetaClimFile  ='lev_sst.bin',
(PID.TID 0000.0001) >#saltClimFile   ='lev_sss.bin',
(PID.TID 0000.0001) > surfQFile      ='shi_qnet.bin',
(PID.TID 0000.0001) > EmPmRFile      ='shi_empmr.bin',
(PID.TID 0000.0001) > &
(PID.TID 0000.0001) 
(PID.TID 0000.0001) S/R INI_PARMS ; starts to read PARM01
(PID.TID 0000.0001) S/R INI_PARMS ; read PARM01 : OK
(PID.TID 0000.0001) S/R INI_PARMS ; starts to read PARM02
(PID.TID 0000.0001) S/R INI_PARMS ; read PARM02 : OK
(PID.TID 0000.0001) S/R INI_PARMS ; starts to read PARM03
(PID.TID 0000.0001) S/R INI_PARMS ; read PARM03 : OK
(PID.TID 0000.0001) S/R INI_PARMS ; starts to read PARM04
(PID.TID 0000.0001) S/R INI_PARMS ; read PARM04 : OK
(PID.TID 0000.0001) S/R INI_PARMS ; starts to read PARM05
(PID.TID 0000.0001) S/R INI_PARMS ; read PARM05 : OK
(PID.TID 0000.0001)  PACKAGES_BOOT: opening data.pkg
(PID.TID 0000.0001)  OPEN_COPY_DATA_FILE: opening file data.pkg
(PID.TID 0000.0001) // =======================================================
(PID.TID 0000.0001) // Parameter file "data.pkg"
(PID.TID 0000.0001) // =======================================================
(PID.TID 0000.0001) ># Packages
(PID.TID 0000.0001) > &PACKAGES
(PID.TID 0000.0001) > &
(PID.TID 0000.0001) 
(PID.TID 0000.0001)  PACKAGES_BOOT: finished reading data.pkg
(PID.TID 0000.0001) %MON XC_max                       =   3.5800000000000E+02
(PID.TID 0000.0001) %MON XC_min                       =   2.0000000000000E+00
(PID.TID 0000.0001) %MON XC_mean                      =   1.8000000000000E+02
(PID.TID 0000.0001) %MON XC_sd                        =   1.0391663325314E+02
(PID.TID 0000.0001) %MON XG_max                       =   3.5600000000000E+02
(PID.TID 0000.0001) %MON XG_min                       =   4.0000000000000E+00
(PID.TID 0000.0001) %MON XG_mean                      =   1.8000000000000E+02
(PID.TID 0000.0001) %MON XG_sd                        =   1.0276186062932E+02
(PID.TID 0000.0001) %MON DXC_max                      =   4.4443898815675E+05
(PID.TID 0000.0001) %MON DXC_min                      =   9.2460385861875E+04
(PID.TID 0000.0001) %MON DXC_mean                     =   3.1372497618153E+05
(PID.TID 0000.0001) %MON DXC_sd                       =   1.1216447457560E+05
(PID.TID 0000.0001) %MON DXF_max                      =   4.4443898815675E+05
(PID.TID 0000.0001) %MON DXF_min                      =   9.2460385861875E+04
(PID.TID 0000.0001) %MON DXF_mean                     =   3.1372497618153E+05
(PID.TID 0000.0001) %MON DXF_sd                       =   1.1216447457560E+05
(PID.TID 0000.0001) %MON DXG_max                      =   4.4470989340816E+05
(PID.TID 0000.0001) %MON DXG_min                      =   7.7223062580781E+04
(PID.TID 0000.0001) %MON DXG_mean                     =   3.1353386340261E+05
(PID.TID 0000.0001) %MON DXG_sd                       =   1.1256651772502E+05
(PID.TID 0000.0001) %MON DXV_max                      =   4.4470989340816E+05
(PID.TID 0000.0001) %MON DXV_min                      =   7.7223062580781E+04
(PID.TID 0000.0001) %MON DXV_mean                     =   3.1353386340261E+05
(PID.TID 0000.0001) %MON DXV_sd                       =   1.1256651772502E+05
(PID.TID 0000.0001) %MON YC_max                       =   7.8000000000000E+01
(PID.TID 0000.0001) %MON YC_min                       =  -7.8000000000000E+01
(PID.TID 0000.0001) %MON YC_mean                      =   0.0000000000000E+00
(PID.TID 0000.0001) %MON YC_sd                        =   4.6173585522461E+01
(PID.TID 0000.0001) %MON YG_max                       =   7.6000000000000E+01
(PID.TID 0000.0001) %MON YG_min                       =  -8.0000000000000E+01
(PID.TID 0000.0001) %MON YG_mean                      =  -2.0512820512821E+00
(PID.TID 0000.0001) %MON YG_sd                        =   4.6760682979564E+01
(PID.TID 0000.0001) %MON DYC_max                      =   4.4470989340816E+05
(PID.TID 0000.0001) %MON DYC_min                      =   4.4470989340816E+05
(PID.TID 0000.0001) %MON DYC_mean                     =   4.4470989340817E+05
(PID.TID 0000.0001) %MON DYC_sd                       =   1.4668330550194E-08
(PID.TID 0000.0001) %MON DYF_max                      =   4.4470989340816E+05
(PID.TID 0000.0001) %MON DYF_min                      =   4.4470989340816E+05
(PID.TID 0000.0001) %MON DYF_mean                     =   4.4470989340817E+05
(PID.TID 0000.0001) %MON DYF_sd                       =   1.4668330550194E-08
(PID.TID 0000.0001) %MON DYG_max                      =   4.4470989340816E+05
(PID.TID 0000.0001) %MON DYG_min                      =   4.4470989340816E+05
(PID.TID 0000.0001) %MON DYG_mean                     =   4.4470989340817E+05
(PID.TID 0000.0001) %MON DYG_sd                       =   1.4668330550194E-08
(PID.TID 0000.0001) %MON DYU_max                      =   4.4470989340816E+05
(PID.TID 0000.0001) %MON DYU_min                      =   4.4470989340816E+05
(PID.TID 0000.0001) %MON DYU_mean                     =   4.4470989340817E+05
(PID.TID 0000.0001) %MON DYU_sd                       =   1.4668330550194E-08
(PID.TID 0000.0001) %MON RA_max                       =   1.9760627980089E+11
(PID.TID 0000.0001) %MON RA_min                       =   4.1109698667290E+10
(PID.TID 0000.0001) %MON RA_mean                      =   1.3948826965196E+11
(PID.TID 0000.0001) %MON RA_sd                        =   4.9870522472901E+10
(PID.TID 0000.0001) %MON RAW_max                      =   1.9760627980089E+11
(PID.TID 0000.0001) %MON RAW_min                      =   4.1109698667290E+10
(PID.TID 0000.0001) %MON RAW_mean                     =   1.3948826965196E+11
(PID.TID 0000.0001) %MON RAW_sd                       =   4.9870522472901E+10
(PID.TID 0000.0001) %MON RAS_max                      =   1.9772672958215E+11
(PID.TID 0000.0001) %MON RAS_min                      =   3.4334886267983E+10
(PID.TID 0000.0001) %MON RAS_mean                     =   1.3940329716694E+11
(PID.TID 0000.0001) %MON RAS_sd                       =   5.0049278732353E+10
(PID.TID 0000.0001) %MON RAZ_max                      =   1.9772672958215E+11
(PID.TID 0000.0001) %MON RAZ_min                      =   3.4334886267983E+10
(PID.TID 0000.0001) %MON RAZ_mean                     =   1.3940329716694E+11
(PID.TID 0000.0001) %MON RAZ_sd                       =   5.0049278732353E+10
(PID.TID 0000.0001) %MON AngleCS_max                  =   1.0000000000000E+00
(PID.TID 0000.0001) %MON AngleCS_min                  =   1.0000000000000E+00
(PID.TID 0000.0001) %MON AngleCS_mean                 =   1.0000000000000E+00
(PID.TID 0000.0001) %MON AngleCS_sd                   =   0.0000000000000E+00
(PID.TID 0000.0001) %MON AngleSN_max                  =   0.0000000000000E+00
(PID.TID 0000.0001) %MON AngleSN_min                  =   0.0000000000000E+00
(PID.TID 0000.0001) %MON AngleSN_mean                 =   0.0000000000000E+00
(PID.TID 0000.0001) %MON AngleSN_sd                   =   0.0000000000000E+00
(PID.TID 0000.0001)  MDSREADFIELD: opening global file: topog.bin
(PID.TID 0000.0001) // =======================================================
(PID.TID 0000.0001) // Field Model R_low (ini_masks_etc) at iteration          1
(PID.TID 0000.0001) // CMIN =          1.008622348308563E-06
(PID.TID 0000.0001) // CMAX =          1.008622348308563E-06
(PID.TID 0000.0001) // CINT =          0.000000000000000E+00
(PID.TID 0000.0001) // SYMBOLS (CMIN->CMAX): -abcdefghijklmnopqrstuvwxyz+
(PID.TID 0000.0001) //                  0.0: .
(PID.TID 0000.0001) // RANGE I (Lo:Hi:Step):(  -1:  92:   1)
(PID.TID 0000.0001) // RANGE J (Lo:Hi:Step):(  42:  -1:  -1)
(PID.TID 0000.0001) // RANGE K (Lo:Hi:Step):(   1:   1:   1)
(PID.TID 0000.0001) // =======================================================
(PID.TID 0000.0001) // =======================================================
(PID.TID 0000.0001) // END OF FIELD                                          =
(PID.TID 0000.0001) // =======================================================
(PID.TID 0000.0001) 
(PID.TID 0000.0001) // =======================================================
(PID.TID 0000.0001) // Field Model Ro_surf (ini_masks_etc) at iteration          1
(PID.TID 0000.0001) // CMIN =          1.008622348308563E-06
(PID.TID 0000.0001) // CMAX =          5.302312256608400E+07
(PID.TID 0000.0001) // CINT =          1.963819354299370E+06
(PID.TID 0000.0001) // SYMBOLS (CMIN->CMAX): -abcdefghijklmnopqrstuvwxyz+
(PID.TID 0000.0001) //                  0.0: .
(PID.TID 0000.0001) // RANGE I (Lo:Hi:Step):(  -1:  92:   1)
(PID.TID 0000.0001) // RANGE J (Lo:Hi:Step):(  42:  -1:  -1)
(PID.TID 0000.0001) // RANGE K (Lo:Hi:Step):(   1:   1:   1)
(PID.TID 0000.0001) // =======================================================
(PID.TID 0000.0001) K =   1
(PID.TID 0000.0001) //                I=8       I=18      I=28      I=38      I=48      I=58      I=68      I=78      I=88
(PID.TID 0000.0001) // |--J--|*01234567|901234567|901234567|901234567|901234567|901234567|901234567|901234567|901234567|9012
(PID.TID 0000.0001) //     42 --------------------------------------------bbcdnttwwwttttqnnlfddc--abcc-----ccbcltttttba-----
(PID.TID 0000.0001) //     41 ----------------------------------------------------------------------------------------------
(PID.TID 0000.0001) //     40 innllaa-aaaaaaaaaaaaa------------------------------------------------------------------aaainnl
(PID.TID 0000.0001) //     39 gnnllibbaaaaaaaa---aa-----------------------------------------------------bdda--------abffgnnl
(PID.TID 0000.0001) //     38 nllllibbaaaaaaa-----------------------------------------------------------bddca------bccfgnlll
(PID.TID 0000.0001) //     37 nnnga------------------------------------------------------------------aa---bca---bggc--agnnng
(PID.TID 0000.0001) //     36 fgga-----------------------------------------nnaa--------------------aaaaaaabnnn-bllfggffcfgga
(PID.TID 0000.0001) //     35 aaaa---------------------------------aaaa--iinnqqa---atttn-----------aaa----annqqqnglllgddaaaa
(PID.TID 0000.0001) //     34 -------------------------------------affc-tticcfab-wwwttttn------------------anqttqqqtttna----
(PID.TID 0000.0001) //     33 a-------------------------------------ffa+++t+++++++++wwwtqna-----------------aifwwtnttttda---
(PID.TID 0000.0001) //     32 a-------------------------------------ag++++t++++++++++wwttnn----------------aaatwttqltttna---
(PID.TID 0000.0001) //     31 --------------------------------------++++++w++++++++++wwwtqn--------------iw++twwwtiltwwn----
(PID.TID 0000.0001) //     30 -------------------------------------t++++w++w+++++++++++++ww------------at++++twwwlgqtwwq----
(PID.TID 0000.0001) //     29 -----------------------------------gf++++t+++tqt+++++++++++wwt-----------w++w+++wtnqq++wtq----
(PID.TID 0000.0001) //     28 ---------------------------------actn+++++++++++++++++++wwwwwtq---------iw++++++wntww++wqa----
(PID.TID 0000.0001) //     27 ----------------cc--------------aftttlt++++++++w+nnw+++wwwwwwttt---aaac-iw++++++qt+++++t------
(PID.TID 0000.0001) //     26 ----------------cnn-----------afw+++wl+++++++++++qwtn++++++wwtttqg-aa-ii-c++++++tw++++wq------
(PID.TID 0000.0001) //     25 ----------------qttq---lla---atfw+++wl+++ww++qqtnt+++++++++wwtttqnn---iifnac+++wqw++wwqq------
(PID.TID 0000.0001) //     24 --------------cntwwtg-qqqa---ftt-++twn+++++++++++++++++++wwwwwttqnqqqf-afnnddwwwtw++++wt------
(PID.TID 0000.0001) //     23 --------------dttwwtl-ttqd---fff--tqtq++++ttw+++++w++++++wwwwwttqqqqqql----bbqwwwt++++ww------
(PID.TID 0000.0001) //     22 gii-----------wwwqttgnttqq---bb-dlqwwlltwwwwt++++++wt+w++wwwwwwtttqqqqii------dwwwttwwtwwigii-
(PID.TID 0000.0001) //     21 ++wqi--------nwwwwqtiwwwqqb-----dltwwqtttnwwt++++++wqwwwwwwwwwttttqnnill--------twwtqttwww++wq
(PID.TID 0000.0001) //     20 ++wwi-------nwwwwwtqwwwwqww------b-fqqqgiltttt+++++++wwwwwwwwwwtttqttqqn---------ntt+++ttw++ww
(PID.TID 0000.0001) //     19 ww++t-------qwwlittl+++qwwwwd---aba-----iannww++++t++++wwwwwwwwttqtttttt-----------w+++wqtww++
(PID.TID 0000.0001) //     22 gii-----------wwwqttgnttqq---bb-dlqwwlltwwwwt++++++wt+w++wwwwwwtttqqqqii------dwwwttwwtwwigii-
(PID.TID 0000.0001) //     21 ++wqi--------nwwwwqtiwwwqqb-----dltwwqtttnwwt++++++wqwwwwwwwwwttttqnnill--------twwtqttwww++wq
(PID.TID 0000.0001) //     20 ++wwi-------nwwwwwtqwwwwqww------b-fqqqgiltttt+++++++wwwwwwwwwwtttqttqqn---------ntt+++ttw++ww
(PID.TID 0000.0001) //     19 ww++t-------qwwlittl+++qwwwwd---aba-----iannww++++t++++wwwwwwwwttqtttttt-----------w+++wqtww++
(PID.TID 0000.0001) //     18 w+++w-------qtnttfqq+++qwww++w+qfaa---iiblntwwwwtwtq+++wwtwwwwwtqtttttwwa----------w+++wqtw+++
(PID.TID 0000.0001) //     17 w+++w-------q-twwdqt+++l+++++++qf-----iilnninnnltwww++wwwttttttnqttqtwwwq---------tw+++wqtw+++
(PID.TID 0000.0001) //     16 w+++w------gn-wwtnntw++i++++++nf-------flnnfnnndf+++wwqflnttttqntttttwwwqt--------it+++wqtw+++
(PID.TID 0000.0001) //     15 w++wlb----aqq-wwwttnwwwnw+++++f---------lggdllnf++++wwwwwtqtttqqtttttwwqttt------atw+++wqtw++w
(PID.TID 0000.0001) //     14 w++nwn----dwwi+++tqqqtwnw++w+tb---------ttgglttg++++++wwtwttqqqnqttqqqqtttt-----aqtw+++wntw++n
(PID.TID 0000.0001) //     13 wwn++t----nwwl+++qwwtqttliiw++n---------wwggittg++++++++wwwtttqqnqqttqttttl----aqttlwwwtntwwn+
(PID.TID 0000.0001) //     12 tt+++wdaqttwwnwntwwwtntqttww++wt+++a----wwigiilw+++++++++wwqtttqqqqqtttttt-----qwwwwttttnttt++
(PID.TID 0000.0001) //     11 tw+++w++qtwwwnnt++wwtlttttwww++++++++--wwwwng-nw+w+++++++++wwwtqntttqqtttt----n+++++wwtqnqtw++
(PID.TID 0000.0001) //     10 tw++ww+w++wtiqqt++wwtqnnnqttwwww+++++w-wwwwtd-nbiw+++++++++wwwtqnttwwttqtq--ad++++++wwttnqtw++
(PID.TID 0000.0001) //      9 ttwwwww+++llglntwtwtqqqttnnnttwwwwwwwwnwwwwt-fbt+++++++++++wwwtnqttwwwttqf-aad++++++wwwtqnttww
(PID.TID 0000.0001) //      8 tttqqqw++twwttwwwwfblqttttttnqqqttqqqtwtwwticfw++++++wwwwwwwttqnttwwwwwwta-aacttn++wtwwwtntttq
(PID.TID 0000.0001) //      7 ninnwwqqt++wnw++wwtgcqtwwwttwwwwwwwttnttwwntw++++++wwwwtttqtqnnttwww+++wwt-aaaintgfqtqwwwtninn
(PID.TID 0000.0001) //      6 w++++++++++++++++wwwnggwwwwwwwwwwwwwwtqqqqttw++++wwwtqnnqnwtww+++w+w+++wwwtqqqqtilnniwtqtww+++
(PID.TID 0000.0001) //      5 +++++++++++++++++wwwttttwwwwwwwwwwwwwtqqqlnlwwwwtttnnnqtwwww++++++++w+wwwwtqqqgitwwwwww+++++++
(PID.TID 0000.0001) //      4 ++tw++++++wwwqttttqqqttqqlbdnnllqqlnqqqqqnnnlnqlnnntttwwwwww+++++++wwwwwttnb--cqtwwwwww+++++tw
(PID.TID 0000.0001) //      3 ttttilqqqdcc----------------------------cclgnqqqqttwwwwwwwwwtttttwwwwttqqbb--ciqtwwwwwwwwttttt
(PID.TID 0000.0001) //      2 --------------------------------------------bbcdnttwwwttttqnnlfddc--abcc-----ccbcltttttba-----
(PID.TID 0000.0001) //      1 ----------------------------------------------------------------------------------------------
(PID.TID 0000.0001) //      0 innllaa-aaaaaaaaaaaaa------------------------------------------------------------------aaainnl
(PID.TID 0000.0001) //     -1 gnnllibbaaaaaaaa---aa-----------------------------------------------------bdda--------abffgnnl
(PID.TID 0000.0001) // =======================================================
(PID.TID 0000.0001) // END OF FIELD                                          =
(PID.TID 0000.0001) // =======================================================
(PID.TID 0000.0001) 
(PID.TID 0000.0001) // =======================================================
(PID.TID 0000.0001) // Field hFacC at iteration          1
(PID.TID 0000.0001) // CMIN =          1.000000000000000E+00
(PID.TID 0000.0001) // CMAX =          1.000000000000000E+00
(PID.TID 0000.0001) // CINT =          0.000000000000000E+00
(PID.TID 0000.0001) // SYMBOLS (CMIN->CMAX): -abcdefghijklmnopqrstuvwxyz+
(PID.TID 0000.0001) //                  0.0: .
(PID.TID 0000.0001) // RANGE I (Lo:Hi:Step):(  -1:  92:   1)
(PID.TID 0000.0001) // RANGE J (Lo:Hi:Step):(  42:  -1:  -1)
(PID.TID 0000.0001) // RANGE K (Lo:Hi:Step):(   1:   1:   1)
(PID.TID 0000.0001) // =======================================================
(PID.TID 0000.0001) // =======================================================
(PID.TID 0000.0001) // END OF FIELD                                          =
(PID.TID 0000.0001) // =======================================================
(PID.TID 0000.0001) 
(PID.TID 0000.0001) // =======================================================
(PID.TID 0000.0001) // Field hFacW at iteration          1
(PID.TID 0000.0001) // CMIN =          1.000000000000000E+00
(PID.TID 0000.0001) // CMAX =          1.000000000000000E+00
(PID.TID 0000.0001) // CINT =          0.000000000000000E+00
(PID.TID 0000.0001) // SYMBOLS (CMIN->CMAX): -abcdefghijklmnopqrstuvwxyz+
(PID.TID 0000.0001) //                  0.0: .
(PID.TID 0000.0001) // RANGE I (Lo:Hi:Step):(  -1:  92:   1)
(PID.TID 0000.0001) // RANGE J (Lo:Hi:Step):(  42:  -1:  -1)
(PID.TID 0000.0001) // RANGE K (Lo:Hi:Step):(   1:   1:   1)
(PID.TID 0000.0001) // =======================================================
(PID.TID 0000.0001) // =======================================================
(PID.TID 0000.0001) // END OF FIELD                                          =
(PID.TID 0000.0001) // =======================================================
(PID.TID 0000.0001) 
(PID.TID 0000.0001) // =======================================================
(PID.TID 0000.0001) // Field hFacS at iteration          1
(PID.TID 0000.0001) // CMIN =          1.000000000000000E+00
(PID.TID 0000.0001) // CMAX =          1.000000000000000E+00
(PID.TID 0000.0001) // CINT =          0.000000000000000E+00
(PID.TID 0000.0001) // SYMBOLS (CMIN->CMAX): -abcdefghijklmnopqrstuvwxyz+
(PID.TID 0000.0001) //                  0.0: .
(PID.TID 0000.0001) // RANGE I (Lo:Hi:Step):(  -1:  92:   1)
(PID.TID 0000.0001) // RANGE J (Lo:Hi:Step):(  42:  -1:  -1)
(PID.TID 0000.0001) // RANGE K (Lo:Hi:Step):(   1:   1:   1)
(PID.TID 0000.0001) // =======================================================
(PID.TID 0000.0001) // =======================================================
(PID.TID 0000.0001) // END OF FIELD                                          =
(PID.TID 0000.0001) // =======================================================
(PID.TID 0000.0001) 
(PID.TID 0000.0001) 
(PID.TID 0000.0001) // ===================================
(PID.TID 0000.0001) // GAD parameters :
(PID.TID 0000.0001) // ===================================
(PID.TID 0000.0001) tempAdvScheme =   /* Temp. Horiz.Advection scheme selector */
(PID.TID 0000.0001)                       2
(PID.TID 0000.0001)     ;
(PID.TID 0000.0001) tempVertAdvScheme =   /* Temp. Vert. Advection scheme selector */
(PID.TID 0000.0001)                       2
(PID.TID 0000.0001)     ;
(PID.TID 0000.0001) tempMultiDimAdvec =   /* use Muti-Dim Advec method for Temp */
(PID.TID 0000.0001)                   F
(PID.TID 0000.0001)     ;
(PID.TID 0000.0001) tempAdamsBashforth =   /* use Adams-Bashforth time-stepping for Temp */
(PID.TID 0000.0001)                   T
(PID.TID 0000.0001)     ;
(PID.TID 0000.0001) saltAdvScheme =   /* Salt. Horiz.advection scheme selector */
(PID.TID 0000.0001)                       2
(PID.TID 0000.0001)     ;
(PID.TID 0000.0001) saltVertAdvScheme =   /* Salt. Vert. Advection scheme selector */
(PID.TID 0000.0001)                       2
(PID.TID 0000.0001)     ;
(PID.TID 0000.0001) saltMultiDimAdvec =   /* use Muti-Dim Advec method for Salt */
(PID.TID 0000.0001)                   F
(PID.TID 0000.0001)     ;
(PID.TID 0000.0001) saltAdamsBashforth =   /* use Adams-Bashforth time-stepping for Salt */
(PID.TID 0000.0001)                   T
(PID.TID 0000.0001)     ;
(PID.TID 0000.0001) // ===================================
(PID.TID 0000.0001) %MON fCori_max                    =   1.4226580169407E-04
(PID.TID 0000.0001) %MON fCori_min                    =  -1.4226580169407E-04
(PID.TID 0000.0001) %MON fCori_mean                   =  -2.6213599192538E-19
(PID.TID 0000.0001) %MON fCori_sd                     =   9.6335367303779E-05
(PID.TID 0000.0001) %MON fCoriG_max                   =   1.4112379284621E-04
(PID.TID 0000.0001) %MON fCoriG_min                   =  -1.4323448157692E-04
(PID.TID 0000.0001) %MON fCoriG_mean                  =  -3.6726790147922E-06
(PID.TID 0000.0001) %MON fCoriG_sd                    =   9.7510077443651E-05
(PID.TID 0000.0001) %MON fCoriCos_max                 =   1.4535550371427E-04
(PID.TID 0000.0001) %MON fCoriCos_min                 =   3.0239529651320E-05
(PID.TID 0000.0001) %MON fCoriCos_mean                =   1.0260497651149E-04
(PID.TID 0000.0001) %MON fCoriCos_sd                  =   3.6683828681187E-05
(PID.TID 0000.0001) INI_CG2D: CG2D normalisation factor =  6.0025789459946987E-09
(PID.TID 0000.0001) 
(PID.TID 0000.0001) CONFIG_CHECK: OK
(PID.TID 0000.0001) // =======================================================
(PID.TID 0000.0001) // Model configuration
(PID.TID 0000.0001) // =======================================================
(PID.TID 0000.0001) //
(PID.TID 0000.0001) // "Physical" paramters ( PARM01 in namelist )
(PID.TID 0000.0001) //
(PID.TID 0000.0001) buoyancyRelation = OCEANICP
(PID.TID 0000.0001) fluidIsAir  =  /* fluid major constituent is Air */
(PID.TID 0000.0001)                   F
(PID.TID 0000.0001)     ;
(PID.TID 0000.0001) fluidIsWater=  /* fuild major constituent is Water */
(PID.TID 0000.0001)                   T
(PID.TID 0000.0001)     ;
(PID.TID 0000.0001) usingPCoords =  /* use p (or p*) vertical coordinate */
(PID.TID 0000.0001)                   T
(PID.TID 0000.0001)     ;
(PID.TID 0000.0001) usingZCoords =  /* use z (or z*) vertical coordinate */
(PID.TID 0000.0001)                   F
(PID.TID 0000.0001)     ;
(PID.TID 0000.0001) tRef =   /* Reference temperature profile ( oC or oK ) */
(PID.TID 0000.0001)    15 @  2.000000000000000E+01              /* K =  1: 15 */
(PID.TID 0000.0001)     ;
(PID.TID 0000.0001) sRef =   /* Reference salinity profile ( ppt ) */
(PID.TID 0000.0001)    15 @  3.500000000000000E+01              /* K =  1: 15 */
(PID.TID 0000.0001)     ;
(PID.TID 0000.0001) viscAh =   /* Lateral eddy viscosity ( m^2/s ) */
(PID.TID 0000.0001)                 3.000000000000000E+05
(PID.TID 0000.0001)     ;
(PID.TID 0000.0001) viscAhMax =   /* Maximum lateral eddy viscosity ( m^2/s ) */
(PID.TID 0000.0001)                 1.000000000000000E+21
(PID.TID 0000.0001)     ;
(PID.TID 0000.0001) viscAhGrid =   /* Grid dependent lateral eddy viscosity ( non-dim. ) */
(PID.TID 0000.0001)                 0.000000000000000E+00
(PID.TID 0000.0001)     ;
(PID.TID 0000.0001) useFullLeith =   /* Use Full Form of Leith Viscosity on/off flag*/
(PID.TID 0000.0001)                   F
(PID.TID 0000.0001)     ;
(PID.TID 0000.0001) viscC2leith = /* Leith harmonic viscosity factor (on grad(vort),non-dim.) */
(PID.TID 0000.0001)                 0.000000000000000E+00
(PID.TID 0000.0001)     ;
(PID.TID 0000.0001) viscC2leithD = /* Leith harmonic viscosity factor (on grad(div),non-dim.) */
(PID.TID 0000.0001)                 0.000000000000000E+00
(PID.TID 0000.0001)     ;
(PID.TID 0000.0001) viscC2smag =   /* Smagorinsky harmonic viscosity factor (non-dim.) */
(PID.TID 0000.0001)                 0.000000000000000E+00
(PID.TID 0000.0001)     ;
(PID.TID 0000.0001) viscA4 =   /* Lateral biharmonic viscosity ( m^4/s ) */
(PID.TID 0000.0001)                 0.000000000000000E+00
(PID.TID 0000.0001)     ;
(PID.TID 0000.0001) viscA4Max =   /* Maximum biharmonic viscosity ( m^2/s ) */
(PID.TID 0000.0001)                 1.000000000000000E+21
(PID.TID 0000.0001)     ;
(PID.TID 0000.0001) viscA4Grid =   /* Grid dependent biharmonic viscosity ( non-dim. ) */
(PID.TID 0000.0001)                 0.000000000000000E+00
(PID.TID 0000.0001)     ;
(PID.TID 0000.0001) viscC4leith = /* Leith biharm viscosity factor (on grad(vort), non-dim.) */
(PID.TID 0000.0001)                 0.000000000000000E+00
(PID.TID 0000.0001)     ;
(PID.TID 0000.0001) viscC4leithD = /* Leith biharm viscosity factor (on grad(div), non-dim.) */
(PID.TID 0000.0001)                 0.000000000000000E+00
(PID.TID 0000.0001)     ;
(PID.TID 0000.0001) no_slip_sides =  /* Viscous BCs: No-slip sides */
(PID.TID 0000.0001)                   T
(PID.TID 0000.0001)     ;
(PID.TID 0000.0001) viscAr =   /* Vertical eddy viscosity ( units of r^2/s ) */
(PID.TID 0000.0001)                 1.721611620915750E+05
(PID.TID 0000.0001)     ;
(PID.TID 0000.0001) no_slip_bottom =  /* Viscous BCs: No-slip bottom */
(PID.TID 0000.0001)                   F
(PID.TID 0000.0001)     ;
(PID.TID 0000.0001) diffKhT =   /* Laplacian diffusion of heat laterally ( m^2/s ) */
(PID.TID 0000.0001)                 1.000000000000000E+03
(PID.TID 0000.0001)     ;
(PID.TID 0000.0001) diffK4T =   /* Bihaarmonic diffusion of heat laterally ( m^4/s ) */
(PID.TID 0000.0001)                 0.000000000000000E+00
(PID.TID 0000.0001)     ;
(PID.TID 0000.0001) diffKhS =   /* Laplacian diffusion of salt laterally ( m^2/s ) */
(PID.TID 0000.0001)                 1.000000000000000E+03
(PID.TID 0000.0001)     ;
(PID.TID 0000.0001) diffK4S =   /* Bihaarmonic diffusion of salt laterally ( m^4/s ) */
(PID.TID 0000.0001)                 0.000000000000000E+00
(PID.TID 0000.0001)     ;
(PID.TID 0000.0001) diffKrNrT = /* vertical profile of vertical diffusion of Temp ( m^2/s )*/
(PID.TID 0000.0001)    15 @  5.154525811125000E+03              /* K =  1: 15 */
(PID.TID 0000.0001)     ;
(PID.TID 0000.0001) diffKrNrS = /* vertical profile of vertical diffusion of Salt ( m^2/s )*/
(PID.TID 0000.0001)    15 @  5.154525811125000E+03              /* K =  1: 15 */
(PID.TID 0000.0001)     ;
(PID.TID 0000.0001) diffKrBL79surf =   /* Surface diffusion for Bryan and Lewis 1979 ( m^2/s ) */
(PID.TID 0000.0001)                 0.000000000000000E+00
(PID.TID 0000.0001)     ;
(PID.TID 0000.0001) diffKrBL79deep =   /* Deep diffusion for Bryan and Lewis 1979 ( m^2/s ) */
(PID.TID 0000.0001)                 0.000000000000000E+00
(PID.TID 0000.0001)     ;
(PID.TID 0000.0001) diffKrBL79scl =   /* Depth scale for Bryan and Lewis 1979 ( m ) */
(PID.TID 0000.0001)                 2.000000000000000E+02
(PID.TID 0000.0001)     ;
(PID.TID 0000.0001) diffKrBL79Ho =   /* Turning depth for Bryan and Lewis 1979 ( m ) */
(PID.TID 0000.0001)                -2.000000000000000E+03
(PID.TID 0000.0001)     ;
(PID.TID 0000.0001)  Equation of State : eosType = JMD95P
(PID.TID 0000.0001) tAlpha =   /* Linear EOS thermal expansion coefficient ( 1/degree ) */
(PID.TID 0000.0001)                 1.234567000000000E+05
(PID.TID 0000.0001)     ;
(PID.TID 0000.0001) sBeta =   /* Linear EOS haline contraction coefficient ( 1/ppt ) */
(PID.TID 0000.0001)                 1.234567000000000E+05
(PID.TID 0000.0001)     ;
(PID.TID 0000.0001) rhonil =   /* Reference density ( kg/m^3 ) */
(PID.TID 0000.0001)                 1.035000000000000E+03
(PID.TID 0000.0001)     ;
(PID.TID 0000.0001) rhoConst =   /* Reference density ( kg/m^3 ) */
(PID.TID 0000.0001)                 1.035000000000000E+03
(PID.TID 0000.0001)     ;
(PID.TID 0000.0001) rhoConstFresh =   /* Reference density ( kg/m^3 ) */
(PID.TID 0000.0001)                 9.998000000000000E+02
(PID.TID 0000.0001)     ;
(PID.TID 0000.0001) gravity =   /* Gravitational acceleration ( m/s^2 ) */
(PID.TID 0000.0001)                 9.810000000000000E+00
(PID.TID 0000.0001)     ;
(PID.TID 0000.0001) gBaro =   /* Barotropic gravity ( m/s^2 ) */
(PID.TID 0000.0001)                 9.810000000000000E+00
(PID.TID 0000.0001)     ;
(PID.TID 0000.0001) rotationPeriod =   /* Rotation Period ( s ) */
(PID.TID 0000.0001)                 8.640000000000000E+04
(PID.TID 0000.0001)     ;
(PID.TID 0000.0001) omega =   /* Angular velocity ( rad/s ) */
(PID.TID 0000.0001)                 7.272205216643040E-05
(PID.TID 0000.0001)     ;
(PID.TID 0000.0001) f0 =   /* Reference coriolis parameter ( 1/s ) */
(PID.TID 0000.0001)                 1.000000000000000E-04
(PID.TID 0000.0001)     ;
(PID.TID 0000.0001) beta =   /* Beta ( 1/(m.s) ) */
(PID.TID 0000.0001)                 9.999999999999999E-12
(PID.TID 0000.0001)     ;
(PID.TID 0000.0001) freeSurfFac =   /* Implicit free surface factor */
(PID.TID 0000.0001)                 1.000000000000000E+00
(PID.TID 0000.0001)     ;
(PID.TID 0000.0001) implicitFreeSurface =   /* Implicit free surface on/off flag */
(PID.TID 0000.0001)                   T
(PID.TID 0000.0001)     ;
(PID.TID 0000.0001) rigidLid =   /* Rigid lid on/off flag */
(PID.TID 0000.0001)                   F
(PID.TID 0000.0001)     ;
(PID.TID 0000.0001) implicSurfPress =   /* Surface Pressure implicit factor (0-1)*/
(PID.TID 0000.0001)                 1.000000000000000E+00
(PID.TID 0000.0001)     ;
(PID.TID 0000.0001) implicDiv2Dflow =   /* Barot. Flow Div. implicit factor (0-1)*/
(PID.TID 0000.0001)                 1.000000000000000E+00
(PID.TID 0000.0001)     ;
(PID.TID 0000.0001) exactConserv =   /* Exact Volume Conservation on/off flag*/
(PID.TID 0000.0001)                   T
(PID.TID 0000.0001)     ;
(PID.TID 0000.0001) uniformLin_PhiSurf =   /* use uniform Bo_surf on/off flag*/
(PID.TID 0000.0001)                   T
(PID.TID 0000.0001)     ;
(PID.TID 0000.0001) nonlinFreeSurf =   /* Non-linear Free Surf. options (-1,0,1,2,3)*/
(PID.TID 0000.0001)                       4
(PID.TID 0000.0001)     ;
(PID.TID 0000.0001)      -1,0= Off ; 1,2,3= On, 2=+rescale gU,gV, 3=+update cg2d solv.
(PID.TID 0000.0001) hFacInf =   /* lower threshold for hFac (nonlinFreeSurf only)*/
(PID.TID 0000.0001)                 2.000000000000000E-01
(PID.TID 0000.0001)     ;
(PID.TID 0000.0001) hFacSup =   /* upper threshold for hFac (nonlinFreeSurf only)*/
(PID.TID 0000.0001)                 2.000000000000000E+00
(PID.TID 0000.0001)     ;
(PID.TID 0000.0001) select_rStar =   /* r* Coordinate options (not yet implemented)*/
(PID.TID 0000.0001)                       0
(PID.TID 0000.0001)     ;
(PID.TID 0000.0001) useRealFreshWaterFlux =   /* Real Fresh Water Flux on/off flag*/
(PID.TID 0000.0001)                   F
(PID.TID 0000.0001)     ;
(PID.TID 0000.0001) convertFW2Salt = /* convert F.W. Flux to Salt Flux (-1=use local S)(ppt)*/
(PID.TID 0000.0001)                 3.500000000000000E+01
(PID.TID 0000.0001)     ;
(PID.TID 0000.0001) nonHydrostatic =  /* Non-Hydrostatic on/off flag */
(PID.TID 0000.0001)                   F
(PID.TID 0000.0001)     ;
(PID.TID 0000.0001) momStepping =  /* Momentum equation on/off flag */
(PID.TID 0000.0001)                   T
(PID.TID 0000.0001)     ;
(PID.TID 0000.0001) momAdvection =  /* Momentum advection on/off flag */
(PID.TID 0000.0001)                   T
(PID.TID 0000.0001)     ;
(PID.TID 0000.0001) momViscosity =  /* Momentum viscosity on/off flag */
(PID.TID 0000.0001)                   T
(PID.TID 0000.0001)     ;
(PID.TID 0000.0001) momImplVertAdv =/* Momentum implicit vert. advection on/off*/
(PID.TID 0000.0001)                   F
(PID.TID 0000.0001)     ;
(PID.TID 0000.0001) implicitViscosity = /* Implicit viscosity on/off flag */
(PID.TID 0000.0001)                   F
(PID.TID 0000.0001)     ;
(PID.TID 0000.0001) useCoriolis =  /* Coriolis on/off flag */
(PID.TID 0000.0001)                   T
(PID.TID 0000.0001)     ;
(PID.TID 0000.0001) useCDscheme =  /* CD scheme on/off flag */
(PID.TID 0000.0001)                   F
(PID.TID 0000.0001)     ;
(PID.TID 0000.0001) useJamartWetPoints= /* Coriolis WetPoints method flag */
(PID.TID 0000.0001)                   F
(PID.TID 0000.0001)     ;
(PID.TID 0000.0001) useJamartMomAdv= /* V.I. Non-linear terms Jamart flag */
(PID.TID 0000.0001)                   F
(PID.TID 0000.0001)     ;
(PID.TID 0000.0001) SadournyCoriolis= /* Sadourny Coriolis discr. flag */
(PID.TID 0000.0001)                   F
(PID.TID 0000.0001)     ;
(PID.TID 0000.0001) upwindVorticity= /* Upwind bias vorticity flag */
(PID.TID 0000.0001)                   F
(PID.TID 0000.0001)     ;
(PID.TID 0000.0001) useAbsVorticity= /* Work with f+zeta in Coriolis */
(PID.TID 0000.0001)                   F
(PID.TID 0000.0001)     ;
(PID.TID 0000.0001) highOrderVorticity= /* High order interp. of vort. flag */
(PID.TID 0000.0001)                   F
(PID.TID 0000.0001)     ;
(PID.TID 0000.0001) upwindShear= /* Upwind vertical Shear advection flag */
(PID.TID 0000.0001)                   F
(PID.TID 0000.0001)     ;
(PID.TID 0000.0001) momForcing =  /* Momentum forcing on/off flag */
(PID.TID 0000.0001)                   T
(PID.TID 0000.0001)     ;
(PID.TID 0000.0001) momPressureForcing =  /* Momentum pressure term on/off flag */
(PID.TID 0000.0001)                   T
(PID.TID 0000.0001)     ;
(PID.TID 0000.0001) staggerTimeStep =   /* Stagger time stepping on/off flag */
(PID.TID 0000.0001)                   F
(PID.TID 0000.0001)     ;
(PID.TID 0000.0001) multiDimAdvection =   /* enable/disable Multi-Dim Advection */
(PID.TID 0000.0001)                   T
(PID.TID 0000.0001)     ;
(PID.TID 0000.0001) useMultiDimAdvec =   /* Multi-Dim Advection is/is-not used */
(PID.TID 0000.0001)                   F
(PID.TID 0000.0001)     ;
(PID.TID 0000.0001) implicitDiffusion =/* Implicit Diffusion on/off flag */
(PID.TID 0000.0001)                   T
(PID.TID 0000.0001)     ;
(PID.TID 0000.0001) tempStepping =  /* Temperature equation on/off flag */
(PID.TID 0000.0001)                   T
(PID.TID 0000.0001)     ;
(PID.TID 0000.0001) tempAdvection=  /* Temperature advection on/off flag */
(PID.TID 0000.0001)                   T
(PID.TID 0000.0001)     ;
(PID.TID 0000.0001) tempImplVertAdv =/* Temp. implicit vert. advection on/off */
(PID.TID 0000.0001)                   F
(PID.TID 0000.0001)     ;
(PID.TID 0000.0001) tempForcing  =  /* Temperature forcing on/off flag */
(PID.TID 0000.0001)                   T
(PID.TID 0000.0001)     ;
(PID.TID 0000.0001) saltStepping =  /* Salinity equation on/off flag */
(PID.TID 0000.0001)                   T
(PID.TID 0000.0001)     ;
(PID.TID 0000.0001) saltAdvection=  /* Salinity advection on/off flag */
(PID.TID 0000.0001)                   T
(PID.TID 0000.0001)     ;
(PID.TID 0000.0001) saltImplVertAdv =/* Sali. implicit vert. advection on/off */
(PID.TID 0000.0001)                   F
(PID.TID 0000.0001)     ;
(PID.TID 0000.0001) saltForcing  =  /* Salinity forcing on/off flag */
(PID.TID 0000.0001)                   T
(PID.TID 0000.0001)     ;
(PID.TID 0000.0001)  debugMode  =  /* Debug Mode on/off flag */
(PID.TID 0000.0001)                   F
(PID.TID 0000.0001)     ;
(PID.TID 0000.0001)    debLevA  =  /* 1rst level of debugging */
(PID.TID 0000.0001)                       1
(PID.TID 0000.0001)     ;
(PID.TID 0000.0001)    debLevB  =  /* 2nd  level of debugging */
(PID.TID 0000.0001)                       2
(PID.TID 0000.0001)     ;
(PID.TID 0000.0001)  debugLevel =  /* select debugging level */
(PID.TID 0000.0001)                       1
(PID.TID 0000.0001)     ;
(PID.TID 0000.0001) //
(PID.TID 0000.0001) // Elliptic solver(s) paramters ( PARM02 in namelist )
(PID.TID 0000.0001) //
(PID.TID 0000.0001) cg2dMaxIters =   /* Upper limit on 2d con. grad iterations  */
(PID.TID 0000.0001)                     200
(PID.TID 0000.0001)     ;
(PID.TID 0000.0001) cg2dChkResFreq =   /* 2d con. grad convergence test frequency */
(PID.TID 0000.0001)                       1
(PID.TID 0000.0001)     ;
(PID.TID 0000.0001) cg2dTargetResidual =   /* 2d con. grad target residual  */
(PID.TID 0000.0001)                 1.000000000000000E-09
(PID.TID 0000.0001)     ;
(PID.TID 0000.0001) cg2dTargetResWunit =   /* CG2d target residual [W units] */
(PID.TID 0000.0001)                -1.000000000000000E+00
(PID.TID 0000.0001)     ;
(PID.TID 0000.0001) cg2dPreCondFreq =   /* Freq. for updating cg2d preconditioner */
(PID.TID 0000.0001)                       1
(PID.TID 0000.0001)     ;
(PID.TID 0000.0001) //
(PID.TID 0000.0001) // Time stepping paramters ( PARM03 in namelist )
(PID.TID 0000.0001) //
(PID.TID 0000.0001) nIter0 =   /* Run starting timestep number  */
(PID.TID 0000.0001)                       0
(PID.TID 0000.0001)     ;
(PID.TID 0000.0001) nTimeSteps =   /* Number of timesteps */
(PID.TID 0000.0001)                      20
(PID.TID 0000.0001)     ;
(PID.TID 0000.0001) deltatTmom =   /* Momentum equation timestep ( s ) */
(PID.TID 0000.0001)                 1.200000000000000E+03
(PID.TID 0000.0001)     ;
(PID.TID 0000.0001) deltaTfreesurf =   /* FreeSurface equation timestep ( s ) */
(PID.TID 0000.0001)                 1.728000000000000E+05
(PID.TID 0000.0001)     ;
(PID.TID 0000.0001) dTtracerLev =   /* Tracer equation timestep ( s ) */
(PID.TID 0000.0001)    15 @  1.728000000000000E+05              /* K =  1: 15 */
(PID.TID 0000.0001)     ;
(PID.TID 0000.0001) deltatTClock  =   /* Model clock timestep ( s ) */
(PID.TID 0000.0001)                 1.728000000000000E+05
(PID.TID 0000.0001)     ;
(PID.TID 0000.0001) cAdjFreq =   /* Convective adjustment interval ( s ) */
(PID.TID 0000.0001)                 0.000000000000000E+00
(PID.TID 0000.0001)     ;
(PID.TID 0000.0001) forcing_In_AB =   /* put T,S Forcing in Adams-Bash. stepping */
(PID.TID 0000.0001)                   T
(PID.TID 0000.0001)     ;
(PID.TID 0000.0001) abEps =   /* Adams-Bashforth-2 stabilizing weight */
(PID.TID 0000.0001)                 1.000000000000000E-01
(PID.TID 0000.0001)     ;
(PID.TID 0000.0001) baseTime =   /* Model base time ( s ). */
(PID.TID 0000.0001)                 0.000000000000000E+00
(PID.TID 0000.0001)     ;
(PID.TID 0000.0001) startTime =   /* Run start time ( s ). */
(PID.TID 0000.0001)                 0.000000000000000E+00
(PID.TID 0000.0001)     ;
(PID.TID 0000.0001) endTime =   /* Integration ending time ( s ). */
(PID.TID 0000.0001)                 3.456000000000000E+06
(PID.TID 0000.0001)     ;
(PID.TID 0000.0001) pChkPtFreq =   /* Permanent restart/checkpoint file interval ( s ). */
(PID.TID 0000.0001)                 3.110400000000000E+09
(PID.TID 0000.0001)     ;
(PID.TID 0000.0001) chkPtFreq =   /* Rolling restart/checkpoint file interval ( s ). */
(PID.TID 0000.0001)                 0.000000000000000E+00
(PID.TID 0000.0001)     ;
(PID.TID 0000.0001) pickup_write_mdsio =   /* Model IO flag. */
(PID.TID 0000.0001)                   T
(PID.TID 0000.0001)     ;
(PID.TID 0000.0001) pickup_read_mdsio =   /* Model IO flag. */
(PID.TID 0000.0001)                   T
(PID.TID 0000.0001)     ;
(PID.TID 0000.0001) pickup_write_immed =   /* Model IO flag. */
(PID.TID 0000.0001)                   F
(PID.TID 0000.0001)     ;
(PID.TID 0000.0001) dumpFreq =   /* Model state write out interval ( s ). */
(PID.TID 0000.0001)                 3.110400000000000E+09
(PID.TID 0000.0001)     ;
(PID.TID 0000.0001) snapshot_mdsio =   /* Model IO flag. */
(PID.TID 0000.0001)                   T
(PID.TID 0000.0001)     ;
(PID.TID 0000.0001) monitorFreq =   /* Monitor output interval ( s ). */
(PID.TID 0000.0001)                 1.000000000000000E+00
(PID.TID 0000.0001)     ;
(PID.TID 0000.0001) monitor_stdio =   /* Model IO flag. */
(PID.TID 0000.0001)                   T
(PID.TID 0000.0001)     ;
(PID.TID 0000.0001) externForcingPeriod =   /* forcing period (s) */
(PID.TID 0000.0001)                 2.592000000000000E+06
(PID.TID 0000.0001)     ;
(PID.TID 0000.0001) externForcingCycle =   /* period of the cyle (s). */
(PID.TID 0000.0001)                 3.110400000000000E+07
(PID.TID 0000.0001)     ;
(PID.TID 0000.0001) tauThetaClimRelax =   /* relaxation time scale (s) */
(PID.TID 0000.0001)                 5.184000000000000E+06
(PID.TID 0000.0001)     ;
(PID.TID 0000.0001) tauSaltClimRelax =   /* relaxation time scale (s) */
(PID.TID 0000.0001)                 0.000000000000000E+00
(PID.TID 0000.0001)     ;
(PID.TID 0000.0001) latBandClimRelax =   /* max. Lat. where relaxation */
(PID.TID 0000.0001)                 1.800000000000000E+02
(PID.TID 0000.0001)     ;
(PID.TID 0000.0001) //
(PID.TID 0000.0001) // Gridding paramters ( PARM04 in namelist )
(PID.TID 0000.0001) //
(PID.TID 0000.0001) usingCartesianGrid =   /* Cartesian coordinates flag ( True / False ) */
(PID.TID 0000.0001)                   F
(PID.TID 0000.0001)     ;
(PID.TID 0000.0001) usingSphericalPolarGrid =   /* Spherical coordinates flag ( True / False ) */
(PID.TID 0000.0001)                   T
(PID.TID 0000.0001)     ;
(PID.TID 0000.0001) usingCylindricalGrid =   /* Spherical coordinates flag ( True / False ) */
(PID.TID 0000.0001)                   F
(PID.TID 0000.0001)     ;
(PID.TID 0000.0001) Ro_SeaLevel =   /* r(1) ( units of r ) */
(PID.TID 0000.0001)                 5.302312256608400E+07
(PID.TID 0000.0001)     ;
(PID.TID 0000.0001) rkSign =   /* index orientation relative to vertical coordinate */
(PID.TID 0000.0001)                -1.000000000000000E+00
(PID.TID 0000.0001)     ;
(PID.TID 0000.0001) horiVertRatio =   /* Ratio on units : Horiz - Vertical */
(PID.TID 0000.0001)                 1.015335000000000E+04
(PID.TID 0000.0001)     ;
(PID.TID 0000.0001) drC =   /* C spacing ( units of r ) */
(PID.TID 0000.0001)                 3.551650360010500E+06,      /* K =  1 */
(PID.TID 0000.0001)                 6.836924580405500E+06,      /* K =  2 */
(PID.TID 0000.0001)                 6.306109225519501E+06,      /* K =  3 */
(PID.TID 0000.0001)                 5.779053338153000E+06,      /* K =  4 */
(PID.TID 0000.0001)                 5.255519350233500E+06,      /* K =  5 */
(PID.TID 0000.0001)                 4.735252734850001E+06,      /* K =  6 */
(PID.TID 0000.0001)                 4.217983340545500E+06,      /* K =  7 */
(PID.TID 0000.0001)                 3.703426779226000E+06,      /* K =  8 */
(PID.TID 0000.0001)                 3.191285859157500E+06,      /* K =  9 */
(PID.TID 0000.0001)                 2.681252055355000E+06,      /* K = 10 */
(PID.TID 0000.0001)                 2.173007010517000E+06,      /* K = 11 */
(PID.TID 0000.0001)                 1.666224060479000E+06,      /* K = 12 */
(PID.TID 0000.0001)                 1.211001777568000E+06,      /* K = 13 */
(PID.TID 0000.0001)                 8.573828878235000E+05,      /* K = 14 */
(PID.TID 0000.0001)                 6.050043594899999E+05       /* K = 15 */
(PID.TID 0000.0001)     ;
(PID.TID 0000.0001) drF =   /* W spacing ( units of r ) */
(PID.TID 0000.0001)                 7.103300720021000E+06,      /* K =  1 */
(PID.TID 0000.0001)                 6.570548440790000E+06,      /* K =  2 */
(PID.TID 0000.0001)                 6.041670010249000E+06,      /* K =  3 */
(PID.TID 0000.0001)                 5.516436666057000E+06,      /* K =  4 */
(PID.TID 0000.0001)                 4.994602034410000E+06,      /* K =  5 */
(PID.TID 0000.0001)                 4.475903435290000E+06,      /* K =  6 */
(PID.TID 0000.0001)                 3.960063245801000E+06,      /* K =  7 */
(PID.TID 0000.0001)                 3.446790312651000E+06,      /* K =  8 */
(PID.TID 0000.0001)                 2.935781405664000E+06,      /* K =  9 */
(PID.TID 0000.0001)                 2.426722705046000E+06,      /* K = 10 */
(PID.TID 0000.0001)                 1.919291315988000E+06,      /* K = 11 */
(PID.TID 0000.0001)                 1.413156804970000E+06,      /* K = 12 */
(PID.TID 0000.0001)                 1.008846750166000E+06,      /* K = 13 */
(PID.TID 0000.0001)                 7.059190254810000E+05,      /* K = 14 */
(PID.TID 0000.0001)                 5.040896934990000E+05       /* K = 15 */
(PID.TID 0000.0001)     ;
(PID.TID 0000.0001) delX =   /* U spacing ( m - cartesian, degrees - spherical ) */
(PID.TID 0000.0001)    90 @  4.000000000000000E+00              /* I =  1: 90 */
(PID.TID 0000.0001)     ;
(PID.TID 0000.0001) delY =   /* V spacing ( m - cartesian, degrees - spherical ) */
(PID.TID 0000.0001)    40 @  4.000000000000000E+00              /* J =  1: 40 */
(PID.TID 0000.0001)     ;
(PID.TID 0000.0001) phiMin =    /* South edge (ignored - cartesian, degrees - spherical ) */
(PID.TID 0000.0001)                -8.000000000000000E+01
(PID.TID 0000.0001)     ;
(PID.TID 0000.0001) thetaMin =    /* West edge ( ignored - cartesian, degrees - spherical ) */
(PID.TID 0000.0001)                 0.000000000000000E+00
(PID.TID 0000.0001)     ;
(PID.TID 0000.0001) rSphere =    /* Radius ( ignored - cartesian, m - spherical ) */
(PID.TID 0000.0001)                 6.370000000000000E+06
(PID.TID 0000.0001)     ;
(PID.TID 0000.0001) xcoord =   /* P-point X coord ( m - cartesian, degrees - spherical ) */
(PID.TID 0000.0001)                 2.000000000000000E+00,      /* I =  1 */
(PID.TID 0000.0001)                 6.000000000000000E+00,      /* I =  2 */
(PID.TID 0000.0001)                 1.000000000000000E+01,      /* I =  3 */
(PID.TID 0000.0001)                 1.400000000000000E+01,      /* I =  4 */
(PID.TID 0000.0001)                 1.800000000000000E+01,      /* I =  5 */
(PID.TID 0000.0001)                 2.200000000000000E+01,      /* I =  6 */
(PID.TID 0000.0001)                 2.600000000000000E+01,      /* I =  7 */
(PID.TID 0000.0001)                 3.000000000000000E+01,      /* I =  8 */
(PID.TID 0000.0001)                 3.400000000000000E+01,      /* I =  9 */
(PID.TID 0000.0001)                 3.800000000000000E+01,      /* I = 10 */
(PID.TID 0000.0001)                 4.200000000000000E+01,      /* I = 11 */
(PID.TID 0000.0001)                 4.600000000000000E+01,      /* I = 12 */
(PID.TID 0000.0001)                 5.000000000000000E+01,      /* I = 13 */
(PID.TID 0000.0001)                 5.400000000000000E+01,      /* I = 14 */
(PID.TID 0000.0001)                 5.800000000000000E+01,      /* I = 15 */
(PID.TID 0000.0001)                 6.200000000000000E+01,      /* I = 16 */
(PID.TID 0000.0001)                 6.600000000000000E+01,      /* I = 17 */
(PID.TID 0000.0001)                 7.000000000000000E+01,      /* I = 18 */
(PID.TID 0000.0001)                 7.400000000000000E+01,      /* I = 19 */
(PID.TID 0000.0001)                 7.800000000000000E+01,      /* I = 20 */
(PID.TID 0000.0001)                 8.200000000000000E+01,      /* I = 21 */
(PID.TID 0000.0001)                 8.600000000000000E+01,      /* I = 22 */
(PID.TID 0000.0001)                 9.000000000000000E+01,      /* I = 23 */
(PID.TID 0000.0001)                 9.400000000000000E+01,      /* I = 24 */
(PID.TID 0000.0001)                 9.800000000000000E+01,      /* I = 25 */
(PID.TID 0000.0001)                 1.020000000000000E+02,      /* I = 26 */
(PID.TID 0000.0001)                 1.060000000000000E+02,      /* I = 27 */
(PID.TID 0000.0001)                 1.100000000000000E+02,      /* I = 28 */
(PID.TID 0000.0001)                 1.140000000000000E+02,      /* I = 29 */
(PID.TID 0000.0001)                 1.180000000000000E+02,      /* I = 30 */
(PID.TID 0000.0001)                 1.220000000000000E+02,      /* I = 31 */
(PID.TID 0000.0001)                 1.260000000000000E+02,      /* I = 32 */
(PID.TID 0000.0001)                 1.300000000000000E+02,      /* I = 33 */
(PID.TID 0000.0001)                 1.340000000000000E+02,      /* I = 34 */
(PID.TID 0000.0001)                 1.380000000000000E+02,      /* I = 35 */
(PID.TID 0000.0001)                 1.420000000000000E+02,      /* I = 36 */
(PID.TID 0000.0001)                 1.460000000000000E+02,      /* I = 37 */
(PID.TID 0000.0001)                 1.500000000000000E+02,      /* I = 38 */
(PID.TID 0000.0001)                 1.540000000000000E+02,      /* I = 39 */
(PID.TID 0000.0001)                 1.580000000000000E+02,      /* I = 40 */
(PID.TID 0000.0001)                 1.620000000000000E+02,      /* I = 41 */
(PID.TID 0000.0001)                 1.660000000000000E+02,      /* I = 42 */
(PID.TID 0000.0001)                 1.700000000000000E+02,      /* I = 43 */
(PID.TID 0000.0001)                 1.740000000000000E+02,      /* I = 44 */
(PID.TID 0000.0001)                 1.780000000000000E+02,      /* I = 45 */
(PID.TID 0000.0001)                 1.820000000000000E+02,      /* I = 46 */
(PID.TID 0000.0001)                 1.860000000000000E+02,      /* I = 47 */
(PID.TID 0000.0001)                 1.900000000000000E+02,      /* I = 48 */
(PID.TID 0000.0001)                 1.940000000000000E+02,      /* I = 49 */
(PID.TID 0000.0001)                 1.980000000000000E+02,      /* I = 50 */
(PID.TID 0000.0001)                 2.020000000000000E+02,      /* I = 51 */
(PID.TID 0000.0001)                 2.060000000000000E+02,      /* I = 52 */
(PID.TID 0000.0001)                 2.100000000000000E+02,      /* I = 53 */
(PID.TID 0000.0001)                 2.140000000000000E+02,      /* I = 54 */
(PID.TID 0000.0001)                 2.180000000000000E+02,      /* I = 55 */
(PID.TID 0000.0001)                 2.220000000000000E+02,      /* I = 56 */
(PID.TID 0000.0001)                 2.260000000000000E+02,      /* I = 57 */
(PID.TID 0000.0001)                 2.300000000000000E+02,      /* I = 58 */
(PID.TID 0000.0001)                 2.340000000000000E+02,      /* I = 59 */
(PID.TID 0000.0001)                 2.380000000000000E+02,      /* I = 60 */
(PID.TID 0000.0001)                 2.420000000000000E+02,      /* I = 61 */
(PID.TID 0000.0001)                 2.460000000000000E+02,      /* I = 62 */
(PID.TID 0000.0001)                 2.500000000000000E+02,      /* I = 63 */
(PID.TID 0000.0001)                 2.540000000000000E+02,      /* I = 64 */
(PID.TID 0000.0001)                 2.580000000000000E+02,      /* I = 65 */
(PID.TID 0000.0001)                 2.620000000000000E+02,      /* I = 66 */
(PID.TID 0000.0001)                 2.660000000000000E+02,      /* I = 67 */
(PID.TID 0000.0001)                 2.700000000000000E+02,      /* I = 68 */
(PID.TID 0000.0001)                 2.740000000000000E+02,      /* I = 69 */
(PID.TID 0000.0001)                 2.780000000000000E+02,      /* I = 70 */
(PID.TID 0000.0001)                 2.820000000000000E+02,      /* I = 71 */
(PID.TID 0000.0001)                 2.860000000000000E+02,      /* I = 72 */
(PID.TID 0000.0001)                 2.900000000000000E+02,      /* I = 73 */
(PID.TID 0000.0001)                 2.940000000000000E+02,      /* I = 74 */
(PID.TID 0000.0001)                 2.980000000000000E+02,      /* I = 75 */
(PID.TID 0000.0001)                 3.020000000000000E+02,      /* I = 76 */
(PID.TID 0000.0001)                 3.060000000000000E+02,      /* I = 77 */
(PID.TID 0000.0001)                 3.100000000000000E+02,      /* I = 78 */
(PID.TID 0000.0001)                 3.140000000000000E+02,      /* I = 79 */
(PID.TID 0000.0001)                 3.180000000000000E+02,      /* I = 80 */
(PID.TID 0000.0001)                 3.220000000000000E+02,      /* I = 81 */
(PID.TID 0000.0001)                 3.260000000000000E+02,      /* I = 82 */
(PID.TID 0000.0001)                 3.300000000000000E+02,      /* I = 83 */
(PID.TID 0000.0001)                 3.340000000000000E+02,      /* I = 84 */
(PID.TID 0000.0001)                 3.380000000000000E+02,      /* I = 85 */
(PID.TID 0000.0001)                 3.420000000000000E+02,      /* I = 86 */
(PID.TID 0000.0001)                 3.460000000000000E+02,      /* I = 87 */
(PID.TID 0000.0001)                 3.500000000000000E+02,      /* I = 88 */
(PID.TID 0000.0001)                 3.540000000000000E+02,      /* I = 89 */
(PID.TID 0000.0001)                 3.580000000000000E+02       /* I = 90 */
(PID.TID 0000.0001)     ;
(PID.TID 0000.0001) ycoord =   /* P-point Y coord ( m - cartesian, degrees - spherical ) */
(PID.TID 0000.0001)                -7.800000000000000E+01,      /* J =  1 */
(PID.TID 0000.0001)                -7.400000000000000E+01,      /* J =  2 */
(PID.TID 0000.0001)                -7.000000000000000E+01,      /* J =  3 */
(PID.TID 0000.0001)                -6.600000000000000E+01,      /* J =  4 */
(PID.TID 0000.0001)                -6.200000000000000E+01,      /* J =  5 */
(PID.TID 0000.0001)                -5.800000000000000E+01,      /* J =  6 */
(PID.TID 0000.0001)                -5.400000000000000E+01,      /* J =  7 */
(PID.TID 0000.0001)                -5.000000000000000E+01,      /* J =  8 */
(PID.TID 0000.0001)                -4.600000000000000E+01,      /* J =  9 */
(PID.TID 0000.0001)                -4.200000000000000E+01,      /* J = 10 */
(PID.TID 0000.0001)                -3.800000000000000E+01,      /* J = 11 */
(PID.TID 0000.0001)                -3.400000000000000E+01,      /* J = 12 */
(PID.TID 0000.0001)                -3.000000000000000E+01,      /* J = 13 */
(PID.TID 0000.0001)                -2.600000000000000E+01,      /* J = 14 */
(PID.TID 0000.0001)                -2.200000000000000E+01,      /* J = 15 */
(PID.TID 0000.0001)                -1.800000000000000E+01,      /* J = 16 */
(PID.TID 0000.0001)                -1.400000000000000E+01,      /* J = 17 */
(PID.TID 0000.0001)                -1.000000000000000E+01,      /* J = 18 */
(PID.TID 0000.0001)                -6.000000000000000E+00,      /* J = 19 */
(PID.TID 0000.0001)                -2.000000000000000E+00,      /* J = 20 */
(PID.TID 0000.0001)                 2.000000000000000E+00,      /* J = 21 */
(PID.TID 0000.0001)                 6.000000000000000E+00,      /* J = 22 */
(PID.TID 0000.0001)                 1.000000000000000E+01,      /* J = 23 */
(PID.TID 0000.0001)                 1.400000000000000E+01,      /* J = 24 */
(PID.TID 0000.0001)                 1.800000000000000E+01,      /* J = 25 */
(PID.TID 0000.0001)                 2.200000000000000E+01,      /* J = 26 */
(PID.TID 0000.0001)                 2.600000000000000E+01,      /* J = 27 */
(PID.TID 0000.0001)                 3.000000000000000E+01,      /* J = 28 */
(PID.TID 0000.0001)                 3.400000000000000E+01,      /* J = 29 */
(PID.TID 0000.0001)                 3.800000000000000E+01,      /* J = 30 */
(PID.TID 0000.0001)                 4.200000000000000E+01,      /* J = 31 */
(PID.TID 0000.0001)                 4.600000000000000E+01,      /* J = 32 */
(PID.TID 0000.0001)                 5.000000000000000E+01,      /* J = 33 */
(PID.TID 0000.0001)                 5.400000000000000E+01,      /* J = 34 */
(PID.TID 0000.0001)                 5.800000000000000E+01,      /* J = 35 */
(PID.TID 0000.0001)                 6.200000000000000E+01,      /* J = 36 */
(PID.TID 0000.0001)                 6.600000000000000E+01,      /* J = 37 */
(PID.TID 0000.0001)                 7.000000000000000E+01,      /* J = 38 */
(PID.TID 0000.0001)                 7.400000000000000E+01,      /* J = 39 */
(PID.TID 0000.0001)                 7.800000000000000E+01       /* J = 40 */
(PID.TID 0000.0001)     ;
(PID.TID 0000.0001) rcoord =   /* P-point R coordinate (  units of r ) */
(PID.TID 0000.0001)                 4.947147220607350E+07,      /* K =  1 */
(PID.TID 0000.0001)                 4.263454762566800E+07,      /* K =  2 */
(PID.TID 0000.0001)                 3.632843840014850E+07,      /* K =  3 */
(PID.TID 0000.0001)                 3.054938506199550E+07,      /* K =  4 */
(PID.TID 0000.0001)                 2.529386571176200E+07,      /* K =  5 */
(PID.TID 0000.0001)                 2.055861297691200E+07,      /* K =  6 */
(PID.TID 0000.0001)                 1.634062963636650E+07,      /* K =  7 */
(PID.TID 0000.0001)                 1.263720285714050E+07,      /* K =  8 */
(PID.TID 0000.0001)                 9.445916997983005E+06,      /* K =  9 */
(PID.TID 0000.0001)                 6.764664942628005E+06,      /* K = 10 */
(PID.TID 0000.0001)                 4.591657932111004E+06,      /* K = 11 */
(PID.TID 0000.0001)                 2.925433871632004E+06,      /* K = 12 */
(PID.TID 0000.0001)                 1.714432094064004E+06,      /* K = 13 */
(PID.TID 0000.0001)                 8.570492062405043E+05,      /* K = 14 */
(PID.TID 0000.0001)                 2.520448467505043E+05       /* K = 15 */
(PID.TID 0000.0001)     ;
(PID.TID 0000.0001) rF =   /* W-Interf. R coordinate (  units of r ) */
(PID.TID 0000.0001)                 5.302312256608400E+07,      /* K =  1 */
(PID.TID 0000.0001)                 4.591982184606300E+07,      /* K =  2 */
(PID.TID 0000.0001)                 3.934927340527300E+07,      /* K =  3 */
(PID.TID 0000.0001)                 3.330760339502400E+07,      /* K =  4 */
(PID.TID 0000.0001)                 2.779116672896700E+07,      /* K =  5 */
(PID.TID 0000.0001)                 2.279656469455700E+07,      /* K =  6 */
(PID.TID 0000.0001)                 1.832066125926699E+07,      /* K =  7 */
(PID.TID 0000.0001)                 1.436059801346599E+07,      /* K =  8 */
(PID.TID 0000.0001)                 1.091380770081500E+07,      /* K =  9 */
(PID.TID 0000.0001)                 7.978026295150995E+06,      /* K = 10 */
(PID.TID 0000.0001)                 5.551303590104995E+06,      /* K = 11 */
(PID.TID 0000.0001)                 3.632012274116995E+06,      /* K = 12 */
(PID.TID 0000.0001)                 2.218855469146995E+06,      /* K = 13 */
(PID.TID 0000.0001)                 1.210008718980995E+06,      /* K = 14 */
(PID.TID 0000.0001)                 5.040896934999955E+05,      /* K = 15 */
(PID.TID 0000.0001)                 9.955256246030331E-07       /* K = 16 */
(PID.TID 0000.0001)     ;
(PID.TID 0000.0001) dxF =  /* dxF(:,1,:,1) ( m - cartesian, degrees - spherical ) */
(PID.TID 0000.0001)    90 @  9.246038586187513E+04              /* I =  1: 90 */
(PID.TID 0000.0001)     ;
(PID.TID 0000.0001) dxF =  /* dxF(1,:,1,:) ( m - cartesian, degrees - spherical ) */
(PID.TID 0000.0001)                 9.246038586187513E+04,      /* J =  1 */
(PID.TID 0000.0001)                 1.225786591246834E+05,      /* J =  2 */
(PID.TID 0000.0001)                 1.520997414818001E+05,      /* J =  3 */
(PID.TID 0000.0001)                 1.808798091874300E+05,      /* J =  4 */
(PID.TID 0000.0001)                 2.087786486446736E+05,      /* J =  5 */
(PID.TID 0000.0001)                 2.356603395120765E+05,      /* J =  6 */
(PID.TID 0000.0001)                 2.613939168938713E+05,      /* J =  7 */
(PID.TID 0000.0001)                 2.858540093877838E+05,      /* J =  8 */
(PID.TID 0000.0001)                 3.089214498819034E+05,      /* J =  9 */
(PID.TID 0000.0001)                 3.304838561248741E+05,      /* J = 10 */
(PID.TID 0000.0001)                 3.504361782409254E+05,      /* J = 11 */
(PID.TID 0000.0001)                 3.686812105223082E+05,      /* J = 12 */
(PID.TID 0000.0001)                 3.851300650057323E+05,      /* J = 13 */
(PID.TID 0000.0001)                 3.997026045255871E+05,      /* J = 14 */
(PID.TID 0000.0001)                 4.123278331341585E+05,      /* J = 15 */
(PID.TID 0000.0001)                 4.229442419867491E+05,      /* J = 16 */
(PID.TID 0000.0001)                 4.315001090065870E+05,      /* J = 17 */
(PID.TID 0000.0001)                 4.379537508695838E+05,      /* J = 18 */
(PID.TID 0000.0001)                 4.422737260813012E+05,      /* J = 19 */
(PID.TID 0000.0001)     2 @  4.444389881567502E+05,             /* J = 20: 21 */
(PID.TID 0000.0001)                 4.422737260813012E+05,      /* J = 22 */
(PID.TID 0000.0001)                 4.379537508695838E+05,      /* J = 23 */
(PID.TID 0000.0001)                 4.315001090065870E+05,      /* J = 24 */
(PID.TID 0000.0001)                 4.229442419867491E+05,      /* J = 25 */
(PID.TID 0000.0001)                 4.123278331341585E+05,      /* J = 26 */
(PID.TID 0000.0001)                 3.997026045255871E+05,      /* J = 27 */
(PID.TID 0000.0001)                 3.851300650057323E+05,      /* J = 28 */
(PID.TID 0000.0001)                 3.686812105223082E+05,      /* J = 29 */
(PID.TID 0000.0001)                 3.504361782409254E+05,      /* J = 30 */
(PID.TID 0000.0001)                 3.304838561248741E+05,      /* J = 31 */
(PID.TID 0000.0001)                 3.089214498819034E+05,      /* J = 32 */
(PID.TID 0000.0001)                 2.858540093877838E+05,      /* J = 33 */
(PID.TID 0000.0001)                 2.613939168938713E+05,      /* J = 34 */
(PID.TID 0000.0001)                 2.356603395120765E+05,      /* J = 35 */
(PID.TID 0000.0001)                 2.087786486446736E+05,      /* J = 36 */
(PID.TID 0000.0001)                 1.808798091874300E+05,      /* J = 37 */
(PID.TID 0000.0001)                 1.520997414818001E+05,      /* J = 38 */
(PID.TID 0000.0001)                 1.225786591246834E+05,      /* J = 39 */
(PID.TID 0000.0001)                 9.246038586187513E+04       /* J = 40 */
(PID.TID 0000.0001)     ;
(PID.TID 0000.0001) dyF =  /* dyF(:,1,:,1) ( m - cartesian, degrees - spherical ) */
(PID.TID 0000.0001)    90 @  4.447098934081552E+05              /* I =  1: 90 */
(PID.TID 0000.0001)     ;
(PID.TID 0000.0001) dyF =  /* dyF(1,:,1,:) ( m - cartesian, degrees - spherical ) */
(PID.TID 0000.0001)    40 @  4.447098934081552E+05              /* J =  1: 40 */
(PID.TID 0000.0001)     ;
(PID.TID 0000.0001) dxG =  /* dxG(:,1,:,1) ( m - cartesian, degrees - spherical ) */
(PID.TID 0000.0001)    90 @  7.722306258078101E+04              /* I =  1: 90 */
(PID.TID 0000.0001)     ;
(PID.TID 0000.0001) dxG =  /* dxG(1,:,1,:) ( m - cartesian, degrees - spherical ) */
(PID.TID 0000.0001)                 7.722306258078101E+04,      /* J =  1 */
(PID.TID 0000.0001)                 1.075850604052271E+05,      /* J =  2 */
(PID.TID 0000.0001)                 1.374229146297914E+05,      /* J =  3 */
(PID.TID 0000.0001)                 1.665912582279823E+05,      /* J =  4 */
(PID.TID 0000.0001)                 1.949479859617814E+05,      /* J =  5 */
(PID.TID 0000.0001)                 2.223549467040777E+05,      /* J =  6 */
(PID.TID 0000.0001)                 2.486786164970726E+05,      /* J =  7 */
(PID.TID 0000.0001)                 2.737907490675810E+05,      /* J =  8 */
(PID.TID 0000.0001)                 2.975690006299821E+05,      /* J =  9 */
(PID.TID 0000.0001)                 3.198975259328452E+05,      /* J = 10 */
(PID.TID 0000.0001)                 3.406675426453503E+05,      /* J = 11 */
(PID.TID 0000.0001)                 3.597778613338690E+05,      /* J = 12 */
(PID.TID 0000.0001)                 3.771353784467131E+05,      /* J = 13 */
(PID.TID 0000.0001)                 3.926555299052806E+05,      /* J = 14 */
(PID.TID 0000.0001)                 4.062627030917454E+05,      /* J = 15 */
(PID.TID 0000.0001)                 4.178906052261313E+05,      /* J = 16 */
(PID.TID 0000.0001)                 4.274825863380723E+05,      /* J = 17 */
(PID.TID 0000.0001)                 4.349919152597734E+05,      /* J = 18 */
(PID.TID 0000.0001)                 4.403820072955634E+05,      /* J = 19 */
(PID.TID 0000.0001)                 4.436266024588540E+05,      /* J = 20 */
(PID.TID 0000.0001)                 4.447098934081552E+05,      /* J = 21 */
(PID.TID 0000.0001)                 4.436266024588540E+05,      /* J = 22 */
(PID.TID 0000.0001)                 4.403820072955634E+05,      /* J = 23 */
(PID.TID 0000.0001)                 4.349919152597734E+05,      /* J = 24 */
(PID.TID 0000.0001)                 4.274825863380723E+05,      /* J = 25 */
(PID.TID 0000.0001)                 4.178906052261313E+05,      /* J = 26 */
(PID.TID 0000.0001)                 4.062627030917454E+05,      /* J = 27 */
(PID.TID 0000.0001)                 3.926555299052806E+05,      /* J = 28 */
(PID.TID 0000.0001)                 3.771353784467131E+05,      /* J = 29 */
(PID.TID 0000.0001)                 3.597778613338690E+05,      /* J = 30 */
(PID.TID 0000.0001)                 3.406675426453503E+05,      /* J = 31 */
(PID.TID 0000.0001)                 3.198975259328452E+05,      /* J = 32 */
(PID.TID 0000.0001)                 2.975690006299821E+05,      /* J = 33 */
(PID.TID 0000.0001)                 2.737907490675810E+05,      /* J = 34 */
(PID.TID 0000.0001)                 2.486786164970726E+05,      /* J = 35 */
(PID.TID 0000.0001)                 2.223549467040777E+05,      /* J = 36 */
(PID.TID 0000.0001)                 1.949479859617814E+05,      /* J = 37 */
(PID.TID 0000.0001)                 1.665912582279823E+05,      /* J = 38 */
(PID.TID 0000.0001)                 1.374229146297914E+05,      /* J = 39 */
(PID.TID 0000.0001)                 1.075850604052271E+05       /* J = 40 */
(PID.TID 0000.0001)     ;
(PID.TID 0000.0001) dyG =  /* dyG(:,1,:,1) ( m - cartesian, degrees - spherical ) */
(PID.TID 0000.0001)    90 @  4.447098934081552E+05              /* I =  1: 90 */
(PID.TID 0000.0001)     ;
(PID.TID 0000.0001) dyG =  /* dyG(1,:,1,:) ( m - cartesian, degrees - spherical ) */
(PID.TID 0000.0001)    40 @  4.447098934081552E+05              /* J =  1: 40 */
(PID.TID 0000.0001)     ;
(PID.TID 0000.0001) dxC =  /* dxC(:,1,:,1) ( m - cartesian, degrees - spherical ) */
(PID.TID 0000.0001)    90 @  9.246038586187513E+04              /* I =  1: 90 */
(PID.TID 0000.0001)     ;
(PID.TID 0000.0001) dxC =  /* dxC(1,:,1,:) ( m - cartesian, degrees - spherical ) */
(PID.TID 0000.0001)                 9.246038586187513E+04,      /* J =  1 */
(PID.TID 0000.0001)                 1.225786591246834E+05,      /* J =  2 */
(PID.TID 0000.0001)                 1.520997414818001E+05,      /* J =  3 */
(PID.TID 0000.0001)                 1.808798091874300E+05,      /* J =  4 */
(PID.TID 0000.0001)                 2.087786486446736E+05,      /* J =  5 */
(PID.TID 0000.0001)                 2.356603395120765E+05,      /* J =  6 */
(PID.TID 0000.0001)                 2.613939168938713E+05,      /* J =  7 */
(PID.TID 0000.0001)                 2.858540093877838E+05,      /* J =  8 */
(PID.TID 0000.0001)                 3.089214498819034E+05,      /* J =  9 */
(PID.TID 0000.0001)                 3.304838561248741E+05,      /* J = 10 */
(PID.TID 0000.0001)                 3.504361782409254E+05,      /* J = 11 */
(PID.TID 0000.0001)                 3.686812105223082E+05,      /* J = 12 */
(PID.TID 0000.0001)                 3.851300650057323E+05,      /* J = 13 */
(PID.TID 0000.0001)                 3.997026045255871E+05,      /* J = 14 */
(PID.TID 0000.0001)                 4.123278331341585E+05,      /* J = 15 */
(PID.TID 0000.0001)                 4.229442419867491E+05,      /* J = 16 */
(PID.TID 0000.0001)                 4.315001090065870E+05,      /* J = 17 */
(PID.TID 0000.0001)                 4.379537508695838E+05,      /* J = 18 */
(PID.TID 0000.0001)                 4.422737260813012E+05,      /* J = 19 */
(PID.TID 0000.0001)     2 @  4.444389881567502E+05,             /* J = 20: 21 */
(PID.TID 0000.0001)                 4.422737260813012E+05,      /* J = 22 */
(PID.TID 0000.0001)                 4.379537508695838E+05,      /* J = 23 */
(PID.TID 0000.0001)                 4.315001090065870E+05,      /* J = 24 */
(PID.TID 0000.0001)                 4.229442419867491E+05,      /* J = 25 */
(PID.TID 0000.0001)                 4.123278331341585E+05,      /* J = 26 */
(PID.TID 0000.0001)                 3.997026045255871E+05,      /* J = 27 */
(PID.TID 0000.0001)                 3.851300650057323E+05,      /* J = 28 */
(PID.TID 0000.0001)                 3.686812105223082E+05,      /* J = 29 */
(PID.TID 0000.0001)                 3.504361782409254E+05,      /* J = 30 */
(PID.TID 0000.0001)                 3.304838561248741E+05,      /* J = 31 */
(PID.TID 0000.0001)                 3.089214498819034E+05,      /* J = 32 */
(PID.TID 0000.0001)                 2.858540093877838E+05,      /* J = 33 */
(PID.TID 0000.0001)                 2.613939168938713E+05,      /* J = 34 */
(PID.TID 0000.0001)                 2.356603395120765E+05,      /* J = 35 */
(PID.TID 0000.0001)                 2.087786486446736E+05,      /* J = 36 */
(PID.TID 0000.0001)                 1.808798091874300E+05,      /* J = 37 */
(PID.TID 0000.0001)                 1.520997414818001E+05,      /* J = 38 */
(PID.TID 0000.0001)                 1.225786591246834E+05,      /* J = 39 */
(PID.TID 0000.0001)                 9.246038586187513E+04       /* J = 40 */
(PID.TID 0000.0001)     ;
(PID.TID 0000.0001) dyC =  /* dyC(:,1,:,1) ( m - cartesian, degrees - spherical ) */
(PID.TID 0000.0001)    90 @  4.447098934081552E+05              /* I =  1: 90 */
(PID.TID 0000.0001)     ;
(PID.TID 0000.0001) dyC =  /* dyC(1,:,1,:) ( m - cartesian, degrees - spherical ) */
(PID.TID 0000.0001)    40 @  4.447098934081552E+05              /* J =  1: 40 */
(PID.TID 0000.0001)     ;
(PID.TID 0000.0001) dxV =  /* dxV(:,1,:,1) ( m - cartesian, degrees - spherical ) */
(PID.TID 0000.0001)    90 @  7.722306258078101E+04              /* I =  1: 90 */
(PID.TID 0000.0001)     ;
(PID.TID 0000.0001) dxV =  /* dxV(1,:,1,:) ( m - cartesian, degrees - spherical ) */
(PID.TID 0000.0001)                 7.722306258078101E+04,      /* J =  1 */
(PID.TID 0000.0001)                 1.075850604052271E+05,      /* J =  2 */
(PID.TID 0000.0001)                 1.374229146297914E+05,      /* J =  3 */
(PID.TID 0000.0001)                 1.665912582279823E+05,      /* J =  4 */
(PID.TID 0000.0001)                 1.949479859617814E+05,      /* J =  5 */
(PID.TID 0000.0001)                 2.223549467040777E+05,      /* J =  6 */
(PID.TID 0000.0001)                 2.486786164970726E+05,      /* J =  7 */
(PID.TID 0000.0001)                 2.737907490675810E+05,      /* J =  8 */
(PID.TID 0000.0001)                 2.975690006299821E+05,      /* J =  9 */
(PID.TID 0000.0001)                 3.198975259328452E+05,      /* J = 10 */
(PID.TID 0000.0001)                 3.406675426453503E+05,      /* J = 11 */
(PID.TID 0000.0001)                 3.597778613338690E+05,      /* J = 12 */
(PID.TID 0000.0001)                 3.771353784467131E+05,      /* J = 13 */
(PID.TID 0000.0001)                 3.926555299052806E+05,      /* J = 14 */
(PID.TID 0000.0001)                 4.062627030917454E+05,      /* J = 15 */
(PID.TID 0000.0001)                 4.178906052261313E+05,      /* J = 16 */
(PID.TID 0000.0001)                 4.274825863380723E+05,      /* J = 17 */
(PID.TID 0000.0001)                 4.349919152597734E+05,      /* J = 18 */
(PID.TID 0000.0001)                 4.403820072955634E+05,      /* J = 19 */
(PID.TID 0000.0001)                 4.436266024588540E+05,      /* J = 20 */
(PID.TID 0000.0001)                 4.447098934081552E+05,      /* J = 21 */
(PID.TID 0000.0001)                 4.436266024588540E+05,      /* J = 22 */
(PID.TID 0000.0001)                 4.403820072955634E+05,      /* J = 23 */
(PID.TID 0000.0001)                 4.349919152597734E+05,      /* J = 24 */
(PID.TID 0000.0001)                 4.274825863380723E+05,      /* J = 25 */
(PID.TID 0000.0001)                 4.178906052261313E+05,      /* J = 26 */
(PID.TID 0000.0001)                 4.062627030917454E+05,      /* J = 27 */
(PID.TID 0000.0001)                 3.926555299052806E+05,      /* J = 28 */
(PID.TID 0000.0001)                 3.771353784467131E+05,      /* J = 29 */
(PID.TID 0000.0001)                 3.597778613338690E+05,      /* J = 30 */
(PID.TID 0000.0001)                 3.406675426453503E+05,      /* J = 31 */
(PID.TID 0000.0001)                 3.198975259328452E+05,      /* J = 32 */
(PID.TID 0000.0001)                 2.975690006299821E+05,      /* J = 33 */
(PID.TID 0000.0001)                 2.737907490675810E+05,      /* J = 34 */
(PID.TID 0000.0001)                 2.486786164970726E+05,      /* J = 35 */
(PID.TID 0000.0001)                 2.223549467040777E+05,      /* J = 36 */
(PID.TID 0000.0001)                 1.949479859617814E+05,      /* J = 37 */
(PID.TID 0000.0001)                 1.665912582279823E+05,      /* J = 38 */
(PID.TID 0000.0001)                 1.374229146297914E+05,      /* J = 39 */
(PID.TID 0000.0001)                 1.075850604052271E+05       /* J = 40 */
(PID.TID 0000.0001)     ;
(PID.TID 0000.0001) dyU =  /* dyU(:,1,:,1) ( m - cartesian, degrees - spherical ) */
(PID.TID 0000.0001)    90 @  4.447098934081552E+05              /* I =  1: 90 */
(PID.TID 0000.0001)     ;
(PID.TID 0000.0001) dyU =  /* dyU(1,:,1,:) ( m - cartesian, degrees - spherical ) */
(PID.TID 0000.0001)    40 @  4.447098934081552E+05              /* J =  1: 40 */
(PID.TID 0000.0001)     ;
(PID.TID 0000.0001) rA =  /* rA(:,1,:,1) ( m - cartesian, degrees - spherical ) */
(PID.TID 0000.0001)    90 @  4.110969866729047E+10              /* I =  1: 90 */
(PID.TID 0000.0001)     ;
(PID.TID 0000.0001) rA =  /* rA(1,:,1,:) ( m - cartesian, degrees - spherical ) */
(PID.TID 0000.0001)                 4.110969866729047E+10,      /* J =  1 */
(PID.TID 0000.0001)                 5.450087291636665E+10,      /* J =  2 */
(PID.TID 0000.0001)                 6.762652439100235E+10,      /* J =  3 */
(PID.TID 0000.0001)                 8.042270623659998E+10,      /* J =  4 */
(PID.TID 0000.0001)                 9.282707674147523E+10,      /* J =  5 */
(PID.TID 0000.0001)                 1.047792030594103E+11,      /* J =  6 */
(PID.TID 0000.0001)                 1.162208556324093E+11,      /* J =  7 */
(PID.TID 0000.0001)                 1.270962918792468E+11,      /* J =  8 */
(PID.TID 0000.0001)                 1.373525277677229E+11,      /* J =  9 */
(PID.TID 0000.0001)                 1.469395959475426E+11,      /* J = 10 */
(PID.TID 0000.0001)                 1.558107891862220E+11,      /* J = 11 */
(PID.TID 0000.0001)                 1.639228879220326E+11,      /* J = 12 */
(PID.TID 0000.0001)                 1.712363708253573E+11,      /* J = 13 */
(PID.TID 0000.0001)                 1.777156073426415E+11,      /* J = 14 */
(PID.TID 0000.0001)                 1.833290312848623E+11,      /* J = 15 */
(PID.TID 0000.0001)                 1.880492946148330E+11,      /* J = 16 */
(PID.TID 0000.0001)                 1.918534006840893E+11,      /* J = 17 */
(PID.TID 0000.0001)                 1.947228162702492E+11,      /* J = 18 */
(PID.TID 0000.0001)                 1.966435618690094E+11,      /* J = 19 */
(PID.TID 0000.0001)     2 @  1.976062798008856E+11,             /* J = 20: 21 */
(PID.TID 0000.0001)                 1.966435618690094E+11,      /* J = 22 */
(PID.TID 0000.0001)                 1.947228162702492E+11,      /* J = 23 */
(PID.TID 0000.0001)                 1.918534006840893E+11,      /* J = 24 */
(PID.TID 0000.0001)                 1.880492946148330E+11,      /* J = 25 */
(PID.TID 0000.0001)                 1.833290312848623E+11,      /* J = 26 */
(PID.TID 0000.0001)                 1.777156073426415E+11,      /* J = 27 */
(PID.TID 0000.0001)                 1.712363708253573E+11,      /* J = 28 */
(PID.TID 0000.0001)                 1.639228879220326E+11,      /* J = 29 */
(PID.TID 0000.0001)                 1.558107891862220E+11,      /* J = 30 */
(PID.TID 0000.0001)                 1.469395959475426E+11,      /* J = 31 */
(PID.TID 0000.0001)                 1.373525277677229E+11,      /* J = 32 */
(PID.TID 0000.0001)                 1.270962918792468E+11,      /* J = 33 */
(PID.TID 0000.0001)                 1.162208556324093E+11,      /* J = 34 */
(PID.TID 0000.0001)                 1.047792030594103E+11,      /* J = 35 */
(PID.TID 0000.0001)                 9.282707674147523E+10,      /* J = 36 */
(PID.TID 0000.0001)                 8.042270623659998E+10,      /* J = 37 */
(PID.TID 0000.0001)                 6.762652439100235E+10,      /* J = 38 */
(PID.TID 0000.0001)                 5.450087291636665E+10,      /* J = 39 */
(PID.TID 0000.0001)                 4.110969866729047E+10       /* J = 40 */
(PID.TID 0000.0001)     ;
(PID.TID 0000.0001) rAw =  /* rAw(:,1,:,1) ( m - cartesian, degrees - spherical ) */
(PID.TID 0000.0001)    90 @  4.110969866729047E+10              /* I =  1: 90 */
(PID.TID 0000.0001)     ;
(PID.TID 0000.0001) rAw =  /* rAw(1,:,1,:) ( m - cartesian, degrees - spherical ) */
(PID.TID 0000.0001)                 4.110969866729047E+10,      /* J =  1 */
(PID.TID 0000.0001)                 5.450087291636665E+10,      /* J =  2 */
(PID.TID 0000.0001)                 6.762652439100235E+10,      /* J =  3 */
(PID.TID 0000.0001)                 8.042270623659998E+10,      /* J =  4 */
(PID.TID 0000.0001)                 9.282707674147523E+10,      /* J =  5 */
(PID.TID 0000.0001)                 1.047792030594103E+11,      /* J =  6 */
(PID.TID 0000.0001)                 1.162208556324093E+11,      /* J =  7 */
(PID.TID 0000.0001)                 1.270962918792468E+11,      /* J =  8 */
(PID.TID 0000.0001)                 1.373525277677229E+11,      /* J =  9 */
(PID.TID 0000.0001)                 1.469395959475426E+11,      /* J = 10 */
(PID.TID 0000.0001)                 1.558107891862220E+11,      /* J = 11 */
(PID.TID 0000.0001)                 1.639228879220326E+11,      /* J = 12 */
(PID.TID 0000.0001)                 1.712363708253573E+11,      /* J = 13 */
(PID.TID 0000.0001)                 1.777156073426415E+11,      /* J = 14 */
(PID.TID 0000.0001)                 1.833290312848623E+11,      /* J = 15 */
(PID.TID 0000.0001)                 1.880492946148330E+11,      /* J = 16 */
(PID.TID 0000.0001)                 1.918534006840893E+11,      /* J = 17 */
(PID.TID 0000.0001)                 1.947228162702492E+11,      /* J = 18 */
(PID.TID 0000.0001)                 1.966435618690094E+11,      /* J = 19 */
(PID.TID 0000.0001)     2 @  1.976062798008856E+11,             /* J = 20: 21 */
(PID.TID 0000.0001)                 1.966435618690094E+11,      /* J = 22 */
(PID.TID 0000.0001)                 1.947228162702492E+11,      /* J = 23 */
(PID.TID 0000.0001)                 1.918534006840893E+11,      /* J = 24 */
(PID.TID 0000.0001)                 1.880492946148330E+11,      /* J = 25 */
(PID.TID 0000.0001)                 1.833290312848623E+11,      /* J = 26 */
(PID.TID 0000.0001)                 1.777156073426415E+11,      /* J = 27 */
(PID.TID 0000.0001)                 1.712363708253573E+11,      /* J = 28 */
(PID.TID 0000.0001)                 1.639228879220326E+11,      /* J = 29 */
(PID.TID 0000.0001)                 1.558107891862220E+11,      /* J = 30 */
(PID.TID 0000.0001)                 1.469395959475426E+11,      /* J = 31 */
(PID.TID 0000.0001)                 1.373525277677229E+11,      /* J = 32 */
(PID.TID 0000.0001)                 1.270962918792468E+11,      /* J = 33 */
(PID.TID 0000.0001)                 1.162208556324093E+11,      /* J = 34 */
(PID.TID 0000.0001)                 1.047792030594103E+11,      /* J = 35 */
(PID.TID 0000.0001)                 9.282707674147523E+10,      /* J = 36 */
(PID.TID 0000.0001)                 8.042270623659998E+10,      /* J = 37 */
(PID.TID 0000.0001)                 6.762652439100235E+10,      /* J = 38 */
(PID.TID 0000.0001)                 5.450087291636665E+10,      /* J = 39 */
(PID.TID 0000.0001)                 4.110969866729047E+10       /* J = 40 */
(PID.TID 0000.0001)     ;
(PID.TID 0000.0001) rAs =  /* rAs(:,1,:,1) ( m - cartesian, degrees - spherical ) */
(PID.TID 0000.0001)    90 @  3.433488626798250E+10              /* I =  1: 90 */
(PID.TID 0000.0001)     ;
(PID.TID 0000.0001) rAs =  /* rAs(1,:,1,:) ( m - cartesian, degrees - spherical ) */
(PID.TID 0000.0001)                 3.433488626798250E+10,      /* J =  1 */
(PID.TID 0000.0001)                 4.783442523123625E+10,      /* J =  2 */
(PID.TID 0000.0001)                 6.110091968306414E+10,      /* J =  3 */
(PID.TID 0000.0001)                 7.406973659603818E+10,      /* J =  4 */
(PID.TID 0000.0001)                 8.667769319778079E+10,      /* J =  5 */
(PID.TID 0000.0001)                 9.886336479107463E+10,      /* J =  6 */
(PID.TID 0000.0001)                 1.105673840088173E+11,      /* J =  7 */
(PID.TID 0000.0001)                 1.217327300458638E+11,      /* J =  8 */
(PID.TID 0000.0001)                 1.323050064586578E+11,      /* J =  9 */
(PID.TID 0000.0001)                 1.422327061792377E+11,      /* J = 10 */
(PID.TID 0000.0001)                 1.514674624524945E+11,      /* J = 11 */
(PID.TID 0000.0001)                 1.599642844741385E+11,      /* J = 12 */
(PID.TID 0000.0001)                 1.676817765813788E+11,      /* J = 13 */
(PID.TID 0000.0001)                 1.745823399284268E+11,      /* J = 14 */
(PID.TID 0000.0001)                 1.806323556642996E+11,      /* J = 15 */
(PID.TID 0000.0001)                 1.858023487204767E+11,      /* J = 16 */
(PID.TID 0000.0001)                 1.900671314104743E+11,      /* J = 17 */
(PID.TID 0000.0001)                 1.934059261417216E+11,      /* J = 18 */
(PID.TID 0000.0001)                 1.958024666419019E+11,      /* J = 19 */
(PID.TID 0000.0001)                 1.972450772065981E+11,      /* J = 20 */
(PID.TID 0000.0001)                 1.977267295821495E+11,      /* J = 21 */
(PID.TID 0000.0001)                 1.972450772065981E+11,      /* J = 22 */
(PID.TID 0000.0001)                 1.958024666419019E+11,      /* J = 23 */
(PID.TID 0000.0001)                 1.934059261417216E+11,      /* J = 24 */
(PID.TID 0000.0001)                 1.900671314104743E+11,      /* J = 25 */
(PID.TID 0000.0001)                 1.858023487204767E+11,      /* J = 26 */
(PID.TID 0000.0001)                 1.806323556642996E+11,      /* J = 27 */
(PID.TID 0000.0001)                 1.745823399284268E+11,      /* J = 28 */
(PID.TID 0000.0001)                 1.676817765813788E+11,      /* J = 29 */
(PID.TID 0000.0001)                 1.599642844741385E+11,      /* J = 30 */
(PID.TID 0000.0001)                 1.514674624524945E+11,      /* J = 31 */
(PID.TID 0000.0001)                 1.422327061792377E+11,      /* J = 32 */
(PID.TID 0000.0001)                 1.323050064586578E+11,      /* J = 33 */
(PID.TID 0000.0001)                 1.217327300458638E+11,      /* J = 34 */
(PID.TID 0000.0001)                 1.105673840088173E+11,      /* J = 35 */
(PID.TID 0000.0001)                 9.886336479107463E+10,      /* J = 36 */
(PID.TID 0000.0001)                 8.667769319778079E+10,      /* J = 37 */
(PID.TID 0000.0001)                 7.406973659603818E+10,      /* J = 38 */
(PID.TID 0000.0001)                 6.110091968306414E+10,      /* J = 39 */
(PID.TID 0000.0001)                 4.783442523123625E+10       /* J = 40 */
(PID.TID 0000.0001)     ;
(PID.TID 0000.0001) 
(PID.TID 0000.0001)  MDSREADFIELD: opening global file: lev_t.bin
(PID.TID 0000.0001) // =======================================================
(PID.TID 0000.0001) // Field Initial Temperature at iteration          1
(PID.TID 0000.0001) // CMIN =         -8.538625820175458E-01
(PID.TID 0000.0001) // CMAX =          2.012045717433744E+00
(PID.TID 0000.0001) // CINT =          1.061447518315292E-01
(PID.TID 0000.0001) // SYMBOLS (CMIN->CMAX): -abcdefghijklmnopqrstuvwxyz+
(PID.TID 0000.0001) //                  0.0: .
(PID.TID 0000.0001) // RANGE I (Lo:Hi:Step):(   1:  90:   1)
(PID.TID 0000.0001) // RANGE J (Lo:Hi:Step):(  40:   1:  -1)
(PID.TID 0000.0001) // RANGE K (Lo:Hi:Step):(   1:   1:   1)
(PID.TID 0000.0001) // =======================================================
(PID.TID 0000.0001) K =   1
(PID.TID 0000.0001)                I=10      I=20      I=30      I=40      I=50      I=60      I=70      I=80      I=90
(PID.TID 0000.0001) |--J--|123456789|123456789|123456789|123456789|123456789|123456789|123456789|123456789|123456789|
(PID.TID 0000.0001)     40 ..........................................................................................
(PID.TID 0000.0001)     39 ..........................................................................................
(PID.TID 0000.0001)     38 ..........................................................................................
(PID.TID 0000.0001)     37 ..........................................................................................
(PID.TID 0000.0001)     36 ..........................................................................................
(PID.TID 0000.0001)     35 ..........................................................................................
(PID.TID 0000.0001)     34 ..........................................................................................
(PID.TID 0000.0001)     33 .......................................rrr.rrrrrrsss......................................
(PID.TID 0000.0001)     32 ......................................rrrr.rrrrssssss.....................................
(PID.TID 0000.0001)     31 ....................................rrrrrr.rrrrssssss......................yy.............
(PID.TID 0000.0001)     30 ....................................rrrr.rr.rrsssssssssss................yyyy.............
(PID.TID 0000.0001)     29 ...................................rrrr.rrr...rssrsrrssss...............yy.yyy.....++.....
(PID.TID 0000.0001)     28 ...................................rrrrrrrrrrrrrrrrrrr..................yyyxxx.....++.....
(PID.TID 0000.0001)     27 .....................................rrrrrrrr.r...rrr...................yyxxxx..zzzz+.....
(PID.TID 0000.0001)     26 ...............................tss..rrrrrrrrrrr....rrrrrr...............yyyxxx..zzzz......
(PID.TID 0000.0001)     25 ...............................stt..rrr..rq.....qrrrrqqqq.................www...zz........
(PID.TID 0000.0001)     24 ...............................tt...rrrrrqqqqqqqqqqqqqq.........................zzzz......
(PID.TID 0000.0001)     23 ....................................rrrr...qqqqq.qrrqrr.........................yzzz......
(PID.TID 0000.0001)     22 ...........................................qppppp..r.rr...................................
(PID.TID 0000.0001)     21 ...........................................pppppp.......................................yz
(PID.TID 0000.0001)     20 ............................................ppppppp...............................llp...zz
(PID.TID 0000.0001)     19 zz................qqq.......................pppp.pppp.............................lll.....
(PID.TID 0000.0001)     18 zz................qqq....oo.o.....................qpq.............................lll....z
(PID.TID 0000.0001)     17 zz................qqq.ooooooo.....................qp..............................lll....z
(PID.TID 0000.0001)     16 ++.................qq.oooooo...................nno................................llm....+
(PID.TID 0000.0001)     15 +......................noooo..................nnno................................llm....+
(PID.TID 0000.0001)     14 +...........nnn........nn.o...................nnnooo..............................mmm....+
(PID.TID 0000.0001)     13 .oo.........nnn...........oo..................nnnnnnoo....................................
(PID.TID 0000.0001)     12 nmm.......................nn..mmm.............ooooooooo...................................
(PID.TID 0000.0001)     11 oon.ll........ii...........mmmmmmmm...........n.noooooooo....................ggfgg........
(PID.TID 0000.0001)     10 on..l.hi......ii..............lmmmm.............mnnoooooo...................hhgggg........
(PID.TID 0000.0001)      9 .....ggg......................................nmmmmnnnnnn...................hhgggg........
(PID.TID 0000.0001)      8 .....fe......................................mmmmmm............................ff.........
(PID.TID 0000.0001)      7 .......bb...cc.............................llmmmm.................iii.....................
(PID.TID 0000.0001)      6 -aaaaabbbbbbccc............................lllm.............hhi.i.iii....................-
(PID.TID 0000.0001)      5 ---aaaaaaaaabbb...........................................hhhhhhhh.h.................-----
(PID.TID 0000.0001)      4 ..-aaaaa..................................................hhhhhhh....................----a
(PID.TID 0000.0001)      3 ..........................................................................................
(PID.TID 0000.0001)      2 ..........................................................................................
(PID.TID 0000.0001)      1 ..........................................................................................
(PID.TID 0000.0001) // =======================================================
(PID.TID 0000.0001) // END OF FIELD                                          =
(PID.TID 0000.0001) // =======================================================
(PID.TID 0000.0001) 
(PID.TID 0000.0001)  MDSREADFIELD: opening global file: lev_s.bin
(PID.TID 0000.0001) // =======================================================
(PID.TID 0000.0001) // Field Initial Salinity at iteration          1
(PID.TID 0000.0001) // CMIN =          3.464784170881562E+01
(PID.TID 0000.0001) // CMAX =          3.490372370636981E+01
(PID.TID 0000.0001) // CINT =          9.477111020525586E-03
(PID.TID 0000.0001) // SYMBOLS (CMIN->CMAX): -abcdefghijklmnopqrstuvwxyz+
(PID.TID 0000.0001) //                  0.0: .
(PID.TID 0000.0001) // RANGE I (Lo:Hi:Step):(   1:  90:   1)
(PID.TID 0000.0001) // RANGE J (Lo:Hi:Step):(  40:   1:  -1)
(PID.TID 0000.0001) // RANGE K (Lo:Hi:Step):(   1:   1:   1)
(PID.TID 0000.0001) // =======================================================
(PID.TID 0000.0001) K =   1
(PID.TID 0000.0001)                I=10      I=20      I=30      I=40      I=50      I=60      I=70      I=80      I=90
(PID.TID 0000.0001) |--J--|123456789|123456789|123456789|123456789|123456789|123456789|123456789|123456789|123456789|
(PID.TID 0000.0001)     40 ..........................................................................................
(PID.TID 0000.0001)     39 ..........................................................................................
(PID.TID 0000.0001)     38 ..........................................................................................
(PID.TID 0000.0001)     37 ..........................................................................................
(PID.TID 0000.0001)     36 ..........................................................................................
(PID.TID 0000.0001)     35 ..........................................................................................
(PID.TID 0000.0001)     34 ..........................................................................................
(PID.TID 0000.0001)     33 .......................................ddd.ddeeeeddd......................................
(PID.TID 0000.0001)     32 ......................................dddd.dddddddddd.....................................
(PID.TID 0000.0001)     31 ....................................edddde.eeedddddde......................+z.............
(PID.TID 0000.0001)     30 ....................................eefe.ee.eddddddddddee................+++z.............
(PID.TID 0000.0001)     29 ...................................ddee.dee...dddddeddddd...............++.zyy.....yz.....
(PID.TID 0000.0001)     28 ...................................cceebdeeeeeeddddded..................zzzyxx.....zz.....
(PID.TID 0000.0001)     27 .....................................deddeedd.e...dde...................zyyxxx..zzyzz.....
(PID.TID 0000.0001)     26 ...............................ddd..feeeeeeedef....eeeeee...............yzywww..z+zz......
(PID.TID 0000.0001)     25 ...............................ddc..edd..fe.....eeffffeee.................wwv...++........
(PID.TID 0000.0001)     24 ...............................dd...ddeffffeffefeeffeee.........................yyyz......
(PID.TID 0000.0001)     23 ....................................eded...effff.dffeee.........................yyzz......
(PID.TID 0000.0001)     22 ...........................................efffff..e.ee...................................
(PID.TID 0000.0001)     21 ...........................................fffgff.......................................yx
(PID.TID 0000.0001)     20 ............................................fghgffg...............................hin...xx
(PID.TID 0000.0001)     19 xy................ggf.......................fggg.ffff.............................iii.....
(PID.TID 0000.0001)     18 yy................cdd....gh.h.....................fff.............................ihh....y
(PID.TID 0000.0001)     17 yy................ddf.gggghhh.....................ff..............................ijj....y
(PID.TID 0000.0001)     16 yy.................fh.gggggi...................gff................................hii....y
(PID.TID 0000.0001)     15 y......................fgggh..................gggg................................gii....y
(PID.TID 0000.0001)     14 y...........ggg........gg.g...................gggggg..............................ijj....y
(PID.TID 0000.0001)     13 .ii.........ggg...........gg..................gggggfgg....................................
(PID.TID 0000.0001)     12 hhh.......................gg..ggg.............gggggfggg...................................
(PID.TID 0000.0001)     11 ggg.gf........dd...........hggggggg...........f.fggffffgg....................ccbcc........
(PID.TID 0000.0001)     10 gg..f.de......dd..............hgggg.............gfgggfggg...................edcccb........
(PID.TID 0000.0001)      9 .....ccd......................................fffffgggffg...................ccccbb........
(PID.TID 0000.0001)      8 .....cc......................................ffffff............................bb.........
(PID.TID 0000.0001)      7 .......bb...bb.............................efffff.................fff.....................
(PID.TID 0000.0001)      6 ---aaaaaaaabbbb............................efff.............fff.f.fff....................-
(PID.TID 0000.0001)      5 ---aaabaaaaaaaa...........................................ffgfffgf.f.................-----
(PID.TID 0000.0001)      4 ..-aabba..................................................fffffff....................-----
(PID.TID 0000.0001)      3 ..........................................................................................
(PID.TID 0000.0001)      2 ..........................................................................................
(PID.TID 0000.0001)      1 ..........................................................................................
(PID.TID 0000.0001) // =======================================================
(PID.TID 0000.0001) // END OF FIELD                                          =
(PID.TID 0000.0001) // =======================================================
(PID.TID 0000.0001) 
(PID.TID 0000.0001) Start initial hydrostatic pressure computation
(PID.TID 0000.0001) Pressure is predetermined for buoyancyRelation OCEANICP
(PID.TID 0000.0001) 
(PID.TID 0000.0001)  MDSREADFIELD: opening global file: trenberth_taux.bin
(PID.TID 0000.0001)  MDSREADFIELD: opening global file: trenberth_tauy.bin
(PID.TID 0000.0001)  MDSREADFIELD: opening global file: shi_qnet.bin
(PID.TID 0000.0001)  MDSREADFIELD: opening global file: shi_empmr.bin
(PID.TID 0000.0001)  MDSREADFIELD: opening global file: lev_sst.bin
(PID.TID 0000.0001)  MDSREADFIELD: opening global file: deltageopotjmd95.bin
(PID.TID 0000.0001) // =======================================================
(PID.TID 0000.0001) // Model current state
(PID.TID 0000.0001) // =======================================================
(PID.TID 0000.0001) 
(PID.TID 0000.0001) // =======================================================
(PID.TID 0000.0001) // Begin MONITOR dynamic field statistics
(PID.TID 0000.0001) // =======================================================
(PID.TID 0000.0001) %MON time_tsnumber                =                     0
(PID.TID 0000.0001) %MON time_secondsf                =   0.0000000000000E+00
(PID.TID 0000.0001) %MON dynstat_eta_max              =   0.0000000000000E+00
(PID.TID 0000.0001) %MON dynstat_eta_min              =   0.0000000000000E+00
(PID.TID 0000.0001) %MON dynstat_eta_mean             =   0.0000000000000E+00
(PID.TID 0000.0001) %MON dynstat_eta_sd               =   0.0000000000000E+00
(PID.TID 0000.0001) %MON dynstat_eta_del2             =   0.0000000000000E+00
(PID.TID 0000.0001) %MON dynstat_uvel_max             =   0.0000000000000E+00
(PID.TID 0000.0001) %MON dynstat_uvel_min             =   0.0000000000000E+00
(PID.TID 0000.0001) %MON dynstat_uvel_mean            =   0.0000000000000E+00
(PID.TID 0000.0001) %MON dynstat_uvel_sd              =   0.0000000000000E+00
(PID.TID 0000.0001) %MON dynstat_uvel_del2            =   0.0000000000000E+00
(PID.TID 0000.0001) %MON dynstat_vvel_max             =   0.0000000000000E+00
(PID.TID 0000.0001) %MON dynstat_vvel_min             =   0.0000000000000E+00
(PID.TID 0000.0001) %MON dynstat_vvel_mean            =   0.0000000000000E+00
(PID.TID 0000.0001) %MON dynstat_vvel_sd              =   0.0000000000000E+00
(PID.TID 0000.0001) %MON dynstat_vvel_del2            =   0.0000000000000E+00
(PID.TID 0000.0001) %MON dynstat_wvel_max             =   0.0000000000000E+00
(PID.TID 0000.0001) %MON dynstat_wvel_min             =   0.0000000000000E+00
(PID.TID 0000.0001) %MON dynstat_wvel_mean            =   0.0000000000000E+00
(PID.TID 0000.0001) %MON dynstat_wvel_sd              =   0.0000000000000E+00
(PID.TID 0000.0001) %MON dynstat_wvel_del2            =   0.0000000000000E+00
(PID.TID 0000.0001) %MON dynstat_theta_max            =   2.9733511003948E+01
(PID.TID 0000.0001) %MON dynstat_theta_min            =  -2.6263839329562E+00
(PID.TID 0000.0001) %MON dynstat_theta_mean           =   3.6018664655656E+00
(PID.TID 0000.0001) %MON dynstat_theta_sd             =   4.4018845380981E+00
(PID.TID 0000.0001) %MON dynstat_theta_del2           =   1.5429255071065E-01
(PID.TID 0000.0001) %MON dynstat_salt_max             =   3.7475629659304E+01
(PID.TID 0000.0001) %MON dynstat_salt_min             =   2.9752769471420E+01
(PID.TID 0000.0001) %MON dynstat_salt_mean            =   3.4718001015839E+01
(PID.TID 0000.0001) %MON dynstat_salt_sd              =   2.9462524950605E-01
(PID.TID 0000.0001) %MON dynstat_salt_del2            =   2.6846692931047E-02
(PID.TID 0000.0001) %MON advcfl_uvel_max              =   0.0000000000000E+00
(PID.TID 0000.0001) %MON advcfl_vvel_max              =   0.0000000000000E+00
(PID.TID 0000.0001) %MON advcfl_wvel_max              =   0.0000000000000E+00
(PID.TID 0000.0001) %MON advcfl_W_hf_max              =   0.0000000000000E+00
(PID.TID 0000.0001) %MON pe_b_mean                    =   0.0000000000000E+00
(PID.TID 0000.0001) %MON ke_max                       =   0.0000000000000E+00
(PID.TID 0000.0001) %MON ke_mean                      =   0.0000000000000E+00
(PID.TID 0000.0001) %MON ke_vol                       =   1.3442141716554E+22
(PID.TID 0000.0001) %MON vort_r_min                   =   0.0000000000000E+00
(PID.TID 0000.0001) %MON vort_r_max                   =   0.0000000000000E+00
(PID.TID 0000.0001) %MON vort_a_mean                  =  -2.4531015880775E-05
(PID.TID 0000.0001) %MON vort_a_sd                    =   7.3436042941020E-05
(PID.TID 0000.0001) %MON vort_p_mean                  =  -2.9390264918859E-05
(PID.TID 0000.0001) %MON vort_p_sd                    =   1.0331963168452E-04
(PID.TID 0000.0001) %MON surfExpan_theta_mean         =   0.0000000000000E+00
(PID.TID 0000.0001) %MON surfExpan_salt_mean          =   0.0000000000000E+00
(PID.TID 0000.0001) // =======================================================
(PID.TID 0000.0001) // End MONITOR dynamic field statistics
(PID.TID 0000.0001) // =======================================================
S/R EXTERNAL_FIELDS_LOAD: Reading new data:   12    1         0  0.000000000000E+00
(PID.TID 0000.0001)  MDSREADFIELD: opening global file: trenberth_taux.bin
(PID.TID 0000.0001)  MDSREADFIELD: opening global file: trenberth_taux.bin
(PID.TID 0000.0001)  MDSREADFIELD: opening global file: trenberth_tauy.bin
(PID.TID 0000.0001)  MDSREADFIELD: opening global file: trenberth_tauy.bin
(PID.TID 0000.0001)  MDSREADFIELD: opening global file: shi_qnet.bin
(PID.TID 0000.0001)  MDSREADFIELD: opening global file: shi_qnet.bin
(PID.TID 0000.0001)  MDSREADFIELD: opening global file: shi_empmr.bin
(PID.TID 0000.0001)  MDSREADFIELD: opening global file: shi_empmr.bin
(PID.TID 0000.0001)  MDSREADFIELD: opening global file: lev_sst.bin
(PID.TID 0000.0001)  MDSREADFIELD: opening global file: lev_sst.bin
(PID.TID 0000.0001)  MDSREADFIELD: opening global file: deltageopotjmd95.bin
(PID.TID 0000.0001)  MDSREADFIELD: opening global file: deltageopotjmd95.bin
time,SST,SSS,fu,fv,Q,E-P,i0,i1,a,b =   0.0000E+00  2.4948E+01  0.0000E+00 -1.0804E-02  2.9462E-02 -8.6505E+01 -5.1109E-09    12     1  5.3333E-01  4.6667E-01
time,fu0,fu1,fu =   0.0000E+00 -1.3840E-02 -8.1474E-03 -1.0804E-02  5.333333333333333E-01  4.666666666666667E-01
 cg2d: Sum(rhs),rhsMax =  -2.05391259555654E-15  1.71163425510702E+02
(PID.TID 0000.0001)                    cg2d_init_res =    9.36692322438535E+00
(PID.TID 0000.0001)                       cg2d_iters =   107
(PID.TID 0000.0001)                         cg2d_res =    9.63027430221289E-10
(PID.TID 0000.0001) // =======================================================
(PID.TID 0000.0001) // Begin MONITOR dynamic field statistics
(PID.TID 0000.0001) // =======================================================
(PID.TID 0000.0001) %MON time_tsnumber                =                     1
(PID.TID 0000.0001) %MON time_secondsf                =   1.7280000000000E+05
(PID.TID 0000.0001) %MON dynstat_eta_max              =   4.1657054247863E+04
(PID.TID 0000.0001) %MON dynstat_eta_min              =  -8.8276366926488E+04
(PID.TID 0000.0001) %MON dynstat_eta_mean             =  -1.2066616639904E-12
(PID.TID 0000.0001) %MON dynstat_eta_sd               =   3.6901404654730E+04
(PID.TID 0000.0001) %MON dynstat_eta_del2             =   2.3562066746139E+04
(PID.TID 0000.0001) %MON dynstat_uvel_max             =   3.5125570520589E-02
(PID.TID 0000.0001) %MON dynstat_uvel_min             =  -3.5357333914090E-02
(PID.TID 0000.0001) %MON dynstat_uvel_mean            =  -8.4137015636217E-04
(PID.TID 0000.0001) %MON dynstat_uvel_sd              =   2.2142796997946E-03
(PID.TID 0000.0001) %MON dynstat_uvel_del2            =   7.7406181280616E-04
(PID.TID 0000.0001) %MON dynstat_vvel_max             =   3.5007899096566E-02
(PID.TID 0000.0001) %MON dynstat_vvel_min             =  -2.4495986172965E-02
(PID.TID 0000.0001) %MON dynstat_vvel_mean            =   1.0871904643115E-03
(PID.TID 0000.0001) %MON dynstat_vvel_sd              =   2.2888120494056E-03
(PID.TID 0000.0001) %MON dynstat_vvel_del2            =   7.6102694666394E-04
(PID.TID 0000.0001) %MON dynstat_wvel_max             =   5.0250209032202E-01
(PID.TID 0000.0001) %MON dynstat_wvel_min             =  -6.2689411258262E-01
(PID.TID 0000.0001) %MON dynstat_wvel_mean            =  -6.6717820356569E-03
(PID.TID 0000.0001) %MON dynstat_wvel_sd              =   1.5353629408820E-01
(PID.TID 0000.0001) %MON dynstat_wvel_del2            =   6.1610655097651E-02
(PID.TID 0000.0001) %MON dynstat_theta_max            =   2.9713265304180E+01
(PID.TID 0000.0001) %MON dynstat_theta_min            =  -2.6183664565810E+00
(PID.TID 0000.0001) %MON dynstat_theta_mean           =   3.6019910573993E+00
(PID.TID 0000.0001) %MON dynstat_theta_sd             =   4.4015315967486E+00
(PID.TID 0000.0001) %MON dynstat_theta_del2           =   1.5479567598383E-01
(PID.TID 0000.0001) %MON dynstat_salt_max             =   3.7478618521905E+01
(PID.TID 0000.0001) %MON dynstat_salt_min             =   2.9762213911218E+01
(PID.TID 0000.0001) %MON dynstat_salt_mean            =   3.4718001015839E+01
(PID.TID 0000.0001) %MON dynstat_salt_sd              =   2.9451022507208E-01
(PID.TID 0000.0001) %MON dynstat_salt_del2            =   2.6959492538962E-02
(PID.TID 0000.0001) %MON advcfl_uvel_max              =   2.1969108758924E-02
(PID.TID 0000.0001) %MON advcfl_vvel_max              =   1.3602946670526E-02
(PID.TID 0000.0001) %MON advcfl_wvel_max              =   4.1333496051732E-02
(PID.TID 0000.0001) %MON advcfl_W_hf_max              =   4.1333496051731E-02
(PID.TID 0000.0001) %MON pe_b_mean                    =  -6.4368928338366E-03
(PID.TID 0000.0001) %MON ke_max                       =   5.7558563512406E-04
(PID.TID 0000.0001) %MON ke_mean                      =   5.4208973968005E-06
(PID.TID 0000.0001) %MON ke_vol                       =   1.3442141716554E+22
(PID.TID 0000.0001) %MON vort_r_min                   =  -1.1938183909510E-07
(PID.TID 0000.0001) %MON vort_r_max                   =   1.5594949449135E-07
(PID.TID 0000.0001) %MON vort_a_mean                  =  -2.4531015891593E-05
(PID.TID 0000.0001) %MON vort_a_sd                    =   7.3435845880135E-05
(PID.TID 0000.0001) %MON vort_p_mean                  =  -2.9390264931819E-05
(PID.TID 0000.0001) %MON vort_p_sd                    =   1.0331909362915E-04
(PID.TID 0000.0001) %MON surfExpan_theta_mean         =   6.7339828297793E-02
(PID.TID 0000.0001) %MON surfExpan_salt_mean          =  -2.2621691900054E-04
(PID.TID 0000.0001) // =======================================================
(PID.TID 0000.0001) // End MONITOR dynamic field statistics
(PID.TID 0000.0001) // =======================================================
time,SST,SSS,fu,fv,Q,E-P,i0,i1,a,b =   1.7280E+05  2.5087E+01  0.0000E+00 -1.0425E-02  2.8680E-02 -8.7292E+01 -5.1109E-09    12     1  6.0000E-01  4.0000E-01
time,fu0,fu1,fu =   1.7280E+05 -1.3840E-02 -8.1474E-03 -1.0425E-02  6.000000000000000E-01  4.000000000000000E-01
 cg2d: Sum(rhs),rhsMax =  -6.66133814775094E-16  1.74491050128407E+02
(PID.TID 0000.0001)                    cg2d_init_res =    2.47708251814520E-01
(PID.TID 0000.0001)                       cg2d_iters =   100
(PID.TID 0000.0001)                         cg2d_res =    8.69463897335173E-10
(PID.TID 0000.0001) // =======================================================
(PID.TID 0000.0001) // Begin MONITOR dynamic field statistics
(PID.TID 0000.0001) // =======================================================
(PID.TID 0000.0001) %MON time_tsnumber                =                     2
(PID.TID 0000.0001) %MON time_secondsf                =   3.4560000000000E+05
(PID.TID 0000.0001) %MON dynstat_eta_max              =   4.8800885451682E+04
(PID.TID 0000.0001) %MON dynstat_eta_min              =  -8.9519103267936E+04
(PID.TID 0000.0001) %MON dynstat_eta_mean             =   1.9745372683480E-12
(PID.TID 0000.0001) %MON dynstat_eta_sd               =   3.9643958942461E+04
(PID.TID 0000.0001) %MON dynstat_eta_del2             =   2.4287467782550E+04
(PID.TID 0000.0001) %MON dynstat_uvel_max             =   6.3634001837210E-02
(PID.TID 0000.0001) %MON dynstat_uvel_min             =  -4.0770290811278E-02
(PID.TID 0000.0001) %MON dynstat_uvel_mean            =  -1.1816096659137E-03
(PID.TID 0000.0001) %MON dynstat_uvel_sd              =   2.2777904989430E-03
(PID.TID 0000.0001) %MON dynstat_uvel_del2            =   8.3222277279295E-04
(PID.TID 0000.0001) %MON dynstat_vvel_max             =   5.2234906396762E-02
(PID.TID 0000.0001) %MON dynstat_vvel_min             =  -3.0675599149302E-02
(PID.TID 0000.0001) %MON dynstat_vvel_mean            =   1.5483551430092E-03
(PID.TID 0000.0001) %MON dynstat_vvel_sd              =   2.9966033014778E-03
(PID.TID 0000.0001) %MON dynstat_vvel_del2            =   9.0390612271294E-04
(PID.TID 0000.0001) %MON dynstat_wvel_max             =   6.3728869166149E-01
(PID.TID 0000.0001) %MON dynstat_wvel_min             =  -7.8830947903474E-01
(PID.TID 0000.0001) %MON dynstat_wvel_mean            =  -3.3033109002126E-03
(PID.TID 0000.0001) %MON dynstat_wvel_sd              =   8.9420018279278E-02
(PID.TID 0000.0001) %MON dynstat_wvel_del2            =   4.6781531729726E-02
(PID.TID 0000.0001) %MON dynstat_theta_max            =   2.9688317804809E+01
(PID.TID 0000.0001) %MON dynstat_theta_min            =  -2.6127583275514E+00
(PID.TID 0000.0001) %MON dynstat_theta_mean           =   3.6019450094693E+00
(PID.TID 0000.0001) %MON dynstat_theta_sd             =   4.4012662195726E+00
(PID.TID 0000.0001) %MON dynstat_theta_del2           =   1.5406689412191E-01
(PID.TID 0000.0001) %MON dynstat_salt_max             =   3.7481694673917E+01
(PID.TID 0000.0001) %MON dynstat_salt_min             =   2.9765580138603E+01
(PID.TID 0000.0001) %MON dynstat_salt_mean            =   3.4718001573786E+01
(PID.TID 0000.0001) %MON dynstat_salt_sd              =   2.9441685784094E-01
(PID.TID 0000.0001) %MON dynstat_salt_del2            =   2.7040206810268E-02
(PID.TID 0000.0001) %MON advcfl_uvel_max              =   3.3744380940884E-02
(PID.TID 0000.0001) %MON advcfl_vvel_max              =   2.0296809131422E-02
(PID.TID 0000.0001) %MON advcfl_wvel_max              =   5.3361533856158E-02
(PID.TID 0000.0001) %MON advcfl_W_hf_max              =   5.3361533856158E-02
(PID.TID 0000.0001) %MON pe_b_mean                    =  -7.1800599538241E-03
(PID.TID 0000.0001) %MON ke_max                       =   1.7108386072513E-03
(PID.TID 0000.0001) %MON ke_mean                      =   8.0817914725128E-06
(PID.TID 0000.0001) %MON ke_vol                       =   1.3442141716554E+22
(PID.TID 0000.0001) %MON vort_r_min                   =  -1.7583665387325E-07
(PID.TID 0000.0001) %MON vort_r_max                   =   1.8567060982646E-07
(PID.TID 0000.0001) %MON vort_a_mean                  =  -2.4531016005854E-05
(PID.TID 0000.0001) %MON vort_a_sd                    =   7.3435759247919E-05
(PID.TID 0000.0001) %MON vort_p_mean                  =  -2.9399877548461E-05
(PID.TID 0000.0001) %MON vort_p_sd                    =   1.0336783838992E-04
(PID.TID 0000.0001) %MON surfExpan_theta_mean         =   3.6681744603647E-02
(PID.TID 0000.0001) %MON surfExpan_salt_mean          =  -9.6950610672525E-05
(PID.TID 0000.0001) // =======================================================
(PID.TID 0000.0001) // End MONITOR dynamic field statistics
(PID.TID 0000.0001) // =======================================================
time,SST,SSS,fu,fv,Q,E-P,i0,i1,a,b =   3.4560E+05  2.5227E+01  0.0000E+00 -1.0045E-02  2.7897E-02 -8.8079E+01 -5.1109E-09    12     1  6.6667E-01  3.3333E-01
time,fu0,fu1,fu =   3.4560E+05 -1.3840E-02 -8.1474E-03 -1.0045E-02  6.666666666666666E-01  3.333333333333334E-01
 cg2d: Sum(rhs),rhsMax =   7.49400541621981E-16  1.72945931122558E+02
(PID.TID 0000.0001)                    cg2d_init_res =    1.06014953806221E-01
(PID.TID 0000.0001)                       cg2d_iters =    99
(PID.TID 0000.0001)                         cg2d_res =    8.15178257141548E-10
(PID.TID 0000.0001) // =======================================================
(PID.TID 0000.0001) // Begin MONITOR dynamic field statistics
(PID.TID 0000.0001) // =======================================================
(PID.TID 0000.0001) %MON time_tsnumber                =                     3
(PID.TID 0000.0001) %MON time_secondsf                =   5.1840000000000E+05
(PID.TID 0000.0001) %MON dynstat_eta_max              =   5.1297596094537E+04
(PID.TID 0000.0001) %MON dynstat_eta_min              =  -9.1295459277248E+04
(PID.TID 0000.0001) %MON dynstat_eta_mean             =   3.9490745366959E-12
(PID.TID 0000.0001) %MON dynstat_eta_sd               =   3.9696770276978E+04
(PID.TID 0000.0001) %MON dynstat_eta_del2             =   2.3981509011562E+04
(PID.TID 0000.0001) %MON dynstat_uvel_max             =   7.1974341706758E-02
(PID.TID 0000.0001) %MON dynstat_uvel_min             =  -5.1968556095496E-02
(PID.TID 0000.0001) %MON dynstat_uvel_mean            =  -1.1614086888245E-03
(PID.TID 0000.0001) %MON dynstat_uvel_sd              =   2.7063555231913E-03
(PID.TID 0000.0001) %MON dynstat_uvel_del2            =   1.1074014189491E-03
(PID.TID 0000.0001) %MON dynstat_vvel_max             =   5.4077287455519E-02
(PID.TID 0000.0001) %MON dynstat_vvel_min             =  -4.5486544133519E-02
(PID.TID 0000.0001) %MON dynstat_vvel_mean            =   1.5247160880464E-03
(PID.TID 0000.0001) %MON dynstat_vvel_sd              =   4.1663361150905E-03
(PID.TID 0000.0001) %MON dynstat_vvel_del2            =   1.2424148905347E-03
(PID.TID 0000.0001) %MON dynstat_wvel_max             =   8.8862454219559E-01
(PID.TID 0000.0001) %MON dynstat_wvel_min             =  -1.0818412023474E+00
(PID.TID 0000.0001) %MON dynstat_wvel_mean            =  -1.5498389792617E-03
(PID.TID 0000.0001) %MON dynstat_wvel_sd              =   1.2224221180564E-01
(PID.TID 0000.0001) %MON dynstat_wvel_del2            =   6.2569732073587E-02
(PID.TID 0000.0001) %MON dynstat_theta_max            =   2.9675051451633E+01
(PID.TID 0000.0001) %MON dynstat_theta_min            =  -2.6038579281500E+00
(PID.TID 0000.0001) %MON dynstat_theta_mean           =   3.6021604300180E+00
(PID.TID 0000.0001) %MON dynstat_theta_sd             =   4.4012819006897E+00
(PID.TID 0000.0001) %MON dynstat_theta_del2           =   1.5212462181663E-01
(PID.TID 0000.0001) %MON dynstat_salt_max             =   3.7435160944133E+01
(PID.TID 0000.0001) %MON dynstat_salt_min             =   2.9770563581341E+01
(PID.TID 0000.0001) %MON dynstat_salt_mean            =   3.4718001226688E+01
(PID.TID 0000.0001) %MON dynstat_salt_sd              =   2.9442255053707E-01
(PID.TID 0000.0001) %MON dynstat_salt_del2            =   2.6913038671071E-02
(PID.TID 0000.0001) %MON advcfl_uvel_max              =   4.2013703142424E-02
(PID.TID 0000.0001) %MON advcfl_vvel_max              =   2.1012699314376E-02
(PID.TID 0000.0001) %MON advcfl_wvel_max              =   6.7819187235145E-02
(PID.TID 0000.0001) %MON advcfl_W_hf_max              =   6.7819187235145E-02
(PID.TID 0000.0001) %MON pe_b_mean                    =  -8.1525628836275E-03
(PID.TID 0000.0001) %MON ke_max                       =   2.0313693430969E-03
(PID.TID 0000.0001) %MON ke_mean                      =   1.2750677697987E-05
(PID.TID 0000.0001) %MON ke_vol                       =   1.3442141716554E+22
(PID.TID 0000.0001) %MON vort_r_min                   =  -2.0971452288325E-07
(PID.TID 0000.0001) %MON vort_r_max                   =   2.3822997751852E-07
(PID.TID 0000.0001) %MON vort_a_mean                  =  -2.4531016156361E-05
(PID.TID 0000.0001) %MON vort_a_sd                    =   7.3435757775263E-05
(PID.TID 0000.0001) %MON vort_p_mean                  =  -2.9400606300679E-05
(PID.TID 0000.0001) %MON vort_p_sd                    =   1.0337416737871E-04
(PID.TID 0000.0001) %MON surfExpan_theta_mean         =   1.7624238245024E-02
(PID.TID 0000.0001) %MON surfExpan_salt_mean          =  -2.8926157760816E-04
(PID.TID 0000.0001) // =======================================================
(PID.TID 0000.0001) // End MONITOR dynamic field statistics
(PID.TID 0000.0001) // =======================================================
time,SST,SSS,fu,fv,Q,E-P,i0,i1,a,b =   5.1840E+05  2.5366E+01  0.0000E+00 -9.6655E-03  2.7114E-02 -8.8865E+01 -5.1109E-09    12     1  7.3333E-01  2.6667E-01
time,fu0,fu1,fu =   5.1840E+05 -1.3840E-02 -8.1474E-03 -9.6655E-03  7.333333333333333E-01  2.666666666666667E-01
 cg2d: Sum(rhs),rhsMax =   6.38378239159465E-16  1.72905620506254E+02
(PID.TID 0000.0001)                    cg2d_init_res =    8.88323600673262E-03
(PID.TID 0000.0001)                       cg2d_iters =    91
(PID.TID 0000.0001)                         cg2d_res =    9.15912190936292E-10
(PID.TID 0000.0001) // =======================================================
(PID.TID 0000.0001) // Begin MONITOR dynamic field statistics
(PID.TID 0000.0001) // =======================================================
(PID.TID 0000.0001) %MON time_tsnumber                =                     4
(PID.TID 0000.0001) %MON time_secondsf                =   6.9120000000000E+05
(PID.TID 0000.0001) %MON dynstat_eta_max              =   5.1013669238349E+04
(PID.TID 0000.0001) %MON dynstat_eta_min              =  -9.2901613710442E+04
(PID.TID 0000.0001) %MON dynstat_eta_mean             =  -3.9490745366959E-12
(PID.TID 0000.0001) %MON dynstat_eta_sd               =   4.0207165642733E+04
(PID.TID 0000.0001) %MON dynstat_eta_del2             =   2.3955142724577E+04
(PID.TID 0000.0001) %MON dynstat_uvel_max             =   6.1609450718205E-02
(PID.TID 0000.0001) %MON dynstat_uvel_min             =  -7.8156767153649E-02
(PID.TID 0000.0001) %MON dynstat_uvel_mean            =  -8.8769546381925E-04
(PID.TID 0000.0001) %MON dynstat_uvel_sd              =   3.1026042117329E-03
(PID.TID 0000.0001) %MON dynstat_uvel_del2            =   1.3422795011797E-03
(PID.TID 0000.0001) %MON dynstat_vvel_max             =   5.0830161763303E-02
(PID.TID 0000.0001) %MON dynstat_vvel_min             =  -5.9423759556912E-02
(PID.TID 0000.0001) %MON dynstat_vvel_mean            =   1.2053469042913E-03
(PID.TID 0000.0001) %MON dynstat_vvel_sd              =   5.2716606571475E-03
(PID.TID 0000.0001) %MON dynstat_vvel_del2            =   1.5552158388222E-03
(PID.TID 0000.0001) %MON dynstat_wvel_max             =   1.1534444334347E+00
(PID.TID 0000.0001) %MON dynstat_wvel_min             =  -1.3278288330987E+00
(PID.TID 0000.0001) %MON dynstat_wvel_mean            =  -9.7457660745763E-04
(PID.TID 0000.0001) %MON dynstat_wvel_sd              =   1.4928687545456E-01
(PID.TID 0000.0001) %MON dynstat_wvel_del2            =   7.3883504039514E-02
(PID.TID 0000.0001) %MON dynstat_theta_max            =   2.9664831915469E+01
(PID.TID 0000.0001) %MON dynstat_theta_min            =  -2.5955295728677E+00
(PID.TID 0000.0001) %MON dynstat_theta_mean           =   3.6023453975681E+00
(PID.TID 0000.0001) %MON dynstat_theta_sd             =   4.4013280690379E+00
(PID.TID 0000.0001) %MON dynstat_theta_del2           =   1.4997265774337E-01
(PID.TID 0000.0001) %MON dynstat_salt_max             =   3.7435137774158E+01
(PID.TID 0000.0001) %MON dynstat_salt_min             =   2.9775143563911E+01
(PID.TID 0000.0001) %MON dynstat_salt_mean            =   3.4718001734933E+01
(PID.TID 0000.0001) %MON dynstat_salt_sd              =   2.9441625378714E-01
(PID.TID 0000.0001) %MON dynstat_salt_del2            =   2.6758708214577E-02
(PID.TID 0000.0001) %MON advcfl_uvel_max              =   4.9443930325412E-02
(PID.TID 0000.0001) %MON advcfl_vvel_max              =   2.3090166878770E-02
(PID.TID 0000.0001) %MON advcfl_wvel_max              =   8.2187504604562E-02
(PID.TID 0000.0001) %MON advcfl_W_hf_max              =   8.2187504604562E-02
(PID.TID 0000.0001) %MON pe_b_mean                    =  -8.3976387883560E-03
(PID.TID 0000.0001) %MON ke_max                       =   2.4116635839909E-03
(PID.TID 0000.0001) %MON ke_mean                      =   1.7824354847271E-05
(PID.TID 0000.0001) %MON ke_vol                       =   1.3442141716554E+22
(PID.TID 0000.0001) %MON vort_r_min                   =  -2.2419184362316E-07
(PID.TID 0000.0001) %MON vort_r_max                   =   2.8406104578603E-07
(PID.TID 0000.0001) %MON vort_a_mean                  =  -2.4531016293400E-05
(PID.TID 0000.0001) %MON vort_a_sd                    =   7.3435817992504E-05
(PID.TID 0000.0001) %MON vort_p_mean                  =  -2.9400708514224E-05
(PID.TID 0000.0001) %MON vort_p_sd                    =   1.0337649613391E-04
(PID.TID 0000.0001) %MON surfExpan_theta_mean         =   1.0062351754388E-02
(PID.TID 0000.0001) %MON surfExpan_salt_mean          =  -2.3718679371224E-04
(PID.TID 0000.0001) // =======================================================
(PID.TID 0000.0001) // End MONITOR dynamic field statistics
(PID.TID 0000.0001) // =======================================================
time,SST,SSS,fu,fv,Q,E-P,i0,i1,a,b =   6.9120E+05  2.5505E+01  0.0000E+00 -9.2860E-03  2.6332E-02 -8.9652E+01 -5.1109E-09    12     1  8.0000E-01  2.0000E-01
time,fu0,fu1,fu =   6.9120E+05 -1.3840E-02 -8.1474E-03 -9.2860E-03  8.000000000000000E-01  2.000000000000000E-01
 cg2d: Sum(rhs),rhsMax =   2.88657986402541E-15  1.72918688151787E+02
(PID.TID 0000.0001)                    cg2d_init_res =    4.68680662110758E-03
(PID.TID 0000.0001)                       cg2d_iters =    94
(PID.TID 0000.0001)                         cg2d_res =    9.71861085118613E-10
(PID.TID 0000.0001) // =======================================================
(PID.TID 0000.0001) // Begin MONITOR dynamic field statistics
(PID.TID 0000.0001) // =======================================================
(PID.TID 0000.0001) %MON time_tsnumber                =                     5
(PID.TID 0000.0001) %MON time_secondsf                =   8.6400000000000E+05
(PID.TID 0000.0001) %MON dynstat_eta_max              =   5.8773265929171E+04
(PID.TID 0000.0001) %MON dynstat_eta_min              =  -9.4342778424819E+04
(PID.TID 0000.0001) %MON dynstat_eta_mean             =  -3.5102884770630E-12
(PID.TID 0000.0001) %MON dynstat_eta_sd               =   4.0653010601909E+04
(PID.TID 0000.0001) %MON dynstat_eta_del2             =   2.3953583552304E+04
(PID.TID 0000.0001) %MON dynstat_uvel_max             =   5.9543741290494E-02
(PID.TID 0000.0001) %MON dynstat_uvel_min             =  -9.1774781464273E-02
(PID.TID 0000.0001) %MON dynstat_uvel_mean            =  -4.7330448007176E-04
(PID.TID 0000.0001) %MON dynstat_uvel_sd              =   3.5781742490424E-03
(PID.TID 0000.0001) %MON dynstat_uvel_del2            =   1.5504530643949E-03
(PID.TID 0000.0001) %MON dynstat_vvel_max             =   6.0695127620993E-02
(PID.TID 0000.0001) %MON dynstat_vvel_min             =  -7.2172496875253E-02
(PID.TID 0000.0001) %MON dynstat_vvel_mean            =   7.4645318590913E-04
(PID.TID 0000.0001) %MON dynstat_vvel_sd              =   6.3128254226081E-03
(PID.TID 0000.0001) %MON dynstat_vvel_del2            =   1.8433813940820E-03
(PID.TID 0000.0001) %MON dynstat_wvel_max             =   1.4020031947402E+00
(PID.TID 0000.0001) %MON dynstat_wvel_min             =  -1.5220720141171E+00
(PID.TID 0000.0001) %MON dynstat_wvel_mean            =  -6.8519275019633E-04
(PID.TID 0000.0001) %MON dynstat_wvel_sd              =   1.7381308264108E-01
(PID.TID 0000.0001) %MON dynstat_wvel_del2            =   8.3626760865345E-02
(PID.TID 0000.0001) %MON dynstat_theta_max            =   2.9661584828092E+01
(PID.TID 0000.0001) %MON dynstat_theta_min            =  -2.5873153163842E+00
(PID.TID 0000.0001) %MON dynstat_theta_mean           =   3.6024982630192E+00
(PID.TID 0000.0001) %MON dynstat_theta_sd             =   4.4013883503210E+00
(PID.TID 0000.0001) %MON dynstat_theta_del2           =   1.4774208977677E-01
(PID.TID 0000.0001) %MON dynstat_salt_max             =   3.7435038904235E+01
(PID.TID 0000.0001) %MON dynstat_salt_min             =   2.9777804482138E+01
(PID.TID 0000.0001) %MON dynstat_salt_mean            =   3.4718001594751E+01
(PID.TID 0000.0001) %MON dynstat_salt_sd              =   2.9441805888555E-01
(PID.TID 0000.0001) %MON dynstat_salt_del2            =   2.6634288443965E-02
(PID.TID 0000.0001) %MON advcfl_uvel_max              =   5.3867357173888E-02
(PID.TID 0000.0001) %MON advcfl_vvel_max              =   2.8043917270348E-02
(PID.TID 0000.0001) %MON advcfl_wvel_max              =   9.5633397116091E-02
(PID.TID 0000.0001) %MON advcfl_W_hf_max              =   9.5633397116091E-02
(PID.TID 0000.0001) %MON pe_b_mean                    =  -8.4402715706069E-03
(PID.TID 0000.0001) %MON ke_max                       =   3.6258186599291E-03
(PID.TID 0000.0001) %MON ke_mean                      =   2.4012655699251E-05
(PID.TID 0000.0001) %MON ke_vol                       =   1.3442141716554E+22
(PID.TID 0000.0001) %MON vort_r_min                   =  -2.5879667942762E-07
(PID.TID 0000.0001) %MON vort_r_max                   =   3.0034924566235E-07
(PID.TID 0000.0001) %MON vort_a_mean                  =  -2.4531016372283E-05
(PID.TID 0000.0001) %MON vort_a_sd                    =   7.3435913020686E-05
(PID.TID 0000.0001) %MON vort_p_mean                  =  -2.9400840467782E-05
(PID.TID 0000.0001) %MON vort_p_sd                    =   1.0337802945390E-04
(PID.TID 0000.0001) %MON surfExpan_theta_mean         =   6.0157007249988E-03
(PID.TID 0000.0001) %MON surfExpan_salt_mean          =  -1.1548534830216E-04
(PID.TID 0000.0001) // =======================================================
(PID.TID 0000.0001) // End MONITOR dynamic field statistics
(PID.TID 0000.0001) // =======================================================
time,SST,SSS,fu,fv,Q,E-P,i0,i1,a,b =   8.6400E+05  2.5645E+01  0.0000E+00 -8.9065E-03  2.5549E-02 -9.0439E+01 -5.1109E-09    12     1  8.6667E-01  1.3333E-01
time,fu0,fu1,fu =   8.6400E+05 -1.3840E-02 -8.1474E-03 -8.9065E-03  8.666666666666667E-01  1.333333333333333E-01
 cg2d: Sum(rhs),rhsMax =  -1.11022302462516E-16  1.72928023652377E+02
(PID.TID 0000.0001)                    cg2d_init_res =    3.45139525067251E-03
(PID.TID 0000.0001)                       cg2d_iters =    91
(PID.TID 0000.0001)                         cg2d_res =    9.78819813445081E-10
(PID.TID 0000.0001) // =======================================================
(PID.TID 0000.0001) // Begin MONITOR dynamic field statistics
(PID.TID 0000.0001) // =======================================================
(PID.TID 0000.0001) %MON time_tsnumber                =                     6
(PID.TID 0000.0001) %MON time_secondsf                =   1.0368000000000E+06
(PID.TID 0000.0001) %MON dynstat_eta_max              =   6.2209257078887E+04
(PID.TID 0000.0001) %MON dynstat_eta_min              =  -9.5072820907856E+04
(PID.TID 0000.0001) %MON dynstat_eta_mean             =   1.7551442385315E-12
(PID.TID 0000.0001) %MON dynstat_eta_sd               =   4.0801315585467E+04
(PID.TID 0000.0001) %MON dynstat_eta_del2             =   2.3953933612736E+04
(PID.TID 0000.0001) %MON dynstat_uvel_max             =   7.3968237632697E-02
(PID.TID 0000.0001) %MON dynstat_uvel_min             =  -9.0171988332159E-02
(PID.TID 0000.0001) %MON dynstat_uvel_mean            =  -3.8963500976727E-05
(PID.TID 0000.0001) %MON dynstat_uvel_sd              =   4.2141434878632E-03
(PID.TID 0000.0001) %MON dynstat_uvel_del2            =   1.7359277936051E-03
(PID.TID 0000.0001) %MON dynstat_vvel_max             =   6.9116491964786E-02
(PID.TID 0000.0001) %MON dynstat_vvel_min             =  -8.3440814670575E-02
(PID.TID 0000.0001) %MON dynstat_vvel_mean            =   2.7833759437936E-04
(PID.TID 0000.0001) %MON dynstat_vvel_sd              =   7.2913717782376E-03
(PID.TID 0000.0001) %MON dynstat_vvel_del2            =   2.1078934215961E-03
(PID.TID 0000.0001) %MON dynstat_wvel_max             =   1.6176784598558E+00
(PID.TID 0000.0001) %MON dynstat_wvel_min             =  -1.6533398141120E+00
(PID.TID 0000.0001) %MON dynstat_wvel_mean            =  -3.9197983208838E-04
(PID.TID 0000.0001) %MON dynstat_wvel_sd              =   1.9514667897811E-01
(PID.TID 0000.0001) %MON dynstat_wvel_del2            =   9.1433751847472E-02
(PID.TID 0000.0001) %MON dynstat_theta_max            =   2.9706282898219E+01
(PID.TID 0000.0001) %MON dynstat_theta_min            =  -2.5961459513329E+00
(PID.TID 0000.0001) %MON dynstat_theta_mean           =   3.6026389662761E+00
(PID.TID 0000.0001) %MON dynstat_theta_sd             =   4.4014686044051E+00
(PID.TID 0000.0001) %MON dynstat_theta_del2           =   1.4563318511344E-01
(PID.TID 0000.0001) %MON dynstat_salt_max             =   3.7434857877890E+01
(PID.TID 0000.0001) %MON dynstat_salt_min             =   2.9778878986392E+01
(PID.TID 0000.0001) %MON dynstat_salt_mean            =   3.4718001268956E+01
(PID.TID 0000.0001) %MON dynstat_salt_sd              =   2.9441940443446E-01
(PID.TID 0000.0001) %MON dynstat_salt_del2            =   2.6516191931261E-02
(PID.TID 0000.0001) %MON advcfl_uvel_max              =   5.3800901477347E-02
(PID.TID 0000.0001) %MON advcfl_vvel_max              =   3.2422424121430E-02
(PID.TID 0000.0001) %MON advcfl_wvel_max              =   1.0549016094918E-01
(PID.TID 0000.0001) %MON advcfl_W_hf_max              =   1.0549016094918E-01
(PID.TID 0000.0001) %MON pe_b_mean                    =  -8.5183258053978E-03
(PID.TID 0000.0001) %MON ke_max                       =   3.8298313784950E-03
(PID.TID 0000.0001) %MON ke_mean                      =   3.1908177563936E-05
(PID.TID 0000.0001) %MON ke_vol                       =   1.3442141716554E+22
(PID.TID 0000.0001) %MON vort_r_min                   =  -2.9329770309704E-07
(PID.TID 0000.0001) %MON vort_r_max                   =   3.0148636455595E-07
(PID.TID 0000.0001) %MON vort_a_mean                  =  -2.4531016356478E-05
(PID.TID 0000.0001) %MON vort_a_sd                    =   7.3436014131671E-05
(PID.TID 0000.0001) %MON vort_p_mean                  =  -2.9400918684045E-05
(PID.TID 0000.0001) %MON vort_p_sd                    =   1.0337864358318E-04
(PID.TID 0000.0001) %MON surfExpan_theta_mean         =   2.1317180259512E-03
(PID.TID 0000.0001) %MON surfExpan_salt_mean          =  -6.0617865035119E-05
(PID.TID 0000.0001) // =======================================================
(PID.TID 0000.0001) // End MONITOR dynamic field statistics
(PID.TID 0000.0001) // =======================================================
time,SST,SSS,fu,fv,Q,E-P,i0,i1,a,b =   1.0368E+06  2.5784E+01  0.0000E+00 -8.5269E-03  2.4767E-02 -9.1226E+01 -5.1109E-09    12     1  9.3333E-01  6.6667E-02
time,fu0,fu1,fu =   1.0368E+06 -1.3840E-02 -8.1474E-03 -8.5269E-03  9.333333333333333E-01  6.666666666666665E-02
 cg2d: Sum(rhs),rhsMax =  -8.88178419700125E-16  1.72940041906767E+02
(PID.TID 0000.0001)                    cg2d_init_res =    3.58750303103189E-03
(PID.TID 0000.0001)                       cg2d_iters =    91
(PID.TID 0000.0001)                         cg2d_res =    9.19980930979957E-10
(PID.TID 0000.0001) // =======================================================
(PID.TID 0000.0001) // Begin MONITOR dynamic field statistics
(PID.TID 0000.0001) // =======================================================
(PID.TID 0000.0001) %MON time_tsnumber                =                     7
(PID.TID 0000.0001) %MON time_secondsf                =   1.2096000000000E+06
(PID.TID 0000.0001) %MON dynstat_eta_max              =   6.1155409838881E+04
(PID.TID 0000.0001) %MON dynstat_eta_min              =  -9.5059592235457E+04
(PID.TID 0000.0001) %MON dynstat_eta_mean             =  -1.7551442385315E-12
(PID.TID 0000.0001) %MON dynstat_eta_sd               =   4.0659431103783E+04
(PID.TID 0000.0001) %MON dynstat_eta_del2             =   2.3955577357591E+04
(PID.TID 0000.0001) %MON dynstat_uvel_max             =   8.8189840499169E-02
(PID.TID 0000.0001) %MON dynstat_uvel_min             =  -7.5475737999462E-02
(PID.TID 0000.0001) %MON dynstat_uvel_mean            =   3.1900370243938E-04
(PID.TID 0000.0001) %MON dynstat_uvel_sd              =   4.9839447032056E-03
(PID.TID 0000.0001) %MON dynstat_uvel_del2            =   1.8998664083006E-03
(PID.TID 0000.0001) %MON dynstat_vvel_max             =   7.6043253489958E-02
(PID.TID 0000.0001) %MON dynstat_vvel_min             =  -9.4863249914312E-02
(PID.TID 0000.0001) %MON dynstat_vvel_mean            =  -9.9611392534093E-05
(PID.TID 0000.0001) %MON dynstat_vvel_sd              =   8.1826611182174E-03
(PID.TID 0000.0001) %MON dynstat_vvel_del2            =   2.3434667777796E-03
(PID.TID 0000.0001) %MON dynstat_wvel_max             =   1.7915102139658E+00
(PID.TID 0000.0001) %MON dynstat_wvel_min             =  -1.7236787614954E+00
(PID.TID 0000.0001) %MON dynstat_wvel_mean            =  -8.5393077993965E-05
(PID.TID 0000.0001) %MON dynstat_wvel_sd              =   2.1276769794793E-01
(PID.TID 0000.0001) %MON dynstat_wvel_del2            =   9.7203106594301E-02
(PID.TID 0000.0001) %MON dynstat_theta_max            =   2.9752525181566E+01
(PID.TID 0000.0001) %MON dynstat_theta_min            =  -2.6766339732878E+00
(PID.TID 0000.0001) %MON dynstat_theta_mean           =   3.6027764357625E+00
(PID.TID 0000.0001) %MON dynstat_theta_sd             =   4.4015744414771E+00
(PID.TID 0000.0001) %MON dynstat_theta_del2           =   1.4394313791589E-01
(PID.TID 0000.0001) %MON dynstat_salt_max             =   3.7434632090365E+01
(PID.TID 0000.0001) %MON dynstat_salt_min             =   2.9778945336253E+01
(PID.TID 0000.0001) %MON dynstat_salt_mean            =   3.4718001120689E+01
(PID.TID 0000.0001) %MON dynstat_salt_sd              =   2.9442001376053E-01
(PID.TID 0000.0001) %MON dynstat_salt_del2            =   2.6437662404881E-02
(PID.TID 0000.0001) %MON advcfl_uvel_max              =   5.8299766954576E-02
(PID.TID 0000.0001) %MON advcfl_vvel_max              =   3.6860816069473E-02
(PID.TID 0000.0001) %MON advcfl_wvel_max              =   1.1178103375245E-01
(PID.TID 0000.0001) %MON advcfl_W_hf_max              =   1.1178103375245E-01
(PID.TID 0000.0001) %MON pe_b_mean                    =  -8.6506483672765E-03
(PID.TID 0000.0001) %MON ke_max                       =   5.0511134526786E-03
(PID.TID 0000.0001) %MON ke_mean                      =   4.1311915161910E-05
(PID.TID 0000.0001) %MON ke_vol                       =   1.3442141716554E+22
(PID.TID 0000.0001) %MON vort_r_min                   =  -2.7681411579611E-07
(PID.TID 0000.0001) %MON vort_r_max                   =   2.6892635902096E-07
(PID.TID 0000.0001) %MON vort_a_mean                  =  -2.4531016238589E-05
(PID.TID 0000.0001) %MON vort_a_sd                    =   7.3436098291335E-05
(PID.TID 0000.0001) %MON vort_p_mean                  =  -2.9400918826134E-05
(PID.TID 0000.0001) %MON vort_p_sd                    =   1.0337849783721E-04
(PID.TID 0000.0001) %MON surfExpan_theta_mean         =  -1.6209604251619E-03
(PID.TID 0000.0001) %MON surfExpan_salt_mean          =  -5.5063003741821E-05
(PID.TID 0000.0001) // =======================================================
(PID.TID 0000.0001) // End MONITOR dynamic field statistics
(PID.TID 0000.0001) // =======================================================
S/R EXTERNAL_FIELDS_LOAD: Reading new data:    1    2         7  1.209600000000E+06
(PID.TID 0000.0001)  MDSREADFIELD: opening global file: trenberth_taux.bin
(PID.TID 0000.0001)  MDSREADFIELD: opening global file: trenberth_taux.bin
(PID.TID 0000.0001)  MDSREADFIELD: opening global file: trenberth_tauy.bin
(PID.TID 0000.0001)  MDSREADFIELD: opening global file: trenberth_tauy.bin
(PID.TID 0000.0001)  MDSREADFIELD: opening global file: shi_qnet.bin
(PID.TID 0000.0001)  MDSREADFIELD: opening global file: shi_qnet.bin
(PID.TID 0000.0001)  MDSREADFIELD: opening global file: shi_empmr.bin
(PID.TID 0000.0001)  MDSREADFIELD: opening global file: shi_empmr.bin
(PID.TID 0000.0001)  MDSREADFIELD: opening global file: lev_sst.bin
(PID.TID 0000.0001)  MDSREADFIELD: opening global file: lev_sst.bin
(PID.TID 0000.0001)  MDSREADFIELD: opening global file: deltageopotjmd95.bin
(PID.TID 0000.0001)  MDSREADFIELD: opening global file: deltageopotjmd95.bin
time,SST,SSS,fu,fv,Q,E-P,i0,i1,a,b =   1.2096E+06  2.5923E+01  0.0000E+00 -8.1474E-03  2.3984E-02 -9.2012E+01 -5.1109E-09     1     2  0.0000E+00  1.0000E+00
time,fu0,fu1,fu =   1.2096E+06 -8.1474E-03 -4.7952E-03 -8.1474E-03  0.000000000000000E+00  1.000000000000000E+00
 cg2d: Sum(rhs),rhsMax =   4.99600361081320E-16  1.72953757503765E+02
(PID.TID 0000.0001)                    cg2d_init_res =    3.93574705668932E-03
(PID.TID 0000.0001)                       cg2d_iters =    90
(PID.TID 0000.0001)                         cg2d_res =    8.67537488560658E-10
(PID.TID 0000.0001) // =======================================================
(PID.TID 0000.0001) // Begin MONITOR dynamic field statistics
(PID.TID 0000.0001) // =======================================================
(PID.TID 0000.0001) %MON time_tsnumber                =                     8
(PID.TID 0000.0001) %MON time_secondsf                =   1.3824000000000E+06
(PID.TID 0000.0001) %MON dynstat_eta_max              =   5.6617389095739E+04
(PID.TID 0000.0001) %MON dynstat_eta_min              =  -9.4430025303961E+04
(PID.TID 0000.0001) %MON dynstat_eta_mean             =   3.0715024174302E-12
(PID.TID 0000.0001) %MON dynstat_eta_sd               =   4.0356611248776E+04
(PID.TID 0000.0001) %MON dynstat_eta_del2             =   2.3957808644835E+04
(PID.TID 0000.0001) %MON dynstat_uvel_max             =   1.0172737431490E-01
(PID.TID 0000.0001) %MON dynstat_uvel_min             =  -6.5374027827287E-02
(PID.TID 0000.0001) %MON dynstat_uvel_mean            =   5.4566297729222E-04
(PID.TID 0000.0001) %MON dynstat_uvel_sd              =   5.8261905408051E-03
(PID.TID 0000.0001) %MON dynstat_uvel_del2            =   2.0399793147421E-03
(PID.TID 0000.0001) %MON dynstat_vvel_max             =   8.1474832348144E-02
(PID.TID 0000.0001) %MON dynstat_vvel_min             =  -1.0475388017414E-01
(PID.TID 0000.0001) %MON dynstat_vvel_mean            =  -3.3374727918133E-04
(PID.TID 0000.0001) %MON dynstat_vvel_sd              =   8.9610189547051E-03
(PID.TID 0000.0001) %MON dynstat_vvel_del2            =   2.5440447230095E-03
(PID.TID 0000.0001) %MON dynstat_wvel_max             =   1.9170801563326E+00
(PID.TID 0000.0001) %MON dynstat_wvel_min             =  -1.7392510561735E+00
(PID.TID 0000.0001) %MON dynstat_wvel_mean            =   1.7826850030101E-04
(PID.TID 0000.0001) %MON dynstat_wvel_sd              =   2.2630218007022E-01
(PID.TID 0000.0001) %MON dynstat_wvel_del2            =   1.0084102057874E-01
(PID.TID 0000.0001) %MON dynstat_theta_max            =   2.9804736286851E+01
(PID.TID 0000.0001) %MON dynstat_theta_min            =  -2.7604594236017E+00
(PID.TID 0000.0001) %MON dynstat_theta_mean           =   3.6029089375712E+00
(PID.TID 0000.0001) %MON dynstat_theta_sd             =   4.4017029756474E+00
(PID.TID 0000.0001) %MON dynstat_theta_del2           =   1.4262763796558E-01
(PID.TID 0000.0001) %MON dynstat_salt_max             =   3.7434376365761E+01
(PID.TID 0000.0001) %MON dynstat_salt_min             =   2.9778314553582E+01
(PID.TID 0000.0001) %MON dynstat_salt_mean            =   3.4718001104354E+01
(PID.TID 0000.0001) %MON dynstat_salt_sd              =   2.9442253808911E-01
(PID.TID 0000.0001) %MON dynstat_salt_del2            =   2.6382091122319E-02
(PID.TID 0000.0001) %MON advcfl_uvel_max              =   6.7249041180833E-02
(PID.TID 0000.0001) %MON advcfl_vvel_max              =   4.0703997735166E-02
(PID.TID 0000.0001) %MON advcfl_wvel_max              =   1.1933299035471E-01
(PID.TID 0000.0001) %MON advcfl_W_hf_max              =   1.1933299035471E-01
(PID.TID 0000.0001) %MON pe_b_mean                    =  -8.7594334002206E-03
(PID.TID 0000.0001) %MON ke_max                       =   6.3510654022118E-03
(PID.TID 0000.0001) %MON ke_mean                      =   5.1550706746419E-05
(PID.TID 0000.0001) %MON ke_vol                       =   1.3442141716554E+22
(PID.TID 0000.0001) %MON vort_r_min                   =  -2.4490676289024E-07
(PID.TID 0000.0001) %MON vort_r_max                   =   2.1345199766167E-07
(PID.TID 0000.0001) %MON vort_a_mean                  =  -2.4531016037795E-05
(PID.TID 0000.0001) %MON vort_a_sd                    =   7.3436152146187E-05
(PID.TID 0000.0001) %MON vort_p_mean                  =  -2.9400853004405E-05
(PID.TID 0000.0001) %MON vort_p_sd                    =   1.0337784304640E-04
(PID.TID 0000.0001) %MON surfExpan_theta_mean         =  -4.3265479494667E-03
(PID.TID 0000.0001) %MON surfExpan_salt_mean          =  -5.6965218865669E-05
(PID.TID 0000.0001) // =======================================================
(PID.TID 0000.0001) // End MONITOR dynamic field statistics
(PID.TID 0000.0001) // =======================================================
time,SST,SSS,fu,fv,Q,E-P,i0,i1,a,b =   1.3824E+06  2.5894E+01  0.0000E+00 -7.9239E-03  2.3829E-02 -9.0919E+01 -5.1109E-09     1     2  6.6667E-02  9.3333E-01
time,fu0,fu1,fu =   1.3824E+06 -8.1474E-03 -4.7952E-03 -7.9239E-03  6.666666666666667E-02  9.333333333333333E-01
 cg2d: Sum(rhs),rhsMax =  -6.93889390390723E-16  1.72967908705106E+02
(PID.TID 0000.0001)                    cg2d_init_res =    3.96269977838684E-03
(PID.TID 0000.0001)                       cg2d_iters =    92
(PID.TID 0000.0001)                         cg2d_res =    9.26994540837409E-10
(PID.TID 0000.0001) // =======================================================
(PID.TID 0000.0001) // Begin MONITOR dynamic field statistics
(PID.TID 0000.0001) // =======================================================
(PID.TID 0000.0001) %MON time_tsnumber                =                     9
(PID.TID 0000.0001) %MON time_secondsf                =   1.5552000000000E+06
(PID.TID 0000.0001) %MON dynstat_eta_max              =   5.2268089395124E+04
(PID.TID 0000.0001) %MON dynstat_eta_min              =  -9.3568450787283E+04
(PID.TID 0000.0001) %MON dynstat_eta_mean             =  -1.7551442385315E-12
(PID.TID 0000.0001) %MON dynstat_eta_sd               =   4.0032057719167E+04
(PID.TID 0000.0001) %MON dynstat_eta_del2             =   2.3959225289135E+04
(PID.TID 0000.0001) %MON dynstat_uvel_max             =   1.1448767618591E-01
(PID.TID 0000.0001) %MON dynstat_uvel_min             =  -6.6937229573491E-02
(PID.TID 0000.0001) %MON dynstat_uvel_mean            =   6.2892089408658E-04
(PID.TID 0000.0001) %MON dynstat_uvel_sd              =   6.7070489385949E-03
(PID.TID 0000.0001) %MON dynstat_uvel_del2            =   2.1577252478233E-03
(PID.TID 0000.0001) %MON dynstat_vvel_max             =   8.4913125651924E-02
(PID.TID 0000.0001) %MON dynstat_vvel_min             =  -1.1294488772079E-01
(PID.TID 0000.0001) %MON dynstat_vvel_mean            =  -4.1852421940956E-04
(PID.TID 0000.0001) %MON dynstat_vvel_sd              =   9.6114317187150E-03
(PID.TID 0000.0001) %MON dynstat_vvel_del2            =   2.7078706923547E-03
(PID.TID 0000.0001) %MON dynstat_wvel_max             =   1.9910165096882E+00
(PID.TID 0000.0001) %MON dynstat_wvel_min             =  -1.7055308509194E+00
(PID.TID 0000.0001) %MON dynstat_wvel_mean            =   3.5988342448941E-04
(PID.TID 0000.0001) %MON dynstat_wvel_sd              =   2.3569587426993E-01
(PID.TID 0000.0001) %MON dynstat_wvel_del2            =   1.0250588313031E-01
(PID.TID 0000.0001) %MON dynstat_theta_max            =   2.9845474782475E+01
(PID.TID 0000.0001) %MON dynstat_theta_min            =  -2.8334015768707E+00
(PID.TID 0000.0001) %MON dynstat_theta_mean           =   3.6030340945727E+00
(PID.TID 0000.0001) %MON dynstat_theta_sd             =   4.4018516081157E+00
(PID.TID 0000.0001) %MON dynstat_theta_del2           =   1.4178839672349E-01
(PID.TID 0000.0001) %MON dynstat_salt_max             =   3.7434103475619E+01
(PID.TID 0000.0001) %MON dynstat_salt_min             =   2.9777172588519E+01
(PID.TID 0000.0001) %MON dynstat_salt_mean            =   3.4718001108537E+01
(PID.TID 0000.0001) %MON dynstat_salt_sd              =   2.9442158837343E-01
(PID.TID 0000.0001) %MON dynstat_salt_del2            =   2.6367947274783E-02
(PID.TID 0000.0001) %MON advcfl_uvel_max              =   7.5684509723912E-02
(PID.TID 0000.0001) %MON advcfl_vvel_max              =   4.3886760531860E-02
(PID.TID 0000.0001) %MON advcfl_wvel_max              =   1.2739493498791E-01
(PID.TID 0000.0001) %MON advcfl_W_hf_max              =   1.2739493498791E-01
(PID.TID 0000.0001) %MON pe_b_mean                    =  -8.7720593054610E-03
(PID.TID 0000.0001) %MON ke_max                       =   7.7151374122220E-03
(PID.TID 0000.0001) %MON ke_mean                      =   6.2037972601773E-05
(PID.TID 0000.0001) %MON ke_vol                       =   1.3442141716554E+22
(PID.TID 0000.0001) %MON vort_r_min                   =  -3.2430520243517E-07
(PID.TID 0000.0001) %MON vort_r_max                   =   2.8388624942376E-07
(PID.TID 0000.0001) %MON vort_a_mean                  =  -2.4531015789581E-05
(PID.TID 0000.0001) %MON vort_a_sd                    =   7.3436172394777E-05
(PID.TID 0000.0001) %MON vort_p_mean                  =  -2.9400747418405E-05
(PID.TID 0000.0001) %MON vort_p_sd                    =   1.0337690671741E-04
(PID.TID 0000.0001) %MON surfExpan_theta_mean         =  -5.4609911601834E-03
(PID.TID 0000.0001) %MON surfExpan_salt_mean          =  -5.4002041381993E-05
(PID.TID 0000.0001) // =======================================================
(PID.TID 0000.0001) // End MONITOR dynamic field statistics
(PID.TID 0000.0001) // =======================================================
time,SST,SSS,fu,fv,Q,E-P,i0,i1,a,b =   1.5552E+06  2.5865E+01  0.0000E+00 -7.7005E-03  2.3673E-02 -8.9826E+01 -5.1109E-09     1     2  1.3333E-01  8.6667E-01
time,fu0,fu1,fu =   1.5552E+06 -8.1474E-03 -4.7952E-03 -7.7005E-03  1.333333333333333E-01  8.666666666666667E-01
 cg2d: Sum(rhs),rhsMax =  -9.43689570931383E-16  1.72980803040787E+02
(PID.TID 0000.0001)                    cg2d_init_res =    3.62695410728714E-03
(PID.TID 0000.0001)                       cg2d_iters =    93
(PID.TID 0000.0001)                         cg2d_res =    9.19571111074395E-10
(PID.TID 0000.0001) // =======================================================
(PID.TID 0000.0001) // Begin MONITOR dynamic field statistics
(PID.TID 0000.0001) // =======================================================
(PID.TID 0000.0001) %MON time_tsnumber                =                    10
(PID.TID 0000.0001) %MON time_secondsf                =   1.7280000000000E+06
(PID.TID 0000.0001) %MON dynstat_eta_max              =   5.1372527701070E+04
(PID.TID 0000.0001) %MON dynstat_eta_min              =  -9.2841894075931E+04
(PID.TID 0000.0001) %MON dynstat_eta_mean             =  -7.0205769541261E-12
(PID.TID 0000.0001) %MON dynstat_eta_sd               =   3.9769760278585E+04
(PID.TID 0000.0001) %MON dynstat_eta_del2             =   2.3960643265690E+04
(PID.TID 0000.0001) %MON dynstat_uvel_max             =   1.2630603432211E-01
(PID.TID 0000.0001) %MON dynstat_uvel_min             =  -6.6697545493877E-02
(PID.TID 0000.0001) %MON dynstat_uvel_mean            =   5.9161980022699E-04
(PID.TID 0000.0001) %MON dynstat_uvel_sd              =   7.6230662200447E-03
(PID.TID 0000.0001) %MON dynstat_uvel_del2            =   2.2639205313758E-03
(PID.TID 0000.0001) %MON dynstat_vvel_max             =   8.6873277988928E-02
(PID.TID 0000.0001) %MON dynstat_vvel_min             =  -1.1933261881480E-01
(PID.TID 0000.0001) %MON dynstat_vvel_mean            =  -3.8445020000441E-04
(PID.TID 0000.0001) %MON dynstat_vvel_sd              =   1.0130009530348E-02
(PID.TID 0000.0001) %MON dynstat_vvel_del2            =   2.8365042948841E-03
(PID.TID 0000.0001) %MON dynstat_wvel_max             =   2.0207513303225E+00
(PID.TID 0000.0001) %MON dynstat_wvel_min             =  -1.6345195830749E+00
(PID.TID 0000.0001) %MON dynstat_wvel_mean            =   4.4775875200666E-04
(PID.TID 0000.0001) %MON dynstat_wvel_sd              =   2.4123949839352E-01
(PID.TID 0000.0001) %MON dynstat_wvel_del2            =   1.0254506189382E-01
(PID.TID 0000.0001) %MON dynstat_theta_max            =   2.9880790569388E+01
(PID.TID 0000.0001) %MON dynstat_theta_min            =  -2.9013489049103E+00
(PID.TID 0000.0001) %MON dynstat_theta_mean           =   3.6031509461526E+00
(PID.TID 0000.0001) %MON dynstat_theta_sd             =   4.4020171607875E+00
(PID.TID 0000.0001) %MON dynstat_theta_del2           =   1.4123755485663E-01
(PID.TID 0000.0001) %MON dynstat_salt_max             =   3.7433823900263E+01
(PID.TID 0000.0001) %MON dynstat_salt_min             =   2.9775824926673E+01
(PID.TID 0000.0001) %MON dynstat_salt_mean            =   3.4718001099167E+01
(PID.TID 0000.0001) %MON dynstat_salt_sd              =   2.9442386318950E-01
(PID.TID 0000.0001) %MON dynstat_salt_del2            =   2.6379631402592E-02
(PID.TID 0000.0001) %MON advcfl_uvel_max              =   8.3497286356981E-02
(PID.TID 0000.0001) %MON advcfl_vvel_max              =   4.6368827941211E-02
(PID.TID 0000.0001) %MON advcfl_wvel_max              =   1.3317599440221E-01
(PID.TID 0000.0001) %MON advcfl_W_hf_max              =   1.3317599440221E-01
(PID.TID 0000.0001) %MON pe_b_mean                    =  -8.6738133467860E-03
(PID.TID 0000.0001) %MON ke_max                       =   9.1174086299396E-03
(PID.TID 0000.0001) %MON ke_mean                      =   7.2538708024529E-05
(PID.TID 0000.0001) %MON ke_vol                       =   1.3442141716554E+22
(PID.TID 0000.0001) %MON vort_r_min                   =  -4.0597692663836E-07
(PID.TID 0000.0001) %MON vort_r_max                   =   3.6468864995063E-07
(PID.TID 0000.0001) %MON vort_a_mean                  =  -2.4531015535716E-05
(PID.TID 0000.0001) %MON vort_a_sd                    =   7.3436164012695E-05
(PID.TID 0000.0001) %MON vort_p_mean                  =  -2.9400633748065E-05
(PID.TID 0000.0001) %MON vort_p_sd                    =   1.0337595051539E-04
(PID.TID 0000.0001) %MON surfExpan_theta_mean         =  -5.1197749216090E-03
(PID.TID 0000.0001) %MON surfExpan_salt_mean          =  -5.2476745458974E-05
(PID.TID 0000.0001) // =======================================================
(PID.TID 0000.0001) // End MONITOR dynamic field statistics
(PID.TID 0000.0001) // =======================================================
time,SST,SSS,fu,fv,Q,E-P,i0,i1,a,b =   1.7280E+06  2.5836E+01  0.0000E+00 -7.4770E-03  2.3518E-02 -8.8733E+01 -5.1109E-09     1     2  2.0000E-01  8.0000E-01
time,fu0,fu1,fu =   1.7280E+06 -8.1474E-03 -4.7952E-03 -7.4770E-03  2.000000000000000E-01  8.000000000000000E-01
 cg2d: Sum(rhs),rhsMax =   3.71924713249427E-15  1.72990808965613E+02
(PID.TID 0000.0001)                    cg2d_init_res =    3.12693176504696E-03
(PID.TID 0000.0001)                       cg2d_iters =    91
(PID.TID 0000.0001)                         cg2d_res =    9.41627818258959E-10
(PID.TID 0000.0001) // =======================================================
(PID.TID 0000.0001) // Begin MONITOR dynamic field statistics
(PID.TID 0000.0001) // =======================================================
(PID.TID 0000.0001) %MON time_tsnumber                =                    11
(PID.TID 0000.0001) %MON time_secondsf                =   1.9008000000000E+06
(PID.TID 0000.0001) %MON dynstat_eta_max              =   4.7513540342406E+04
(PID.TID 0000.0001) %MON dynstat_eta_min              =  -9.2588039176103E+04
(PID.TID 0000.0001) %MON dynstat_eta_mean             =   2.1939302981644E-12
(PID.TID 0000.0001) %MON dynstat_eta_sd               =   3.9595091810270E+04
(PID.TID 0000.0001) %MON dynstat_eta_del2             =   2.3961818445437E+04
(PID.TID 0000.0001) %MON dynstat_uvel_max             =   1.3711742587504E-01
(PID.TID 0000.0001) %MON dynstat_uvel_min             =  -6.4754325290675E-02
(PID.TID 0000.0001) %MON dynstat_uvel_mean            =   4.7897010912472E-04
(PID.TID 0000.0001) %MON dynstat_uvel_sd              =   8.5766912168118E-03
(PID.TID 0000.0001) %MON dynstat_uvel_del2            =   2.3669393783084E-03
(PID.TID 0000.0001) %MON dynstat_vvel_max             =   8.9472863582614E-02
(PID.TID 0000.0001) %MON dynstat_vvel_min             =  -1.2387115647316E-01
(PID.TID 0000.0001) %MON dynstat_vvel_mean            =  -2.8045024081194E-04
(PID.TID 0000.0001) %MON dynstat_vvel_sd              =   1.0519087431839E-02
(PID.TID 0000.0001) %MON dynstat_vvel_del2            =   2.9318055624949E-03
(PID.TID 0000.0001) %MON dynstat_wvel_max             =   2.1374444940818E+00
(PID.TID 0000.0001) %MON dynstat_wvel_min             =  -1.5548489509711E+00
(PID.TID 0000.0001) %MON dynstat_wvel_mean            =   4.5215417893037E-04
(PID.TID 0000.0001) %MON dynstat_wvel_sd              =   2.4343836544875E-01
(PID.TID 0000.0001) %MON dynstat_wvel_del2            =   1.0143198347805E-01
(PID.TID 0000.0001) %MON dynstat_theta_max            =   2.9910876643774E+01
(PID.TID 0000.0001) %MON dynstat_theta_min            =  -2.9643081169054E+00
(PID.TID 0000.0001) %MON dynstat_theta_mean           =   3.6032596462966E+00
(PID.TID 0000.0001) %MON dynstat_theta_sd             =   4.4021927271913E+00
(PID.TID 0000.0001) %MON dynstat_theta_del2           =   1.4115161651294E-01
(PID.TID 0000.0001) %MON dynstat_salt_max             =   3.7433555556341E+01
(PID.TID 0000.0001) %MON dynstat_salt_min             =   2.9774406719881E+01
(PID.TID 0000.0001) %MON dynstat_salt_mean            =   3.4718001095463E+01
(PID.TID 0000.0001) %MON dynstat_salt_sd              =   2.9442147470538E-01
(PID.TID 0000.0001) %MON dynstat_salt_del2            =   2.6410165850371E-02
(PID.TID 0000.0001) %MON advcfl_uvel_max              =   9.0644386345179E-02
(PID.TID 0000.0001) %MON advcfl_vvel_max              =   4.8132358096465E-02
(PID.TID 0000.0001) %MON advcfl_wvel_max              =   1.3649302364237E-01
(PID.TID 0000.0001) %MON advcfl_W_hf_max              =   1.3649302364237E-01
(PID.TID 0000.0001) %MON pe_b_mean                    =  -8.4999366842485E-03
(PID.TID 0000.0001) %MON ke_max                       =   1.0551185788210E-02
(PID.TID 0000.0001) %MON ke_mean                      =   8.3050546177326E-05
(PID.TID 0000.0001) %MON ke_vol                       =   1.3442141716554E+22
(PID.TID 0000.0001) %MON vort_r_min                   =  -4.6845069762653E-07
(PID.TID 0000.0001) %MON vort_r_max                   =   4.2580560568546E-07
(PID.TID 0000.0001) %MON vort_a_mean                  =  -2.4531015314927E-05
(PID.TID 0000.0001) %MON vort_a_sd                    =   7.3436137276359E-05
(PID.TID 0000.0001) %MON vort_p_mean                  =  -2.9400538987077E-05
(PID.TID 0000.0001) %MON vort_p_sd                    =   1.0337519792790E-04
(PID.TID 0000.0001) %MON surfExpan_theta_mean         =  -3.7970469249594E-03
(PID.TID 0000.0001) %MON surfExpan_salt_mean          =  -5.6065073398589E-05
(PID.TID 0000.0001) // =======================================================
(PID.TID 0000.0001) // End MONITOR dynamic field statistics
(PID.TID 0000.0001) // =======================================================
time,SST,SSS,fu,fv,Q,E-P,i0,i1,a,b =   1.9008E+06  2.5807E+01  0.0000E+00 -7.2535E-03  2.3362E-02 -8.7640E+01 -5.1109E-09     1     2  2.6667E-01  7.3333E-01
time,fu0,fu1,fu =   1.9008E+06 -8.1474E-03 -4.7952E-03 -7.2535E-03  2.666666666666667E-01  7.333333333333334E-01
 cg2d: Sum(rhs),rhsMax =   2.33146835171283E-15  1.72997157016209E+02
(PID.TID 0000.0001)                    cg2d_init_res =    2.73183093924002E-03
(PID.TID 0000.0001)                       cg2d_iters =    84
(PID.TID 0000.0001)                         cg2d_res =    8.91308907794195E-10
(PID.TID 0000.0001) // =======================================================
(PID.TID 0000.0001) // Begin MONITOR dynamic field statistics
(PID.TID 0000.0001) // =======================================================
(PID.TID 0000.0001) %MON time_tsnumber                =                    12
(PID.TID 0000.0001) %MON time_secondsf                =   2.0736000000000E+06
(PID.TID 0000.0001) %MON dynstat_eta_max              =   4.2957254297109E+04
(PID.TID 0000.0001) %MON dynstat_eta_min              =  -9.2540117160806E+04
(PID.TID 0000.0001) %MON dynstat_eta_mean             =   6.5817908944932E-12
(PID.TID 0000.0001) %MON dynstat_eta_sd               =   3.9503385020864E+04
(PID.TID 0000.0001) %MON dynstat_eta_del2             =   2.3962703447857E+04
(PID.TID 0000.0001) %MON dynstat_uvel_max             =   1.4843377161446E-01
(PID.TID 0000.0001) %MON dynstat_uvel_min             =  -6.9027715041510E-02
(PID.TID 0000.0001) %MON dynstat_uvel_mean            =   3.4368401343800E-04
(PID.TID 0000.0001) %MON dynstat_uvel_sd              =   9.5587068380150E-03
(PID.TID 0000.0001) %MON dynstat_uvel_del2            =   2.4639826457784E-03
(PID.TID 0000.0001) %MON dynstat_vvel_max             =   9.0793661009158E-02
(PID.TID 0000.0001) %MON dynstat_vvel_min             =  -1.2719203085367E-01
(PID.TID 0000.0001) %MON dynstat_vvel_mean            =  -1.5659999190906E-04
(PID.TID 0000.0001) %MON dynstat_vvel_sd              =   1.0783416592123E-02
(PID.TID 0000.0001) %MON dynstat_vvel_del2            =   2.9991183348806E-03
(PID.TID 0000.0001) %MON dynstat_wvel_max             =   2.2828401827464E+00
(PID.TID 0000.0001) %MON dynstat_wvel_min             =  -1.4727510103585E+00
(PID.TID 0000.0001) %MON dynstat_wvel_mean            =   3.9593996074321E-04
(PID.TID 0000.0001) %MON dynstat_wvel_sd              =   2.4285440758542E-01
(PID.TID 0000.0001) %MON dynstat_wvel_del2            =   9.9697376520023E-02
(PID.TID 0000.0001) %MON dynstat_theta_max            =   2.9935979696721E+01
(PID.TID 0000.0001) %MON dynstat_theta_min            =  -3.0223750547533E+00
(PID.TID 0000.0001) %MON dynstat_theta_mean           =   3.6033618821737E+00
(PID.TID 0000.0001) %MON dynstat_theta_sd             =   4.4023807984713E+00
(PID.TID 0000.0001) %MON dynstat_theta_del2           =   1.4124664183809E-01
(PID.TID 0000.0001) %MON dynstat_salt_max             =   3.7433320142215E+01
(PID.TID 0000.0001) %MON dynstat_salt_min             =   2.9773042598180E+01
(PID.TID 0000.0001) %MON dynstat_salt_mean            =   3.4718001105609E+01
(PID.TID 0000.0001) %MON dynstat_salt_sd              =   2.9441709982809E-01
(PID.TID 0000.0001) %MON dynstat_salt_del2            =   2.6441632377955E-02
(PID.TID 0000.0001) %MON advcfl_uvel_max              =   9.7107979950866E-02
(PID.TID 0000.0001) %MON advcfl_vvel_max              =   4.9422743359889E-02
(PID.TID 0000.0001) %MON advcfl_wvel_max              =   1.3719975131110E-01
(PID.TID 0000.0001) %MON advcfl_W_hf_max              =   1.3719975131110E-01
(PID.TID 0000.0001) %MON pe_b_mean                    =  -8.2991219502587E-03
(PID.TID 0000.0001) %MON ke_max                       =   1.1974233419824E-02
(PID.TID 0000.0001) %MON ke_mean                      =   9.3565123062053E-05
(PID.TID 0000.0001) %MON ke_vol                       =   1.3442141716554E+22
(PID.TID 0000.0001) %MON vort_r_min                   =  -5.0685661591361E-07
(PID.TID 0000.0001) %MON vort_r_max                   =   4.6224465612750E-07
(PID.TID 0000.0001) %MON vort_a_mean                  =  -2.4531015157079E-05
(PID.TID 0000.0001) %MON vort_a_sd                    =   7.3436104282807E-05
(PID.TID 0000.0001) %MON vort_p_mean                  =  -2.9400475994715E-05
(PID.TID 0000.0001) %MON vort_p_sd                    =   1.0337477619438E-04
(PID.TID 0000.0001) %MON surfExpan_theta_mean         =  -2.1023887859367E-03
(PID.TID 0000.0001) %MON surfExpan_salt_mean          =  -6.1239910909785E-05
(PID.TID 0000.0001) // =======================================================
(PID.TID 0000.0001) // End MONITOR dynamic field statistics
(PID.TID 0000.0001) // =======================================================
time,SST,SSS,fu,fv,Q,E-P,i0,i1,a,b =   2.0736E+06  2.5778E+01  0.0000E+00 -7.0300E-03  2.3207E-02 -8.6547E+01 -5.1109E-09     1     2  3.3333E-01  6.6667E-01
time,fu0,fu1,fu =   2.0736E+06 -8.1474E-03 -4.7952E-03 -7.0300E-03  3.333333333333333E-01  6.666666666666667E-01
 cg2d: Sum(rhs),rhsMax =   1.85962356624714E-15  1.73000013237580E+02
(PID.TID 0000.0001)                    cg2d_init_res =    2.58837367677220E-03
(PID.TID 0000.0001)                       cg2d_iters =    88
(PID.TID 0000.0001)                         cg2d_res =    8.46681955572661E-10
(PID.TID 0000.0001) // =======================================================
(PID.TID 0000.0001) // Begin MONITOR dynamic field statistics
(PID.TID 0000.0001) // =======================================================
(PID.TID 0000.0001) %MON time_tsnumber                =                    13
(PID.TID 0000.0001) %MON time_secondsf                =   2.2464000000000E+06
(PID.TID 0000.0001) %MON dynstat_eta_max              =   4.2948220908283E+04
(PID.TID 0000.0001) %MON dynstat_eta_min              =  -9.2455757547714E+04
(PID.TID 0000.0001) %MON dynstat_eta_mean             =   3.9490745366959E-12
(PID.TID 0000.0001) %MON dynstat_eta_sd               =   3.9482741855034E+04
(PID.TID 0000.0001) %MON dynstat_eta_del2             =   2.3963388102334E+04
(PID.TID 0000.0001) %MON dynstat_uvel_max             =   1.5902780882073E-01
(PID.TID 0000.0001) %MON dynstat_uvel_min             =  -7.3961505220633E-02
(PID.TID 0000.0001) %MON dynstat_uvel_mean            =   2.3222318885305E-04
(PID.TID 0000.0001) %MON dynstat_uvel_sd              =   1.0547398652172E-02
(PID.TID 0000.0001) %MON dynstat_uvel_del2            =   2.5592693222669E-03
(PID.TID 0000.0001) %MON dynstat_vvel_max             =   9.1003855971517E-02
(PID.TID 0000.0001) %MON dynstat_vvel_min             =  -1.3058526107353E-01
(PID.TID 0000.0001) %MON dynstat_vvel_mean            =  -5.1752092278815E-05
(PID.TID 0000.0001) %MON dynstat_vvel_sd              =   1.0929001002268E-02
(PID.TID 0000.0001) %MON dynstat_vvel_del2            =   3.0421866179441E-03
(PID.TID 0000.0001) %MON dynstat_wvel_max             =   2.4171444001184E+00
(PID.TID 0000.0001) %MON dynstat_wvel_min             =  -1.4411325485463E+00
(PID.TID 0000.0001) %MON dynstat_wvel_mean            =   3.0735552483625E-04
(PID.TID 0000.0001) %MON dynstat_wvel_sd              =   2.4000459736722E-01
(PID.TID 0000.0001) %MON dynstat_wvel_del2            =   9.7676200212403E-02
(PID.TID 0000.0001) %MON dynstat_theta_max            =   2.9956271896502E+01
(PID.TID 0000.0001) %MON dynstat_theta_min            =  -3.0756285160904E+00
(PID.TID 0000.0001) %MON dynstat_theta_mean           =   3.6034590870580E+00
(PID.TID 0000.0001) %MON dynstat_theta_sd             =   4.4025855155567E+00
(PID.TID 0000.0001) %MON dynstat_theta_del2           =   1.4163298937565E-01
(PID.TID 0000.0001) %MON dynstat_salt_max             =   3.7433142408085E+01
(PID.TID 0000.0001) %MON dynstat_salt_min             =   2.9771788723339E+01
(PID.TID 0000.0001) %MON dynstat_salt_mean            =   3.4718001120261E+01
(PID.TID 0000.0001) %MON dynstat_salt_sd              =   2.9441789101860E-01
(PID.TID 0000.0001) %MON dynstat_salt_del2            =   2.6500694571275E-02
(PID.TID 0000.0001) %MON advcfl_uvel_max              =   1.0286602041327E-01
(PID.TID 0000.0001) %MON advcfl_vvel_max              =   5.0741243781586E-02
(PID.TID 0000.0001) %MON advcfl_wvel_max              =   1.3519869331440E-01
(PID.TID 0000.0001) %MON advcfl_W_hf_max              =   1.3519869331440E-01
(PID.TID 0000.0001) %MON pe_b_mean                    =  -8.1065447298501E-03
(PID.TID 0000.0001) %MON ke_max                       =   1.3355692178856E-02
(PID.TID 0000.0001) %MON ke_mean                      =   1.0394546786679E-04
(PID.TID 0000.0001) %MON ke_vol                       =   1.3442141716554E+22
(PID.TID 0000.0001) %MON vort_r_min                   =  -5.2049845073854E-07
(PID.TID 0000.0001) %MON vort_r_max                   =   4.7336646820808E-07
(PID.TID 0000.0001) %MON vort_a_mean                  =  -2.4531015079030E-05
(PID.TID 0000.0001) %MON vort_a_sd                    =   7.3436075752517E-05
(PID.TID 0000.0001) %MON vort_p_mean                  =  -2.9400449427171E-05
(PID.TID 0000.0001) %MON vort_p_sd                    =   1.0337471427261E-04
(PID.TID 0000.0001) %MON surfExpan_theta_mean         =  -5.6026094026872E-04
(PID.TID 0000.0001) %MON surfExpan_salt_mean          =  -6.0359012671577E-05
(PID.TID 0000.0001) // =======================================================
(PID.TID 0000.0001) // End MONITOR dynamic field statistics
(PID.TID 0000.0001) // =======================================================
time,SST,SSS,fu,fv,Q,E-P,i0,i1,a,b =   2.2464E+06  2.5749E+01  0.0000E+00 -6.8065E-03  2.3052E-02 -8.5454E+01 -5.1109E-09     1     2  4.0000E-01  6.0000E-01
time,fu0,fu1,fu =   2.2464E+06 -8.1474E-03 -4.7952E-03 -6.8065E-03  4.000000000000000E-01  6.000000000000000E-01
 cg2d: Sum(rhs),rhsMax =  -1.08246744900953E-15  1.73000152534901E+02
(PID.TID 0000.0001)                    cg2d_init_res =    2.58972018756690E-03
(PID.TID 0000.0001)                       cg2d_iters =    88
(PID.TID 0000.0001)                         cg2d_res =    9.90552191123337E-10
(PID.TID 0000.0001) // =======================================================
(PID.TID 0000.0001) // Begin MONITOR dynamic field statistics
(PID.TID 0000.0001) // =======================================================
(PID.TID 0000.0001) %MON time_tsnumber                =                    14
(PID.TID 0000.0001) %MON time_secondsf                =   2.4192000000000E+06
(PID.TID 0000.0001) %MON dynstat_eta_max              =   4.3130044521023E+04
(PID.TID 0000.0001) %MON dynstat_eta_min              =  -9.2543587970332E+04
(PID.TID 0000.0001) %MON dynstat_eta_mean             =  -2.1939302981644E-12
(PID.TID 0000.0001) %MON dynstat_eta_sd               =   3.9518064331556E+04
(PID.TID 0000.0001) %MON dynstat_eta_del2             =   2.3964255793162E+04
(PID.TID 0000.0001) %MON dynstat_uvel_max             =   1.6830304433813E-01
(PID.TID 0000.0001) %MON dynstat_uvel_min             =  -7.9853837350374E-02
(PID.TID 0000.0001) %MON dynstat_uvel_mean            =   1.7504289865374E-04
(PID.TID 0000.0001) %MON dynstat_uvel_sd              =   1.1517398523477E-02
(PID.TID 0000.0001) %MON dynstat_uvel_del2            =   2.6532814884531E-03
(PID.TID 0000.0001) %MON dynstat_vvel_max             =   9.0201401208907E-02
(PID.TID 0000.0001) %MON dynstat_vvel_min             =  -1.3247688940162E-01
(PID.TID 0000.0001) %MON dynstat_vvel_mean            =   1.2558380699664E-05
(PID.TID 0000.0001) %MON dynstat_vvel_sd              =   1.0964164597682E-02
(PID.TID 0000.0001) %MON dynstat_vvel_del2            =   3.0637084298129E-03
(PID.TID 0000.0001) %MON dynstat_wvel_max             =   2.5417069145155E+00
(PID.TID 0000.0001) %MON dynstat_wvel_min             =  -1.5100962183432E+00
(PID.TID 0000.0001) %MON dynstat_wvel_mean            =   2.1249003113798E-04
(PID.TID 0000.0001) %MON dynstat_wvel_sd              =   2.3537484414625E-01
(PID.TID 0000.0001) %MON dynstat_wvel_del2            =   9.5583507688737E-02
(PID.TID 0000.0001) %MON dynstat_theta_max            =   2.9971857890541E+01
(PID.TID 0000.0001) %MON dynstat_theta_min            =  -3.1241395995957E+00
(PID.TID 0000.0001) %MON dynstat_theta_mean           =   3.6035544692122E+00
(PID.TID 0000.0001) %MON dynstat_theta_sd             =   4.4027941440780E+00
(PID.TID 0000.0001) %MON dynstat_theta_del2           =   1.4211884501277E-01
(PID.TID 0000.0001) %MON dynstat_salt_max             =   3.7433047502016E+01
(PID.TID 0000.0001) %MON dynstat_salt_min             =   2.9770641140572E+01
(PID.TID 0000.0001) %MON dynstat_salt_mean            =   3.4718001118992E+01
(PID.TID 0000.0001) %MON dynstat_salt_sd              =   2.9440980334629E-01
(PID.TID 0000.0001) %MON dynstat_salt_del2            =   2.6562663640883E-02
(PID.TID 0000.0001) %MON advcfl_uvel_max              =   1.0788275489955E-01
(PID.TID 0000.0001) %MON advcfl_vvel_max              =   5.1476269873741E-02
(PID.TID 0000.0001) %MON advcfl_wvel_max              =   1.3045314054187E-01
(PID.TID 0000.0001) %MON advcfl_W_hf_max              =   1.3045314054187E-01
(PID.TID 0000.0001) %MON pe_b_mean                    =  -7.9404637815779E-03
(PID.TID 0000.0001) %MON ke_max                       =   1.4667008964860E-02
(PID.TID 0000.0001) %MON ke_mean                      =   1.1397124781732E-04
(PID.TID 0000.0001) %MON ke_vol                       =   1.3442141716554E+22
(PID.TID 0000.0001) %MON vort_r_min                   =  -5.1257990728161E-07
(PID.TID 0000.0001) %MON vort_r_max                   =   4.6624572417576E-07
(PID.TID 0000.0001) %MON vort_a_mean                  =  -2.4531015083497E-05
(PID.TID 0000.0001) %MON vort_a_sd                    =   7.3436058777132E-05
(PID.TID 0000.0001) %MON vort_p_mean                  =  -2.9400455778314E-05
(PID.TID 0000.0001) %MON vort_p_sd                    =   1.0337495415725E-04
(PID.TID 0000.0001) %MON surfExpan_theta_mean         =   4.9385601047790E-04
(PID.TID 0000.0001) %MON surfExpan_salt_mean          =  -4.7717682604988E-05
(PID.TID 0000.0001) // =======================================================
(PID.TID 0000.0001) // End MONITOR dynamic field statistics
(PID.TID 0000.0001) // =======================================================
time,SST,SSS,fu,fv,Q,E-P,i0,i1,a,b =   2.4192E+06  2.5720E+01  0.0000E+00 -6.5830E-03  2.2896E-02 -8.4361E+01 -5.1109E-09     1     2  4.6667E-01  5.3333E-01
time,fu0,fu1,fu =   2.4192E+06 -8.1474E-03 -4.7952E-03 -6.5830E-03  4.666666666666667E-01  5.333333333333333E-01
 cg2d: Sum(rhs),rhsMax =   2.83106871279415E-15  1.72998549513369E+02
(PID.TID 0000.0001)                    cg2d_init_res =    2.55874304213110E-03
(PID.TID 0000.0001)                       cg2d_iters =    89
(PID.TID 0000.0001)                         cg2d_res =    8.26387913843369E-10
(PID.TID 0000.0001) // =======================================================
(PID.TID 0000.0001) // Begin MONITOR dynamic field statistics
(PID.TID 0000.0001) // =======================================================
(PID.TID 0000.0001) %MON time_tsnumber                =                    15
(PID.TID 0000.0001) %MON time_secondsf                =   2.5920000000000E+06
(PID.TID 0000.0001) %MON dynstat_eta_max              =   4.4272626650004E+04
(PID.TID 0000.0001) %MON dynstat_eta_min              =  -9.2733311366461E+04
(PID.TID 0000.0001) %MON dynstat_eta_mean             =  -5.2654327155946E-12
(PID.TID 0000.0001) %MON dynstat_eta_sd               =   3.9586687907178E+04
(PID.TID 0000.0001) %MON dynstat_eta_del2             =   2.3965700236987E+04
(PID.TID 0000.0001) %MON dynstat_uvel_max             =   1.7615302201377E-01
(PID.TID 0000.0001) %MON dynstat_uvel_min             =  -8.4389757898557E-02
(PID.TID 0000.0001) %MON dynstat_uvel_mean            =   1.8262595050041E-04
(PID.TID 0000.0001) %MON dynstat_uvel_sd              =   1.2447549627669E-02
(PID.TID 0000.0001) %MON dynstat_uvel_del2            =   2.7472292856201E-03
(PID.TID 0000.0001) %MON dynstat_vvel_max             =   8.8498064181743E-02
(PID.TID 0000.0001) %MON dynstat_vvel_min             =  -1.3287236601686E-01
(PID.TID 0000.0001) %MON dynstat_vvel_mean            =   3.2385123945299E-05
(PID.TID 0000.0001) %MON dynstat_vvel_sd              =   1.0901195409002E-02
(PID.TID 0000.0001) %MON dynstat_vvel_del2            =   3.0698343808254E-03
(PID.TID 0000.0001) %MON dynstat_wvel_max             =   2.6569045199834E+00
(PID.TID 0000.0001) %MON dynstat_wvel_min             =  -1.5547930640013E+00
(PID.TID 0000.0001) %MON dynstat_wvel_mean            =   1.2979437558105E-04
(PID.TID 0000.0001) %MON dynstat_wvel_sd              =   2.2947306137133E-01
(PID.TID 0000.0001) %MON dynstat_wvel_del2            =   9.3649215710780E-02
(PID.TID 0000.0001) %MON dynstat_theta_max            =   2.9982785577984E+01
(PID.TID 0000.0001) %MON dynstat_theta_min            =  -3.1679769238296E+00
(PID.TID 0000.0001) %MON dynstat_theta_mean           =   3.6036486897175E+00
(PID.TID 0000.0001) %MON dynstat_theta_sd             =   4.4030320640733E+00
(PID.TID 0000.0001) %MON dynstat_theta_del2           =   1.4261321489401E-01
(PID.TID 0000.0001) %MON dynstat_salt_max             =   3.7433058137896E+01
(PID.TID 0000.0001) %MON dynstat_salt_min             =   2.9769554759308E+01
(PID.TID 0000.0001) %MON dynstat_salt_mean            =   3.4718001087015E+01
(PID.TID 0000.0001) %MON dynstat_salt_sd              =   2.9440921060575E-01
(PID.TID 0000.0001) %MON dynstat_salt_del2            =   2.6605029945869E-02
(PID.TID 0000.0001) %MON advcfl_uvel_max              =   1.1210751096198E-01
(PID.TID 0000.0001) %MON advcfl_vvel_max              =   5.1629939401059E-02
(PID.TID 0000.0001) %MON advcfl_wvel_max              =   1.2299767511004E-01
(PID.TID 0000.0001) %MON advcfl_W_hf_max              =   1.2299767511004E-01
(PID.TID 0000.0001) %MON pe_b_mean                    =  -7.8115706793633E-03
(PID.TID 0000.0001) %MON ke_max                       =   1.5884790572734E-02
(PID.TID 0000.0001) %MON ke_mean                      =   1.2345017813321E-04
(PID.TID 0000.0001) %MON ke_vol                       =   1.3442141716554E+22
(PID.TID 0000.0001) %MON vort_r_min                   =  -4.8909086155287E-07
(PID.TID 0000.0001) %MON vort_r_max                   =   4.9988515251818E-07
(PID.TID 0000.0001) %MON vort_a_mean                  =  -2.4531015159432E-05
(PID.TID 0000.0001) %MON vort_a_sd                    =   7.3436055917777E-05
(PID.TID 0000.0001) %MON vort_p_mean                  =  -2.9400485703798E-05
(PID.TID 0000.0001) %MON vort_p_sd                    =   1.0337537888751E-04
(PID.TID 0000.0001) %MON surfExpan_theta_mean         =   9.4388902245723E-04
(PID.TID 0000.0001) %MON surfExpan_salt_mean          =  -2.2212373508909E-05
(PID.TID 0000.0001) // =======================================================
(PID.TID 0000.0001) // End MONITOR dynamic field statistics
(PID.TID 0000.0001) // =======================================================
time,SST,SSS,fu,fv,Q,E-P,i0,i1,a,b =   2.5920E+06  2.5691E+01  0.0000E+00 -6.3596E-03  2.2741E-02 -8.3268E+01 -5.1109E-09     1     2  5.3333E-01  4.6667E-01
time,fu0,fu1,fu =   2.5920E+06 -8.1474E-03 -4.7952E-03 -6.3596E-03  5.333333333333333E-01  4.666666666666667E-01
 cg2d: Sum(rhs),rhsMax =   1.58206781009085E-15  1.72996024433830E+02
(PID.TID 0000.0001)                    cg2d_init_res =    2.45008430185326E-03
(PID.TID 0000.0001)                       cg2d_iters =    89
(PID.TID 0000.0001)                         cg2d_res =    7.73750621353894E-10
(PID.TID 0000.0001) // =======================================================
(PID.TID 0000.0001) // Begin MONITOR dynamic field statistics
(PID.TID 0000.0001) // =======================================================
(PID.TID 0000.0001) %MON time_tsnumber                =                    16
(PID.TID 0000.0001) %MON time_secondsf                =   2.7648000000000E+06
(PID.TID 0000.0001) %MON dynstat_eta_max              =   4.6789286243729E+04
(PID.TID 0000.0001) %MON dynstat_eta_min              =  -9.2852416643679E+04
(PID.TID 0000.0001) %MON dynstat_eta_mean             =   1.0530865431189E-11
(PID.TID 0000.0001) %MON dynstat_eta_sd               =   3.9659500380982E+04
(PID.TID 0000.0001) %MON dynstat_eta_del2             =   2.3966763310999E+04
(PID.TID 0000.0001) %MON dynstat_uvel_max             =   1.8326058922793E-01
(PID.TID 0000.0001) %MON dynstat_uvel_min             =  -8.7623470034725E-02
(PID.TID 0000.0001) %MON dynstat_uvel_mean            =   2.4727631783996E-04
(PID.TID 0000.0001) %MON dynstat_uvel_sd              =   1.3323140462817E-02
(PID.TID 0000.0001) %MON dynstat_uvel_del2            =   2.8447694223359E-03
(PID.TID 0000.0001) %MON dynstat_vvel_max             =   8.9080996525964E-02
(PID.TID 0000.0001) %MON dynstat_vvel_min             =  -1.3177977658163E-01
(PID.TID 0000.0001) %MON dynstat_vvel_mean            =   1.7431425438929E-05
(PID.TID 0000.0001) %MON dynstat_vvel_sd              =   1.0756937675743E-02
(PID.TID 0000.0001) %MON dynstat_vvel_del2            =   3.0670882585247E-03
(PID.TID 0000.0001) %MON dynstat_wvel_max             =   2.7623141380565E+00
(PID.TID 0000.0001) %MON dynstat_wvel_min             =  -1.5768141860536E+00
(PID.TID 0000.0001) %MON dynstat_wvel_mean            =   6.7075026439428E-05
(PID.TID 0000.0001) %MON dynstat_wvel_sd              =   2.2284687273428E-01
(PID.TID 0000.0001) %MON dynstat_wvel_del2            =   9.1870764954085E-02
(PID.TID 0000.0001) %MON dynstat_theta_max            =   2.9989060859336E+01
(PID.TID 0000.0001) %MON dynstat_theta_min            =  -3.2072080125257E+00
(PID.TID 0000.0001) %MON dynstat_theta_mean           =   3.6037435815792E+00
(PID.TID 0000.0001) %MON dynstat_theta_sd             =   4.4032904939444E+00
(PID.TID 0000.0001) %MON dynstat_theta_del2           =   1.4297894064430E-01
(PID.TID 0000.0001) %MON dynstat_salt_max             =   3.7433192128765E+01
(PID.TID 0000.0001) %MON dynstat_salt_min             =   2.9768463873550E+01
(PID.TID 0000.0001) %MON dynstat_salt_mean            =   3.4718001020335E+01
(PID.TID 0000.0001) %MON dynstat_salt_sd              =   2.9441201052546E-01
(PID.TID 0000.0001) %MON dynstat_salt_del2            =   2.6649050882607E-02
(PID.TID 0000.0001) %MON advcfl_uvel_max              =   1.1547897438395E-01
(PID.TID 0000.0001) %MON advcfl_vvel_max              =   5.1205394192580E-02
(PID.TID 0000.0001) %MON advcfl_wvel_max              =   1.1294530424508E-01
(PID.TID 0000.0001) %MON advcfl_W_hf_max              =   1.1294530424508E-01
(PID.TID 0000.0001) %MON pe_b_mean                    =  -7.7298567156842E-03
(PID.TID 0000.0001) %MON ke_max                       =   1.6992342266621E-02
(PID.TID 0000.0001) %MON ke_mean                      =   1.3228021241906E-04
(PID.TID 0000.0001) %MON ke_vol                       =   1.3442141716554E+22
(PID.TID 0000.0001) %MON vort_r_min                   =  -4.8631187213894E-07
(PID.TID 0000.0001) %MON vort_r_max                   =   5.2770238399722E-07
(PID.TID 0000.0001) %MON vort_a_mean                  =  -2.4531015284977E-05
(PID.TID 0000.0001) %MON vort_a_sd                    =   7.3436065618306E-05
(PID.TID 0000.0001) %MON vort_p_mean                  =  -2.9400527405700E-05
(PID.TID 0000.0001) %MON vort_p_sd                    =   1.0337585324105E-04
(PID.TID 0000.0001) %MON surfExpan_theta_mean         =   8.6715759899017E-04
(PID.TID 0000.0001) %MON surfExpan_salt_mean          =   1.2480258722940E-05
(PID.TID 0000.0001) // =======================================================
(PID.TID 0000.0001) // End MONITOR dynamic field statistics
(PID.TID 0000.0001) // =======================================================
time,SST,SSS,fu,fv,Q,E-P,i0,i1,a,b =   2.7648E+06  2.5662E+01  0.0000E+00 -6.1361E-03  2.2585E-02 -8.2175E+01 -5.1109E-09     1     2  6.0000E-01  4.0000E-01
time,fu0,fu1,fu =   2.7648E+06 -8.1474E-03 -4.7952E-03 -6.1361E-03  6.000000000000000E-01  4.000000000000000E-01
 cg2d: Sum(rhs),rhsMax =  -2.58126853225349E-15  1.72993072483340E+02
(PID.TID 0000.0001)                    cg2d_init_res =    2.30541288796731E-03
(PID.TID 0000.0001)                       cg2d_iters =    86
(PID.TID 0000.0001)                         cg2d_res =    9.80497683130853E-10
(PID.TID 0000.0001) // =======================================================
(PID.TID 0000.0001) // Begin MONITOR dynamic field statistics
(PID.TID 0000.0001) // =======================================================
(PID.TID 0000.0001) %MON time_tsnumber                =                    17
(PID.TID 0000.0001) %MON time_secondsf                =   2.9376000000000E+06
(PID.TID 0000.0001) %MON dynstat_eta_max              =   4.8392677922979E+04
(PID.TID 0000.0001) %MON dynstat_eta_min              =  -9.2898931626722E+04
(PID.TID 0000.0001) %MON dynstat_eta_mean             =  -1.3163581788986E-12
(PID.TID 0000.0001) %MON dynstat_eta_sd               =   3.9709923817575E+04
(PID.TID 0000.0001) %MON dynstat_eta_del2             =   2.3967311147486E+04
(PID.TID 0000.0001) %MON dynstat_uvel_max             =   1.9076618594639E-01
(PID.TID 0000.0001) %MON dynstat_uvel_min             =  -9.1158814224388E-02
(PID.TID 0000.0001) %MON dynstat_uvel_mean            =   3.4910129010598E-04
(PID.TID 0000.0001) %MON dynstat_uvel_sd              =   1.4133812051389E-02
(PID.TID 0000.0001) %MON dynstat_uvel_del2            =   2.9457255959987E-03
(PID.TID 0000.0001) %MON dynstat_vvel_max             =   9.2144755194197E-02
(PID.TID 0000.0001) %MON dynstat_vvel_min             =  -1.2921766243874E-01
(PID.TID 0000.0001) %MON dynstat_vvel_mean            =  -1.5114036157532E-05
(PID.TID 0000.0001) %MON dynstat_vvel_sd              =   1.0552145588695E-02
(PID.TID 0000.0001) %MON dynstat_vvel_del2            =   3.0594166877044E-03
(PID.TID 0000.0001) %MON dynstat_wvel_max             =   2.8570475603585E+00
(PID.TID 0000.0001) %MON dynstat_wvel_min             =  -1.5805357649021E+00
(PID.TID 0000.0001) %MON dynstat_wvel_mean            =   2.3314957533074E-05
(PID.TID 0000.0001) %MON dynstat_wvel_sd              =   2.1606932964607E-01
(PID.TID 0000.0001) %MON dynstat_wvel_del2            =   9.0379056538962E-02
(PID.TID 0000.0001) %MON dynstat_theta_max            =   2.9990663769335E+01
(PID.TID 0000.0001) %MON dynstat_theta_min            =  -3.2418974090342E+00
(PID.TID 0000.0001) %MON dynstat_theta_mean           =   3.6038393021197E+00
(PID.TID 0000.0001) %MON dynstat_theta_sd             =   4.4035652005374E+00
(PID.TID 0000.0001) %MON dynstat_theta_del2           =   1.4327287425975E-01
(PID.TID 0000.0001) %MON dynstat_salt_max             =   3.7433460605325E+01
(PID.TID 0000.0001) %MON dynstat_salt_min             =   2.9767300747168E+01
(PID.TID 0000.0001) %MON dynstat_salt_mean            =   3.4718000930103E+01
(PID.TID 0000.0001) %MON dynstat_salt_sd              =   2.9441346810962E-01
(PID.TID 0000.0001) %MON dynstat_salt_del2            =   2.6687101244791E-02
(PID.TID 0000.0001) %MON advcfl_uvel_max              =   1.1878421725824E-01
(PID.TID 0000.0001) %MON advcfl_vvel_max              =   5.0209838819396E-02
(PID.TID 0000.0001) %MON advcfl_wvel_max              =   1.0048998815630E-01
(PID.TID 0000.0001) %MON advcfl_W_hf_max              =   1.0048998815630E-01
(PID.TID 0000.0001) %MON pe_b_mean                    =  -7.7030841625340E-03
(PID.TID 0000.0001) %MON ke_max                       =   1.7979383105462E-02
(PID.TID 0000.0001) %MON ke_mean                      =   1.4043121240306E-04
(PID.TID 0000.0001) %MON ke_vol                       =   1.3442141716554E+22
(PID.TID 0000.0001) %MON vort_r_min                   =  -5.1066411173202E-07
(PID.TID 0000.0001) %MON vort_r_max                   =   5.4986975331747E-07
(PID.TID 0000.0001) %MON vort_a_mean                  =  -2.4531015431942E-05
(PID.TID 0000.0001) %MON vort_a_sd                    =   7.3436083563400E-05
(PID.TID 0000.0001) %MON vort_p_mean                  =  -2.9400569127992E-05
(PID.TID 0000.0001) %MON vort_p_sd                    =   1.0337625316938E-04
(PID.TID 0000.0001) %MON surfExpan_theta_mean         =   4.6724911536081E-04
(PID.TID 0000.0001) %MON surfExpan_salt_mean          =   5.0635259036113E-05
(PID.TID 0000.0001) // =======================================================
(PID.TID 0000.0001) // End MONITOR dynamic field statistics
(PID.TID 0000.0001) // =======================================================
time,SST,SSS,fu,fv,Q,E-P,i0,i1,a,b =   2.9376E+06  2.5633E+01  0.0000E+00 -5.9126E-03  2.2430E-02 -8.1082E+01 -5.1109E-09     1     2  6.6667E-01  3.3333E-01
time,fu0,fu1,fu =   2.9376E+06 -8.1474E-03 -4.7952E-03 -5.9126E-03  6.666666666666666E-01  3.333333333333334E-01
 cg2d: Sum(rhs),rhsMax =  -8.60422844084496E-16  1.72989821191092E+02
(PID.TID 0000.0001)                    cg2d_init_res =    2.20657717220649E-03
(PID.TID 0000.0001)                       cg2d_iters =    84
(PID.TID 0000.0001)                         cg2d_res =    8.44021723947476E-10
(PID.TID 0000.0001) // =======================================================
(PID.TID 0000.0001) // Begin MONITOR dynamic field statistics
(PID.TID 0000.0001) // =======================================================
(PID.TID 0000.0001) %MON time_tsnumber                =                    18
(PID.TID 0000.0001) %MON time_secondsf                =   3.1104000000000E+06
(PID.TID 0000.0001) %MON dynstat_eta_max              =   4.8834783018243E+04
(PID.TID 0000.0001) %MON dynstat_eta_min              =  -9.2835647514490E+04
(PID.TID 0000.0001) %MON dynstat_eta_mean             =  -3.5102884770630E-12
(PID.TID 0000.0001) %MON dynstat_eta_sd               =   3.9723819140056E+04
(PID.TID 0000.0001) %MON dynstat_eta_del2             =   2.3967135661612E+04
(PID.TID 0000.0001) %MON dynstat_uvel_max             =   1.9673996101178E-01
(PID.TID 0000.0001) %MON dynstat_uvel_min             =  -9.5060553131165E-02
(PID.TID 0000.0001) %MON dynstat_uvel_mean            =   4.6370179903812E-04
(PID.TID 0000.0001) %MON dynstat_uvel_sd              =   1.4870643128740E-02
(PID.TID 0000.0001) %MON dynstat_uvel_del2            =   3.0459660685106E-03
(PID.TID 0000.0001) %MON dynstat_vvel_max             =   9.4736788892717E-02
(PID.TID 0000.0001) %MON dynstat_vvel_min             =  -1.2522379633749E-01
(PID.TID 0000.0001) %MON dynstat_vvel_mean            =  -4.6941107977058E-05
(PID.TID 0000.0001) %MON dynstat_vvel_sd              =   1.0310269988507E-02
(PID.TID 0000.0001) %MON dynstat_vvel_del2            =   3.0533328322217E-03
(PID.TID 0000.0001) %MON dynstat_wvel_max             =   2.9401064026479E+00
(PID.TID 0000.0001) %MON dynstat_wvel_min             =  -1.6425586860301E+00
(PID.TID 0000.0001) %MON dynstat_wvel_mean            =  -8.0939252724579E-06
(PID.TID 0000.0001) %MON dynstat_wvel_sd              =   2.0968400456625E-01
(PID.TID 0000.0001) %MON dynstat_wvel_del2            =   8.9285516225543E-02
(PID.TID 0000.0001) %MON dynstat_theta_max            =   2.9987563629468E+01
(PID.TID 0000.0001) %MON dynstat_theta_min            =  -3.2721038970251E+00
(PID.TID 0000.0001) %MON dynstat_theta_mean           =   3.6039358448663E+00
(PID.TID 0000.0001) %MON dynstat_theta_sd             =   4.4038589266385E+00
(PID.TID 0000.0001) %MON dynstat_theta_del2           =   1.4350319078848E-01
(PID.TID 0000.0001) %MON dynstat_salt_max             =   3.7433867096016E+01
(PID.TID 0000.0001) %MON dynstat_salt_min             =   2.9766010626143E+01
(PID.TID 0000.0001) %MON dynstat_salt_mean            =   3.4718000829496E+01
(PID.TID 0000.0001) %MON dynstat_salt_sd              =   2.9441390428725E-01
(PID.TID 0000.0001) %MON dynstat_salt_del2            =   2.6708400543656E-02
(PID.TID 0000.0001) %MON advcfl_uvel_max              =   1.2370205209338E-01
(PID.TID 0000.0001) %MON advcfl_vvel_max              =   4.8657950560271E-02
(PID.TID 0000.0001) %MON advcfl_wvel_max              =   9.8319615560780E-02
(PID.TID 0000.0001) %MON advcfl_W_hf_max              =   9.8319615560780E-02
(PID.TID 0000.0001) %MON pe_b_mean                    =  -7.7317522570301E-03
(PID.TID 0000.0001) %MON ke_max                       =   1.8840517627593E-02
(PID.TID 0000.0001) %MON ke_mean                      =   1.4789028255711E-04
(PID.TID 0000.0001) %MON ke_vol                       =   1.3442141716554E+22
(PID.TID 0000.0001) %MON vort_r_min                   =  -5.3031880289921E-07
(PID.TID 0000.0001) %MON vort_r_max                   =   5.6701078047351E-07
(PID.TID 0000.0001) %MON vort_a_mean                  =  -2.4531015571414E-05
(PID.TID 0000.0001) %MON vort_a_sd                    =   7.3436104415770E-05
(PID.TID 0000.0001) %MON vort_p_mean                  =  -2.9400602131138E-05
(PID.TID 0000.0001) %MON vort_p_sd                    =   1.0337650149839E-04
(PID.TID 0000.0001) %MON surfExpan_theta_mean         =  -1.3053621128915E-05
(PID.TID 0000.0001) %MON surfExpan_salt_mean          =   8.5133277864266E-05
(PID.TID 0000.0001) // =======================================================
(PID.TID 0000.0001) // End MONITOR dynamic field statistics
(PID.TID 0000.0001) // =======================================================
time,SST,SSS,fu,fv,Q,E-P,i0,i1,a,b =   3.1104E+06  2.5605E+01  0.0000E+00 -5.6891E-03  2.2274E-02 -7.9989E+01 -5.1109E-09     1     2  7.3333E-01  2.6667E-01
time,fu0,fu1,fu =   3.1104E+06 -8.1474E-03 -4.7952E-03 -5.6891E-03  7.333333333333333E-01  2.666666666666667E-01
 cg2d: Sum(rhs),rhsMax =  -9.99200722162641E-16  1.72986109526482E+02
(PID.TID 0000.0001)                    cg2d_init_res =    2.18102055337652E-03
(PID.TID 0000.0001)                       cg2d_iters =    87
(PID.TID 0000.0001)                         cg2d_res =    8.56754095913801E-10
(PID.TID 0000.0001) // =======================================================
(PID.TID 0000.0001) // Begin MONITOR dynamic field statistics
(PID.TID 0000.0001) // =======================================================
(PID.TID 0000.0001) %MON time_tsnumber                =                    19
(PID.TID 0000.0001) %MON time_secondsf                =   3.2832000000000E+06
(PID.TID 0000.0001) %MON dynstat_eta_max              =   4.8224268594855E+04
(PID.TID 0000.0001) %MON dynstat_eta_min              =  -9.2712780514869E+04
(PID.TID 0000.0001) %MON dynstat_eta_mean             =   8.7757211926576E-12
(PID.TID 0000.0001) %MON dynstat_eta_sd               =   3.9703076754867E+04
(PID.TID 0000.0001) %MON dynstat_eta_del2             =   2.3966250497493E+04
(PID.TID 0000.0001) %MON dynstat_uvel_max             =   2.0110488156368E-01
(PID.TID 0000.0001) %MON dynstat_uvel_min             =  -9.8447678682300E-02
(PID.TID 0000.0001) %MON dynstat_uvel_mean            =   5.6927836592553E-04
(PID.TID 0000.0001) %MON dynstat_uvel_sd              =   1.5524672030052E-02
(PID.TID 0000.0001) %MON dynstat_uvel_del2            =   3.1434729701721E-03
(PID.TID 0000.0001) %MON dynstat_vvel_max             =   9.6880619720335E-02
(PID.TID 0000.0001) %MON dynstat_vvel_min             =  -1.1986189185990E-01
(PID.TID 0000.0001) %MON dynstat_vvel_mean            =  -6.3708959787086E-05
(PID.TID 0000.0001) %MON dynstat_vvel_sd              =   1.0056186886484E-02
(PID.TID 0000.0001) %MON dynstat_vvel_del2            =   3.0513816301274E-03
(PID.TID 0000.0001) %MON dynstat_wvel_max             =   3.0106681822857E+00
(PID.TID 0000.0001) %MON dynstat_wvel_min             =  -1.7726738451138E+00
(PID.TID 0000.0001) %MON dynstat_wvel_mean            =  -3.4991562396526E-05
(PID.TID 0000.0001) %MON dynstat_wvel_sd              =   2.0415221158523E-01
(PID.TID 0000.0001) %MON dynstat_wvel_del2            =   8.8715894858286E-02
(PID.TID 0000.0001) %MON dynstat_theta_max            =   2.9979731575939E+01
(PID.TID 0000.0001) %MON dynstat_theta_min            =  -3.2978794165774E+00
(PID.TID 0000.0001) %MON dynstat_theta_mean           =   3.6040337121036E+00
(PID.TID 0000.0001) %MON dynstat_theta_sd             =   4.4041721427542E+00
(PID.TID 0000.0001) %MON dynstat_theta_del2           =   1.4382684891184E-01
(PID.TID 0000.0001) %MON dynstat_salt_max             =   3.7434407381891E+01
(PID.TID 0000.0001) %MON dynstat_salt_min             =   2.9764561613762E+01
(PID.TID 0000.0001) %MON dynstat_salt_mean            =   3.4718000738348E+01
(PID.TID 0000.0001) %MON dynstat_salt_sd              =   2.9441595824757E-01
(PID.TID 0000.0001) %MON dynstat_salt_del2            =   2.6751195210729E-02
(PID.TID 0000.0001) %MON advcfl_uvel_max              =   1.2742110619587E-01
(PID.TID 0000.0001) %MON advcfl_vvel_max              =   4.6574486469501E-02
(PID.TID 0000.0001) %MON advcfl_wvel_max              =   9.7953097792740E-02
(PID.TID 0000.0001) %MON advcfl_W_hf_max              =   9.7953097792740E-02
(PID.TID 0000.0001) %MON pe_b_mean                    =  -7.8069652879984E-03
(PID.TID 0000.0001) %MON ke_max                       =   1.9573378253102E-02
(PID.TID 0000.0001) %MON ke_mean                      =   1.5462324516833E-04
(PID.TID 0000.0001) %MON ke_vol                       =   1.3442141716554E+22
(PID.TID 0000.0001) %MON vort_r_min                   =  -5.4491986655538E-07
(PID.TID 0000.0001) %MON vort_r_max                   =   5.7991910859009E-07
(PID.TID 0000.0001) %MON vort_a_mean                  =  -2.4531015679743E-05
(PID.TID 0000.0001) %MON vort_a_sd                    =   7.3436123403823E-05
(PID.TID 0000.0001) %MON vort_p_mean                  =  -2.9400621931676E-05
(PID.TID 0000.0001) %MON vort_p_sd                    =   1.0337655974367E-04
(PID.TID 0000.0001) %MON surfExpan_theta_mean         =  -3.6261230468649E-04
(PID.TID 0000.0001) %MON surfExpan_salt_mean          =   1.1038399666715E-04
(PID.TID 0000.0001) // =======================================================
(PID.TID 0000.0001) // End MONITOR dynamic field statistics
(PID.TID 0000.0001) // =======================================================
time,SST,SSS,fu,fv,Q,E-P,i0,i1,a,b =   3.2832E+06  2.5576E+01  0.0000E+00 -5.4656E-03  2.2119E-02 -7.8896E+01 -5.1109E-09     1     2  8.0000E-01  2.0000E-01
time,fu0,fu1,fu =   3.2832E+06 -8.1474E-03 -4.7952E-03 -5.4656E-03  8.000000000000000E-01  2.000000000000000E-01
 cg2d: Sum(rhs),rhsMax =  -4.44089209850063E-16  1.72981619126495E+02
(PID.TID 0000.0001)                    cg2d_init_res =    2.20678517914771E-03
(PID.TID 0000.0001)                       cg2d_iters =    88
(PID.TID 0000.0001)                         cg2d_res =    8.50851936434245E-10
(PID.TID 0000.0001) // =======================================================
(PID.TID 0000.0001) // Begin MONITOR dynamic field statistics
(PID.TID 0000.0001) // =======================================================
(PID.TID 0000.0001) %MON time_tsnumber                =                    20
(PID.TID 0000.0001) %MON time_secondsf                =   3.4560000000000E+06
(PID.TID 0000.0001) %MON dynstat_eta_max              =   4.6918885532133E+04
(PID.TID 0000.0001) %MON dynstat_eta_min              =  -9.2592370455298E+04
(PID.TID 0000.0001) %MON dynstat_eta_mean             =  -7.0205769541261E-12
(PID.TID 0000.0001) %MON dynstat_eta_sd               =   3.9661644896124E+04
(PID.TID 0000.0001) %MON dynstat_eta_del2             =   2.3964945575559E+04
(PID.TID 0000.0001) %MON dynstat_uvel_max             =   2.0380491821735E-01
(PID.TID 0000.0001) %MON dynstat_uvel_min             =  -1.0119272736900E-01
(PID.TID 0000.0001) %MON dynstat_uvel_mean            =   6.5145464645750E-04
(PID.TID 0000.0001) %MON dynstat_uvel_sd              =   1.6087071548266E-02
(PID.TID 0000.0001) %MON dynstat_uvel_del2            =   3.2340693125664E-03
(PID.TID 0000.0001) %MON dynstat_vvel_max             =   9.8610236364317E-02
(PID.TID 0000.0001) %MON dynstat_vvel_min             =  -1.1322532978405E-01
(PID.TID 0000.0001) %MON dynstat_vvel_mean            =  -5.8030425053057E-05
(PID.TID 0000.0001) %MON dynstat_vvel_sd              =   9.8150653881401E-03
(PID.TID 0000.0001) %MON dynstat_vvel_del2            =   3.0584558832924E-03
(PID.TID 0000.0001) %MON dynstat_wvel_max             =   3.0682365509040E+00
(PID.TID 0000.0001) %MON dynstat_wvel_min             =  -1.8897156617708E+00
(PID.TID 0000.0001) %MON dynstat_wvel_mean            =  -6.2928795162906E-05
(PID.TID 0000.0001) %MON dynstat_wvel_sd              =   1.9981011503875E-01
(PID.TID 0000.0001) %MON dynstat_wvel_del2            =   8.8540857023187E-02
(PID.TID 0000.0001) %MON dynstat_theta_max            =   2.9967149822018E+01
(PID.TID 0000.0001) %MON dynstat_theta_min            =  -3.3192712174587E+00
(PID.TID 0000.0001) %MON dynstat_theta_mean           =   3.6041327875390E+00
(PID.TID 0000.0001) %MON dynstat_theta_sd             =   4.4045043962802E+00
(PID.TID 0000.0001) %MON dynstat_theta_del2           =   1.4394224897747E-01
(PID.TID 0000.0001) %MON dynstat_salt_max             =   3.7435274150268E+01
(PID.TID 0000.0001) %MON dynstat_salt_min             =   2.9762948728488E+01
(PID.TID 0000.0001) %MON dynstat_salt_mean            =   3.4718000671546E+01
(PID.TID 0000.0001) %MON dynstat_salt_sd              =   2.9441587652154E-01
(PID.TID 0000.0001) %MON dynstat_salt_del2            =   2.6780454834975E-02
(PID.TID 0000.0001) %MON advcfl_uvel_max              =   1.2984289176177E-01
(PID.TID 0000.0001) %MON advcfl_vvel_max              =   4.3995731322141E-02
(PID.TID 0000.0001) %MON advcfl_wvel_max              =   9.7216033268848E-02
(PID.TID 0000.0001) %MON advcfl_W_hf_max              =   9.7216033268848E-02
(PID.TID 0000.0001) %MON pe_b_mean                    =  -7.9130619479035E-03
(PID.TID 0000.0001) %MON ke_max                       =   2.0295633637388E-02
(PID.TID 0000.0001) %MON ke_mean                      =   1.6057159117694E-04
(PID.TID 0000.0001) %MON ke_vol                       =   1.3442141716554E+22
(PID.TID 0000.0001) %MON vort_r_min                   =  -5.5421656290021E-07
(PID.TID 0000.0001) %MON vort_r_max                   =   5.8935171763183E-07
(PID.TID 0000.0001) %MON vort_a_mean                  =  -2.4531015741706E-05
(PID.TID 0000.0001) %MON vort_a_sd                    =   7.3436137405239E-05
(PID.TID 0000.0001) %MON vort_p_mean                  =  -2.9400628695183E-05
(PID.TID 0000.0001) %MON vort_p_sd                    =   1.0337644866070E-04
(PID.TID 0000.0001) %MON surfExpan_theta_mean         =  -4.5390774967486E-04
(PID.TID 0000.0001) %MON surfExpan_salt_mean          =   1.2287987924474E-04
(PID.TID 0000.0001) // =======================================================
(PID.TID 0000.0001) // End MONITOR dynamic field statistics
(PID.TID 0000.0001) // =======================================================
(PID.TID 0000.0001) %CHECKPOINT        20 ckptA
(PID.TID 0000.0001)   Seconds in section "ALL                    [THE_MODEL_MAIN]":
(PID.TID 0000.0001)           User time:  19.7609952
(PID.TID 0000.0001)         System time:  0.205968995
(PID.TID 0000.0001)     Wall clock time:  20.9283521
(PID.TID 0000.0001)          No. starts: 1
(PID.TID 0000.0001)           No. stops: 1
(PID.TID 0000.0001)   Seconds in section "INITIALISE_FIXED       [THE_MODEL_MAIN]":
(PID.TID 0000.0001)           User time:  0.175973006
(PID.TID 0000.0001)         System time:  0.0349949989
(PID.TID 0000.0001)     Wall clock time:  0.336033821
(PID.TID 0000.0001)          No. starts: 1
(PID.TID 0000.0001)           No. stops: 1
(PID.TID 0000.0001)   Seconds in section "THE_MAIN_LOOP          [THE_MODEL_MAIN]":
(PID.TID 0000.0001)           User time:  19.4790385
(PID.TID 0000.0001)         System time:  0.127980005
(PID.TID 0000.0001)     Wall clock time:  20.1503389
(PID.TID 0000.0001)          No. starts: 1
(PID.TID 0000.0001)           No. stops: 1
(PID.TID 0000.0001)   Seconds in section "INITIALISE_VARIA    [THE_MAIN_LOOP]":
(PID.TID 0000.0001)           User time:  0.220966995
(PID.TID 0000.0001)         System time:  0.0399939977
(PID.TID 0000.0001)     Wall clock time:  0.485521078
(PID.TID 0000.0001)          No. starts: 1
(PID.TID 0000.0001)           No. stops: 1
(PID.TID 0000.0001)   Seconds in section "MONITOR             [THE_MAIN_LOOP]":
(PID.TID 0000.0001)           User time:  0.0999850035
(PID.TID 0000.0001)         System time:  0.
(PID.TID 0000.0001)     Wall clock time:  0.100136042
(PID.TID 0000.0001)          No. starts: 1
(PID.TID 0000.0001)           No. stops: 1
(PID.TID 0000.0001)   Seconds in section "DO_THE_MODEL_IO     [THE_MAIN_LOOP]":
(PID.TID 0000.0001)           User time:  0.0669890046
(PID.TID 0000.0001)         System time:  0.024996005
(PID.TID 0000.0001)     Wall clock time:  0.184271097
(PID.TID 0000.0001)          No. starts: 1
(PID.TID 0000.0001)           No. stops: 1
(PID.TID 0000.0001)   Seconds in section "MAIN LOOP           [THE_MAIN_LOOP]":
(PID.TID 0000.0001)           User time:  19.0910975
(PID.TID 0000.0001)         System time:  0.0619900003
(PID.TID 0000.0001)     Wall clock time:  19.3802109
(PID.TID 0000.0001)          No. starts: 1
(PID.TID 0000.0001)           No. stops: 1
(PID.TID 0000.0001)   Seconds in section "FORWARD_STEP        [THE_MAIN_LOOP]":
(PID.TID 0000.0001)           User time:  19.0910975
(PID.TID 0000.0001)         System time:  0.0619900003
(PID.TID 0000.0001)     Wall clock time:  19.3794992
(PID.TID 0000.0001)          No. starts: 20
(PID.TID 0000.0001)           No. stops: 20
(PID.TID 0000.0001)   Seconds in section "EXTERNAL_FIELDS_LOAD[FORWARD_STEP]":
(PID.TID 0000.0001)           User time:  0.052996397
(PID.TID 0000.0001)         System time:  0.00599899888
(PID.TID 0000.0001)     Wall clock time:  0.128028631
(PID.TID 0000.0001)          No. starts: 20
(PID.TID 0000.0001)           No. stops: 20
(PID.TID 0000.0001)   Seconds in section "DO_ATMOSPHERIC_PHYS [FORWARD_STEP]":
(PID.TID 0000.0001)           User time:  0.
(PID.TID 0000.0001)         System time:  0.
(PID.TID 0000.0001)     Wall clock time:  0.000675678253
(PID.TID 0000.0001)          No. starts: 20
(PID.TID 0000.0001)           No. stops: 20
(PID.TID 0000.0001)   Seconds in section "DO_OCEANIC_PHYS     [FORWARD_STEP]":
(PID.TID 0000.0001)           User time:  1.54776245
(PID.TID 0000.0001)         System time:  0.00399999321
(PID.TID 0000.0001)     Wall clock time:  1.55166698
(PID.TID 0000.0001)          No. starts: 20
(PID.TID 0000.0001)           No. stops: 20
(PID.TID 0000.0001)   Seconds in section "THERMODYNAMICS      [FORWARD_STEP]":
(PID.TID 0000.0001)           User time:  3.66144383
(PID.TID 0000.0001)         System time:  0.0059980005
(PID.TID 0000.0001)     Wall clock time:  3.66997814
(PID.TID 0000.0001)          No. starts: 20
(PID.TID 0000.0001)           No. stops: 20
(PID.TID 0000.0001)   Seconds in section "DYNAMICS            [FORWARD_STEP]":
(PID.TID 0000.0001)           User time:  5.65314013
(PID.TID 0000.0001)         System time:  0.00200000405
(PID.TID 0000.0001)     Wall clock time:  5.65758228
(PID.TID 0000.0001)          No. starts: 20
(PID.TID 0000.0001)           No. stops: 20
(PID.TID 0000.0001)   Seconds in section "UPDATE_SURF_DR     [FORWARD_STEP]":
(PID.TID 0000.0001)           User time:  0.0199958086
(PID.TID 0000.0001)         System time:  0.
(PID.TID 0000.0001)     Wall clock time:  0.0200169086
(PID.TID 0000.0001)          No. starts: 20
(PID.TID 0000.0001)           No. stops: 20
(PID.TID 0000.0001)   Seconds in section "UPDATE_CG2D        [FORWARD_STEP]":
(PID.TID 0000.0001)           User time:  0.158977032
(PID.TID 0000.0001)         System time:  0.
(PID.TID 0000.0001)     Wall clock time:  0.160750628
(PID.TID 0000.0001)          No. starts: 20
(PID.TID 0000.0001)           No. stops: 20
(PID.TID 0000.0001)   Seconds in section "SOLVE_FOR_PRESSURE  [FORWARD_STEP]":
(PID.TID 0000.0001)           User time:  3.82142115
(PID.TID 0000.0001)         System time:  0.
(PID.TID 0000.0001)     Wall clock time:  3.82240629
(PID.TID 0000.0001)          No. starts: 20
(PID.TID 0000.0001)           No. stops: 20
(PID.TID 0000.0001)   Seconds in section "UV_CORRECTION_STEP  [FORWARD_STEP]":
(PID.TID 0000.0001)           User time:  0.432930827
(PID.TID 0000.0001)         System time:  0.
(PID.TID 0000.0001)     Wall clock time:  0.434438229
(PID.TID 0000.0001)          No. starts: 20
(PID.TID 0000.0001)           No. stops: 20
(PID.TID 0000.0001)   Seconds in section "UPDATE_ETAH        [FORWARD_STEP]":
(PID.TID 0000.0001)           User time:  0.00699722767
(PID.TID 0000.0001)         System time:  0.
(PID.TID 0000.0001)     Wall clock time:  0.00499486923
(PID.TID 0000.0001)          No. starts: 20
(PID.TID 0000.0001)           No. stops: 20
(PID.TID 0000.0001)   Seconds in section "CALC_SURF_DR      [FORWARD_STEP]":
(PID.TID 0000.0001)           User time:  0.028998971
(PID.TID 0000.0001)         System time:  0.
(PID.TID 0000.0001)     Wall clock time:  0.0308413506
(PID.TID 0000.0001)          No. starts: 20
(PID.TID 0000.0001)           No. stops: 20
(PID.TID 0000.0001)   Seconds in section "TS_CORRECTION_STEP  [FORWARD_STEP]":
(PID.TID 0000.0001)           User time:  0.0769884586
(PID.TID 0000.0001)         System time:  0.
(PID.TID 0000.0001)     Wall clock time:  0.0777332783
(PID.TID 0000.0001)          No. starts: 20
(PID.TID 0000.0001)           No. stops: 20
(PID.TID 0000.0001)   Seconds in section "BLOCKING_EXCHANGES  [FORWARD_STEP]":
(PID.TID 0000.0001)           User time:  0.0959846973
(PID.TID 0000.0001)         System time:  0.
(PID.TID 0000.0001)     Wall clock time:  0.0976574421
(PID.TID 0000.0001)          No. starts: 20
(PID.TID 0000.0001)           No. stops: 20
(PID.TID 0000.0001)   Seconds in section "DO_STATEVARS_TAVE   [FORWARD_STEP]":
(PID.TID 0000.0001)           User time:  1.43478346
(PID.TID 0000.0001)         System time:  0.
(PID.TID 0000.0001)     Wall clock time:  1.43479443
(PID.TID 0000.0001)          No. starts: 20
(PID.TID 0000.0001)           No. stops: 20
(PID.TID 0000.0001)   Seconds in section "MONITOR             [FORWARD_STEP]":
(PID.TID 0000.0001)           User time:  2.00769174
(PID.TID 0000.0001)         System time:  0.000999987125
(PID.TID 0000.0001)     Wall clock time:  2.00884867
(PID.TID 0000.0001)          No. starts: 20
(PID.TID 0000.0001)           No. stops: 20
(PID.TID 0000.0001)   Seconds in section "DO_THE_MODEL_IO     [FORWARD_STEP]":
(PID.TID 0000.0001)           User time:  0.0799875259
(PID.TID 0000.0001)         System time:  0.0369940102
(PID.TID 0000.0001)     Wall clock time:  0.265468359
(PID.TID 0000.0001)          No. starts: 20
(PID.TID 0000.0001)           No. stops: 20
(PID.TID 0000.0001)   Seconds in section "WRITE_CHECKPOINT    [FORWARD_STEP]":
(PID.TID 0000.0001)           User time:  0.
(PID.TID 0000.0001)         System time:  0.
(PID.TID 0000.0001)     Wall clock time:  0.000695705414
(PID.TID 0000.0001)          No. starts: 20
(PID.TID 0000.0001)           No. stops: 20
(PID.TID 0000.0001)   Seconds in section "WRITE_CHECKPOINT       [THE_MODEL_MAIN]":
(PID.TID 0000.0001)           User time:  0.105983734
(PID.TID 0000.0001)         System time:  0.0419939905
(PID.TID 0000.0001)     Wall clock time:  0.441802979
(PID.TID 0000.0001)          No. starts: 1
(PID.TID 0000.0001)           No. stops: 1
(PID.TID 0000.0001) // ======================================================
(PID.TID 0000.0001) // Tile <-> Tile communication statistics
(PID.TID 0000.0001) // ======================================================
(PID.TID 0000.0001) // o Tile number: 000001
(PID.TID 0000.0001) //         No. X exchanges =              0
(PID.TID 0000.0001) //            Max. X spins =              0
(PID.TID 0000.0001) //            Min. X spins =     1000000000
(PID.TID 0000.0001) //          Total. X spins =              0
(PID.TID 0000.0001) //            Avg. X spins =       0.00E+00
(PID.TID 0000.0001) //         No. Y exchanges =              0
(PID.TID 0000.0001) //            Max. Y spins =              0
(PID.TID 0000.0001) //            Min. Y spins =     1000000000
(PID.TID 0000.0001) //          Total. Y spins =              0
(PID.TID 0000.0001) //            Avg. Y spins =       0.00E+00
(PID.TID 0000.0001) // o Tile number: 000002
(PID.TID 0000.0001) //         No. X exchanges =              0
(PID.TID 0000.0001) //            Max. X spins =              0
(PID.TID 0000.0001) //            Min. X spins =     1000000000
(PID.TID 0000.0001) //          Total. X spins =              0
(PID.TID 0000.0001) //            Avg. X spins =       0.00E+00
(PID.TID 0000.0001) //         No. Y exchanges =              0
(PID.TID 0000.0001) //            Max. Y spins =              0
(PID.TID 0000.0001) //            Min. Y spins =     1000000000
(PID.TID 0000.0001) //          Total. Y spins =              0
(PID.TID 0000.0001) //            Avg. Y spins =       0.00E+00
(PID.TID 0000.0001) // o Thread number: 000001
(PID.TID 0000.0001) //            No. barriers =          28874
(PID.TID 0000.0001) //      Max. barrier spins =              1
(PID.TID 0000.0001) //      Min. barrier spins =              1
(PID.TID 0000.0001) //     Total barrier spins =          28874
(PID.TID 0000.0001) //      Avg. barrier spins =       1.00E+00
