(PID.TID 0000.0001) 
(PID.TID 0000.0001) // ======================================================
(PID.TID 0000.0001) //                      MITgcm UV
(PID.TID 0000.0001) //                      =========
(PID.TID 0000.0001) // ======================================================
(PID.TID 0000.0001) // execution environment starting up...
(PID.TID 0000.0001) // Run starting Wed Apr  1 14:19:48 1998
(PID.TID 0000.0001) // on melville.lcs.mit.edu
(PID.TID 0000.0001) // account cnh
(PID.TID 0000.0001) // MITgcm UV Release: $Name:  $
(PID.TID 0000.0001) 
(PID.TID 0000.0001) // =======================================================
(PID.TID 0000.0001) // Execution Environment parameter file "eedata"
(PID.TID 0000.0001) // =======================================================
(PID.TID 0000.0001) ># Example "eedata" file
(PID.TID 0000.0001) ># Lines beginning "#" are comments
(PID.TID 0000.0001) ># nTx - No. threads per process in X
(PID.TID 0000.0001) ># nTy - No. threads per process in Y
(PID.TID 0000.0001) > &EEPARMS
(PID.TID 0000.0001) > nTx=1,nTy=1
(PID.TID 0000.0001) > /
(PID.TID 0000.0001) ># Note: Some systems use & as the
(PID.TID 0000.0001) ># namelist terminator. Other systems
(PID.TID 0000.0001) ># use a / character (as shown here).
(PID.TID 0000.0001) 
(PID.TID 0000.0001) // =======================================================
(PID.TID 0000.0001) // Computational Grid Specification ( see files "SIZE.h" )
(PID.TID 0000.0001) //                                  ( and "eedata"       )
(PID.TID 0000.0001) // =======================================================
(PID.TID 0000.0001)      nPx =    1 ; /* No. processes in X */
(PID.TID 0000.0001)      nPy =    1 ; /* No. processes in Y */
(PID.TID 0000.0001)      nSx =    1 ; /* No. tiles in X per process */
(PID.TID 0000.0001)      nSy =    1 ; /* No. tiles in Y per process */
(PID.TID 0000.0001)      sNx =   90 ; /* Tile size in X */
(PID.TID 0000.0001)      sNy =   40 ; /* Tile size in Y */
(PID.TID 0000.0001)      OLx =    3 ; /* Tile overlap distance in X */
(PID.TID 0000.0001)      OLy =    3 ; /* Tile overlap distance in Y */
(PID.TID 0000.0001)      nTx =    1 ; /* No. threads in X per process */
(PID.TID 0000.0001)      nTy =    1 ; /* No. threads in Y per process */
(PID.TID 0000.0001)       Nr =   15 ; /* No. levels in the vertical   */
(PID.TID 0000.0001)       nX =   90 ; /* Total domain size in X ( = nPx*nSx*sNx ) */
(PID.TID 0000.0001)       nY =   40 ; /* Total domain size in Y ( = nPy*nSy*sNy ) */
(PID.TID 0000.0001)   nTiles =    1 ; /* Total no. tiles per process ( = nSx*nSy ) */
(PID.TID 0000.0001)   nProcs =    1 ; /* Total no. processes ( = nPx*nPy ) */
(PID.TID 0000.0001) nThreads =    1 ; /* Total no. threads per process ( = nTx*nTy ) */
(PID.TID 0000.0001) usingMPI =    F ; /* Flag used to control whether MPI is in use */
(PID.TID 0000.0001)                   /*  note: To execute a program with MPI calls */
(PID.TID 0000.0001)                   /*  it must be launched appropriately e.g     */
(PID.TID 0000.0001)                   /*  "mpirun -np 64 ......"                    */
(PID.TID 0000.0001) 
(PID.TID 0000.0001) // ======================================================
(PID.TID 0000.0001) // Mapping of tiles to threads
(PID.TID 0000.0001) // ======================================================
(PID.TID 0000.0001) // -o- Thread   1, tiles (   1:   1,   1:   1)
(PID.TID 0000.0001) 
(PID.TID 0000.0001) // ======================================================
(PID.TID 0000.0001) // Tile <-> Tile connectvity table
(PID.TID 0000.0001) // ======================================================
(PID.TID 0000.0001) // Tile number: 000001 (process no. = 000001)
(PID.TID 0000.0001) //        WEST: Tile = 000001, Process = 000001, Comm = put
(PID.TID 0000.0001) //                bi = 000001, bj = 000001
(PID.TID 0000.0001) //        EAST: Tile = 000001, Process = 000001, Comm = put
(PID.TID 0000.0001) //                bi = 000001, bj = 000001
(PID.TID 0000.0001) //       SOUTH: Tile = 000001, Process = 000001, Comm = put
(PID.TID 0000.0001) //                bi = 000001, bj = 000001
(PID.TID 0000.0001) //       NORTH: Tile = 000001, Process = 000001, Comm = put
(PID.TID 0000.0001) //                bi = 000001, bj = 000001
(PID.TID 0000.0001) 
(PID.TID 0000.0001) // =======================================================
(PID.TID 0000.0001) // Model parameter file "data"
(PID.TID 0000.0001) // =======================================================
(PID.TID 0000.0001) ># ====================
(PID.TID 0000.0001) ># | Model parameters |
(PID.TID 0000.0001) ># ====================
(PID.TID 0000.0001) >#
(PID.TID 0000.0001) ># Continuous equation parameters
(PID.TID 0000.0001) > &PARM01
(PID.TID 0000.0001) > tRef=15*20.,
(PID.TID 0000.0001) > sRef=15*35.,
(PID.TID 0000.0001) > viscAh =3.E5,
(PID.TID 0000.0001) > no_slip_sides=.TRUE.,
(PID.TID 0000.0001) > viscAr =1.721611620915750e5,
(PID.TID 0000.0001) >#viscAz =1.67E-3,
(PID.TID 0000.0001) > no_slip_bottom=.FALSE.,
(PID.TID 0000.0001) > diffKhT=1.E3,
(PID.TID 0000.0001) > diffKrT=5.154525811125000e3,
(PID.TID 0000.0001) >#diffKzT=0.5E-4,
(PID.TID 0000.0001) > diffKhS=1.E3,
(PID.TID 0000.0001) > diffKrS=5.154525811125000e3,
(PID.TID 0000.0001) >#diffKzS=0.5E-4,
(PID.TID 0000.0001) > implicitDiffusion=.TRUE.,
(PID.TID 0000.0001) > ivdc_kappa=1.030905162225000e9,
(PID.TID 0000.0001) >#ivdc_kappa=10.0,
(PID.TID 0000.0001) > gravity=9.81,
(PID.TID 0000.0001) > gravitySign=-1.D0,
(PID.TID 0000.0001) > rhonil=1035.,
(PID.TID 0000.0001) > buoyancyRelation='OCEANICP',
(PID.TID 0000.0001) > eosType='JMD95P',
(PID.TID 0000.0001) > rigidLid=.FALSE.,
(PID.TID 0000.0001) > implicitFreeSurface=.TRUE.,
(PID.TID 0000.0001) > exactConserv=.TRUE.,
(PID.TID 0000.0001) > nonlinFreeSurf=3,
(PID.TID 0000.0001) > hFacInf=0.2,
(PID.TID 0000.0001) > hFacSup=2.0,
(PID.TID 0000.0001) > useRealFreshWaterFlux=.FALSE.,
(PID.TID 0000.0001) > readBinaryPrec=64,
(PID.TID 0000.0001) > writeBinaryPrec=64,
(PID.TID 0000.0001) > cosPower=0.5,
(PID.TID 0000.0001) > &
(PID.TID 0000.0001) >
(PID.TID 0000.0001) ># Elliptic solver parameters
(PID.TID 0000.0001) > &PARM02
(PID.TID 0000.0001) > cg2dMaxIters=200,
(PID.TID 0000.0001) > cg2dTargetResidual=1.E-9,
(PID.TID 0000.0001) > &
(PID.TID 0000.0001) >
(PID.TID 0000.0001) ># Time stepping parameters
(PID.TID 0000.0001) > &PARM03
(PID.TID 0000.0001) > startTime =           0.,
(PID.TID 0000.0001) > endTime   =     3456000.,
(PID.TID 0000.0001) ># after 100 years of intergration, one gets a reasonable flow field
(PID.TID 0000.0001) >#endTime   = 3110400000.,
(PID.TID 0000.0001) > deltaTmom      =   1200.0,
(PID.TID 0000.0001) > deltaTtracer   = 172800.0,
(PID.TID 0000.0001) > deltaTfreesurf = 172800.0,
(PID.TID 0000.0001) > deltaTClock    = 172800.0,
(PID.TID 0000.0001) > pChkptFreq  = 3110400000.,
(PID.TID 0000.0001) > dumpFreq    = 3110400000.,
(PID.TID 0000.0001) > taveFreq    = 3110400000.,
(PID.TID 0000.0001) > monitorFreq =   1.,
(PID.TID 0000.0001) > periodicExternalForcing=.TRUE.,
(PID.TID 0000.0001) > externForcingPeriod=2592000.,
(PID.TID 0000.0001) > externForcingCycle=31104000.,
(PID.TID 0000.0001) > tauThetaClimRelax=5184000.0,
(PID.TID 0000.0001) > abEps=0.1,
(PID.TID 0000.0001) > &
(PID.TID 0000.0001) >
(PID.TID 0000.0001) ># Gridding parameters
(PID.TID 0000.0001) > &PARM04
(PID.TID 0000.0001) > usingCartesianGrid=.FALSE.,
(PID.TID 0000.0001) > usingSphericalPolarGrid=.TRUE.,
(PID.TID 0000.0001) > dXspacing=4.,
(PID.TID 0000.0001) > dYspacing=4.,
(PID.TID 0000.0001) > Ro_SeaLevel=53023122.566084,
(PID.TID 0000.0001) > groundAtK1=.TRUE.,
(PID.TID 0000.0001) > delR=7103300.720021, 6570548.440790, 6041670.010249,
(PID.TID 0000.0001) >      5516436.666057, 4994602.034410, 4475903.435290,
(PID.TID 0000.0001) >      3960063.245801, 3446790.312651, 2935781.405664,
(PID.TID 0000.0001) >      2426722.705046, 1919291.315988, 1413156.804970,
(PID.TID 0000.0001) >      1008846.750166,  705919.025481,  504089.693499,
(PID.TID 0000.0001) > phiMin=-80.,
(PID.TID 0000.0001) > &
(PID.TID 0000.0001) >
(PID.TID 0000.0001) ># Input datasets
(PID.TID 0000.0001) > &PARM05
(PID.TID 0000.0001) > topoFile       ='topog.bin',
(PID.TID 0000.0001) > pLoadFile      ='deltageopotjmd95.bin',
(PID.TID 0000.0001) > hydrogThetaFile='lev_t.bin',
(PID.TID 0000.0001) > hydrogSaltFile ='lev_s.bin',
(PID.TID 0000.0001) > zonalWindFile  ='trenberth_taux.bin',
(PID.TID 0000.0001) > meridWindFile  ='trenberth_tauy.bin',
(PID.TID 0000.0001) > thetaClimFile  ='lev_sst.bin',
(PID.TID 0000.0001) >#saltClimFile   ='lev_sss.bin',
(PID.TID 0000.0001) > surfQFile      ='shi_qnet.bin',
(PID.TID 0000.0001) > EmPmRFile      ='shi_empmr.bin',
(PID.TID 0000.0001) > &
(PID.TID 0000.0001) 
(PID.TID 0000.0001) S/R INI_PARMS ; read PARM01 : OK
(PID.TID 0000.0001) S/R INI_PARMS ; read PARM02 : OK
(PID.TID 0000.0001) S/R INI_PARMS ; read PARM03 : OK
(PID.TID 0000.0001) S/R INI_PARMS ; read PARM04 : OK
(PID.TID 0000.0001) S/R INI_PARMS ; read PARM05 : OK
(PID.TID 0000.0001) %MON XC_max                       =   3.5800000000000E+02
(PID.TID 0000.0001) %MON XC_min                       =   2.0000000000000E+00
(PID.TID 0000.0001) %MON XC_mean                      =   1.8000000000000E+02
(PID.TID 0000.0001) %MON XC_sd                        =   1.0391663325314E+02
(PID.TID 0000.0001) %MON XG_max                       =   3.5600000000000E+02
(PID.TID 0000.0001) %MON XG_min                       =   4.0000000000000E+00
(PID.TID 0000.0001) %MON XG_mean                      =   1.8000000000000E+02
(PID.TID 0000.0001) %MON XG_sd                        =   1.0276186062932E+02
(PID.TID 0000.0001) %MON DXC_max                      =   4.4443898815675E+05
(PID.TID 0000.0001) %MON DXC_min                      =   9.2460385861875E+04
(PID.TID 0000.0001) %MON DXC_mean                     =   3.1372497618153E+05
(PID.TID 0000.0001) %MON DXC_sd                       =   1.1216447457560E+05
(PID.TID 0000.0001) %MON DXF_max                      =   4.4443898815675E+05
(PID.TID 0000.0001) %MON DXF_min                      =   9.2460385861875E+04
(PID.TID 0000.0001) %MON DXF_mean                     =   3.1372497618153E+05
(PID.TID 0000.0001) %MON DXF_sd                       =   1.1216447457560E+05
(PID.TID 0000.0001) %MON DXG_max                      =   4.4470989340816E+05
(PID.TID 0000.0001) %MON DXG_min                      =   7.7223062580781E+04
(PID.TID 0000.0001) %MON DXG_mean                     =   3.1353386340260E+05
(PID.TID 0000.0001) %MON DXG_sd                       =   1.1256651772502E+05
(PID.TID 0000.0001) %MON DXV_max                      =   4.4470989340816E+05
(PID.TID 0000.0001) %MON DXV_min                      =   7.7223062580781E+04
(PID.TID 0000.0001) %MON DXV_mean                     =   3.1353386340260E+05
(PID.TID 0000.0001) %MON DXV_sd                       =   1.1256651772502E+05
(PID.TID 0000.0001) %MON YC_max                       =   7.8000000000000E+01
(PID.TID 0000.0001) %MON YC_min                       =  -7.8000000000000E+01
(PID.TID 0000.0001) %MON YC_mean                      =   0.0000000000000E+00
(PID.TID 0000.0001) %MON YC_sd                        =   4.6173585522461E+01
(PID.TID 0000.0001) %MON YG_max                       =   7.6000000000000E+01
(PID.TID 0000.0001) %MON YG_min                       =  -8.0000000000000E+01
(PID.TID 0000.0001) %MON YG_mean                      =  -2.0512820512821E+00
(PID.TID 0000.0001) %MON YG_sd                        =   4.6760682979564E+01
(PID.TID 0000.0001) %MON DYC_max                      =   4.4470989340816E+05
(PID.TID 0000.0001) %MON DYC_min                      =   4.4470989340816E+05
(PID.TID 0000.0001) %MON DYC_mean                     =   4.4470989340814E+05
(PID.TID 0000.0001) %MON DYC_sd                       =   1.9848812371492E-08
(PID.TID 0000.0001) %MON DYF_max                      =   4.4470989340816E+05
(PID.TID 0000.0001) %MON DYF_min                      =   4.4470989340816E+05
(PID.TID 0000.0001) %MON DYF_mean                     =   4.4470989340814E+05
(PID.TID 0000.0001) %MON DYF_sd                       =   1.9848812371492E-08
(PID.TID 0000.0001) %MON DYG_max                      =   4.4470989340816E+05
(PID.TID 0000.0001) %MON DYG_min                      =   4.4470989340816E+05
(PID.TID 0000.0001) %MON DYG_mean                     =   4.4470989340814E+05
(PID.TID 0000.0001) %MON DYG_sd                       =   1.9848812371492E-08
(PID.TID 0000.0001) %MON DYU_max                      =   4.4470989340816E+05
(PID.TID 0000.0001) %MON DYU_min                      =   4.4470989340816E+05
(PID.TID 0000.0001) %MON DYU_mean                     =   4.4470989340814E+05
(PID.TID 0000.0001) %MON DYU_sd                       =   1.9848812371492E-08
(PID.TID 0000.0001) %MON RA_max                       =   1.9760627980089E+11
(PID.TID 0000.0001) %MON RA_min                       =   4.1109698667291E+10
(PID.TID 0000.0001) %MON RA_mean                      =   1.3948826965197E+11
(PID.TID 0000.0001) %MON RA_sd                        =   4.9870522472902E+10
(PID.TID 0000.0001) %MON RAW_max                      =   1.9760627980089E+11
(PID.TID 0000.0001) %MON RAW_min                      =   4.1109698667291E+10
(PID.TID 0000.0001) %MON RAW_mean                     =   1.3948826965197E+11
(PID.TID 0000.0001) %MON RAW_sd                       =   4.9870522472902E+10
(PID.TID 0000.0001) %MON RAS_max                      =   1.9772672958215E+11
(PID.TID 0000.0001) %MON RAS_min                      =   3.4334886267982E+10
(PID.TID 0000.0001) %MON RAS_mean                     =   1.3940329716694E+11
(PID.TID 0000.0001) %MON RAS_sd                       =   5.0049278732354E+10
(PID.TID 0000.0001) %MON RAZ_max                      =   1.9772672958215E+11
(PID.TID 0000.0001) %MON RAZ_min                      =   3.4334886267982E+10
(PID.TID 0000.0001) %MON RAZ_mean                     =   1.3940329716694E+11
(PID.TID 0000.0001) %MON RAZ_sd                       =   5.0049278732354E+10
(PID.TID 0000.0001) check_eos: Check the equation of state: Type JMD95P
(PID.TID 0000.0001) rho(35.5 PSU, 3.0 degC, 300. bar) = 1041.83267    -1.00000
(PID.TID 0000.0001) rho(find_rho)                     = 1041.83267 23069.54233
(PID.TID 0000.0001) rho(find_rho_scalar)              = 1041.83267     0.00000
(PID.TID 0000.0001) rho(35.0 PSU,20.0 degC, 200. bar) = 1033.21339    -1.00000
(PID.TID 0000.0001) rho(find_rho)                     = 1033.21283 24455.23234
(PID.TID 0000.0001) rho(find_rho_scalar)              = 1033.21283     0.00000
(PID.TID 0000.0001) rho(35.0 PSU,25.0 degC, 200. bar) = 1031.65423    -1.00000
(PID.TID 0000.0001) rho(find_rho)                     = 1031.65212 24831.95470
(PID.TID 0000.0001) rho(find_rho_scalar)              = 1031.65212     0.00000
(PID.TID 0000.0001) rho(20.0 PSU,20.0 degC, 100. bar) = 1017.72674    -1.00000
(PID.TID 0000.0001) rho(find_rho)                     = 1017.72885 23305.70425
(PID.TID 0000.0001) rho(find_rho_scalar)              = 1017.72885     0.00000
(PID.TID 0000.0001) rho(40.0 PSU,12.0 degC, 800. bar) = 1062.92826    -1.00000
(PID.TID 0000.0001) rho(find_rho)                     = 1062.93765 26197.90058
(PID.TID 0000.0001) rho(find_rho_scalar)              = 1062.93765     0.00000
(PID.TID 0000.0001) rho( 0.0 PSU, 5.0 degC,   0. bar) =  999.96675 20337.80375
(PID.TID 0000.0001) rho(find_rho)                     =  999.96675 20340.00932
(PID.TID 0000.0001) rho(find_rho_scalar)              =  999.96675     0.00000
(PID.TID 0000.0001) rho( 0.0 PSU,25.0 degC,   0. bar) =  997.04796 22100.72106
(PID.TID 0000.0001) rho(find_rho)                     =  997.04795 22338.16845
(PID.TID 0000.0001) rho(find_rho_scalar)              =  997.04795     0.00000
(PID.TID 0000.0001) rho(35.0 PSU, 5.0 degC,   0. bar) = 1027.67547 22185.93358
(PID.TID 0000.0001) rho(find_rho)                     = 1027.67546 22228.20795
(PID.TID 0000.0001) rho(find_rho_scalar)              = 1027.67546     0.00000
(PID.TID 0000.0001) rho(35.0 PSU,25.0 degC,   0. bar) = 1023.34306 23726.34949
(PID.TID 0000.0001) rho(find_rho)                     = 1023.34305 24093.88755
(PID.TID 0000.0001) rho(find_rho_scalar)              = 1023.34305     0.00000
(PID.TID 0000.0001) rho( 0.0 PSU, 4.0 degC,1000. bar) = 1044.12802 23643.52599
(PID.TID 0000.0001) rho(find_rho)                     = 1044.12328 23650.33430
(PID.TID 0000.0001) rho(find_rho_scalar)              = 1044.12328     0.00000
(PID.TID 0000.0001) rho( 0.0 PSU,22.8 degC,1000. bar) = 1037.90204 25405.09717
(PID.TID 0000.0001) rho(find_rho)                     = 1037.89958 25740.15017
(PID.TID 0000.0001) rho(find_rho_scalar)              = 1037.89958     0.00000
(PID.TID 0000.0001) rho(35.0 PSU, 3.6 degC,1000. bar) = 1069.48914 25577.49819
(PID.TID 0000.0001) rho(find_rho)                     = 1069.48678 25670.45688
(PID.TID 0000.0001) rho(find_rho_scalar)              = 1069.48678     0.00000
(PID.TID 0000.0001) rho(35.0 PSU,22.6 degC,1000. bar) = 1062.53817 27108.94504
(PID.TID 0000.0001) rho(find_rho)                     = 1062.53756 27602.20923
(PID.TID 0000.0001) rho(find_rho_scalar)              = 1062.53756     0.00000
(PID.TID 0000.0001) end check the equation of state
(PID.TID 0000.0001)  MDSREADFIELD: opening global file: topog.bin
(PID.TID 0000.0001) // =======================================================
(PID.TID 0000.0001) // Field Model R_low (ini_masks_etc) at iteration          1
(PID.TID 0000.0001) // CMIN =          1.001171767711639E-06
(PID.TID 0000.0001) // CMAX =          1.001171767711639E-06
(PID.TID 0000.0001) // CINT =          0.000000000000000E+00
(PID.TID 0000.0001) // SYMBOLS (CMIN->CMAX): -abcdefghijklmnopqrstuvwxyz+
(PID.TID 0000.0001) //                  0.0: .
(PID.TID 0000.0001) // RANGE I (Lo:Hi:Step):(  -2:  93:   1)
(PID.TID 0000.0001) // RANGE J (Lo:Hi:Step):(  43:  -2:  -1)
(PID.TID 0000.0001) // RANGE K (Lo:Hi:Step):(   1:   1:   1)
(PID.TID 0000.0001) // =======================================================
(PID.TID 0000.0001) K =   1
(PID.TID 0000.0001) //                I=7       I=17      I=27      I=37      I=47      I=57      I=67      I=77      I=87
(PID.TID 0000.0001) // |--J--|**0123456|890123456|890123456|890123456|890123456|890123456|890123456|890123456|890123456|890123
(PID.TID 0000.0001) //     43 ------------------------------------------------------------------------------------------------
(PID.TID 0000.0001) //     42 ------------------------------------------------------------------------------------------------
(PID.TID 0000.0001) //     41 ------------------------------------------------------------------------------------------------
(PID.TID 0000.0001) //     40 ------------------------------------------------------------------------------------------------
(PID.TID 0000.0001) //     39 ------------------------------------------------------------------------------------------------
(PID.TID 0000.0001) //     38 ------------------------------------------------------------------------------------------------
(PID.TID 0000.0001) //     37 ------------------------------------------------------------------------------------------------
(PID.TID 0000.0001) //     36 ------------------------------------------------------------------------------------------------
(PID.TID 0000.0001) //     35 ------------------------------------------------------------------------------------------------
(PID.TID 0000.0001) //     34 ------------------------------------------------------------------------------------------------
(PID.TID 0000.0001) //     33 ------------------------------------------------------------------------------------------------
(PID.TID 0000.0001) //     32 ------------------------------------------------------------------------------------------------
(PID.TID 0000.0001) //     31 ------------------------------------------------------------------------------------------------
(PID.TID 0000.0001) //     30 ------------------------------------------------------------------------------------------------
(PID.TID 0000.0001) //     29 ------------------------------------------------------------------------------------------------
(PID.TID 0000.0001) //     28 ------------------------------------------------------------------------------------------------
(PID.TID 0000.0001) //     27 ------------------------------------------------------------------------------------------------
(PID.TID 0000.0001) //     26 ------------------------------------------------------------------------------------------------
(PID.TID 0000.0001) //     25 ------------------------------------------------------------------------------------------------
(PID.TID 0000.0001) //     24 ------------------------------------------------------------------------------------------------
(PID.TID 0000.0001) //     23 ------------------------------------------------------------------------------------------------
(PID.TID 0000.0001) //     22 ------------------------------------------------------------------------------------------------
(PID.TID 0000.0001) //     21 ------------------------------------------------------------------------------------------------
(PID.TID 0000.0001) //     20 ------------------------------------------------------------------------------------------------
(PID.TID 0000.0001) //     19 ------------------------------------------------------------------------------------------------
(PID.TID 0000.0001) //     18 ------------------------------------------------------------------------------------------------
(PID.TID 0000.0001) //     17 ------------------------------------------------------------------------------------------------
(PID.TID 0000.0001) //     16 ------------------------------------------------------------------------------------------------
(PID.TID 0000.0001) //     15 ------------------------------------------------------------------------------------------------
(PID.TID 0000.0001) //     14 ------------------------------------------------------------------------------------------------
(PID.TID 0000.0001) //     13 ------------------------------------------------------------------------------------------------
(PID.TID 0000.0001) //     12 ------------------------------------------------------------------------------------------------
(PID.TID 0000.0001) //     11 ------------------------------------------------------------------------------------------------
(PID.TID 0000.0001) //     10 ------------------------------------------------------------------------------------------------
(PID.TID 0000.0001) //      9 ------------------------------------------------------------------------------------------------
(PID.TID 0000.0001) //      8 ------------------------------------------------------------------------------------------------
(PID.TID 0000.0001) //      7 ------------------------------------------------------------------------------------------------
(PID.TID 0000.0001) //      6 ------------------------------------------------------------------------------------------------
(PID.TID 0000.0001) //      5 ------------------------------------------------------------------------------------------------
(PID.TID 0000.0001) //      4 ------------------------------------------------------------------------------------------------
(PID.TID 0000.0001) //      3 ------------------------------------------------------------------------------------------------
(PID.TID 0000.0001) //      2 ------------------------------------------------------------------------------------------------
(PID.TID 0000.0001) //      1 ------------------------------------------------------------------------------------------------
(PID.TID 0000.0001) //      0 ------------------------------------------------------------------------------------------------
(PID.TID 0000.0001) //     -1 ------------------------------------------------------------------------------------------------
(PID.TID 0000.0001) //     -2 ------------------------------------------------------------------------------------------------
(PID.TID 0000.0001) // =======================================================
(PID.TID 0000.0001) // END OF FIELD                                          =
(PID.TID 0000.0001) // =======================================================
(PID.TID 0000.0001) 
(PID.TID 0000.0001) // =======================================================
(PID.TID 0000.0001) // Field Model Ro_surf (ini_masks_etc) at iteration          1
(PID.TID 0000.0001) // CMIN =          1.001171767711639E-06
(PID.TID 0000.0001) // CMAX =          5.302312256608400E+07
(PID.TID 0000.0001) // CINT =          1.963819354299371E+06
(PID.TID 0000.0001) // SYMBOLS (CMIN->CMAX): -abcdefghijklmnopqrstuvwxyz+
(PID.TID 0000.0001) //                  0.0: .
(PID.TID 0000.0001) // RANGE I (Lo:Hi:Step):(  -2:  93:   1)
(PID.TID 0000.0001) // RANGE J (Lo:Hi:Step):(  43:  -2:  -1)
(PID.TID 0000.0001) // RANGE K (Lo:Hi:Step):(   1:   1:   1)
(PID.TID 0000.0001) // =======================================================
(PID.TID 0000.0001) K =   1
(PID.TID 0000.0001) //                I=7       I=17      I=27      I=37      I=47      I=57      I=67      I=77      I=87
(PID.TID 0000.0001) // |--J--|**0123456|890123456|890123456|890123456|890123456|890123456|890123456|890123456|890123456|890123
(PID.TID 0000.0001) //     43 ------------------------------------------------------------------------------------------------
(PID.TID 0000.0001) //     42 ---------------------------------------------bbcdnttwwwttttqnnlfddc--abcc-----ccbcltttttba------
(PID.TID 0000.0001) //     41 ------------------------------------------------------------------------------------------------
(PID.TID 0000.0001) //     40 ainnllaa-aaaaaaaaaaaaa------------------------------------------------------------------aaainnll
(PID.TID 0000.0001) //     39 fgnnllibbaaaaaaaa---aa-----------------------------------------------------bdda--------abffgnnll
(PID.TID 0000.0001) //     38 gnllllibbaaaaaaa-----------------------------------------------------------bddca------bccfgnllll
(PID.TID 0000.0001) //     37 gnnnga------------------------------------------------------------------aa---bca---bggc--agnnnga
(PID.TID 0000.0001) //     36 cfgga-----------------------------------------nnaa--------------------aaaaaaabnnn-bllfggffcfgga-
(PID.TID 0000.0001) //     35 daaaa---------------------------------aaaa--iinnqqa---atttn-----------aaa----annqqqnglllgddaaaa-
(PID.TID 0000.0001) //     34 a-------------------------------------affc-tticcfab-wwwttttn------------------anqttqqqtttna-----
(PID.TID 0000.0001) //     33 da-------------------------------------ffa+++t+++++++++wwwtqna-----------------aifwwtnttttda----
(PID.TID 0000.0001) //     32 na-------------------------------------ag++++t++++++++++wwttnn----------------aaatwttqltttna----
(PID.TID 0000.0001) //     31 n--------------------------------------++++++w++++++++++wwwtqn--------------iw++twwwtiltwwn-----
(PID.TID 0000.0001) //     30 q-------------------------------------t++++w++w+++++++++++++ww------------at++++twwwlgqtwwq-----
(PID.TID 0000.0001) //     29 q-----------------------------------gf++++t+++tqt+++++++++++wwt-----------w++w+++wtnqq++wtq-----
(PID.TID 0000.0001) //     28 a---------------------------------actn+++++++++++++++++++wwwwwtq---------iw++++++wntww++wqa-----
(PID.TID 0000.0001) //     27 -----------------cc--------------aftttlt++++++++w+nnw+++wwwwwwttt---aaac-iw++++++qt+++++t-------
(PID.TID 0000.0001) //     26 -----------------cnn-----------afw+++wl+++++++++++qwtn++++++wwtttqg-aa-ii-c++++++tw++++wq-------
(PID.TID 0000.0001) //     25 -----------------qttq---lla---atfw+++wl+++ww++qqtnt+++++++++wwtttqnn---iifnac+++wqw++wwqq-------
(PID.TID 0000.0001) //     24 ---------------cntwwtg-qqqa---ftt-++twn+++++++++++++++++++wwwwwttqnqqqf-afnnddwwwtw++++wt-------
(PID.TID 0000.0001) //     23 ---------------dttwwtl-ttqd---fff--tqtq++++ttw+++++w++++++wwwwwttqqqqqql----bbqwwwt++++ww-------
(PID.TID 0000.0001) //     22 igii-----------wwwqttgnttqq---bb-dlqwwlltwwwwt++++++wt+w++wwwwwwtttqqqqii------dwwwttwwtwwigii--
(PID.TID 0000.0001) //     21 w++wqi--------nwwwwqtiwwwqqb-----dltwwqtttnwwt++++++wqwwwwwwwwwttttqnnill--------twwtqttwww++wqi
(PID.TID 0000.0001) //     20 w++wwi-------nwwwwwtqwwwwqww------b-fqqqgiltttt+++++++wwwwwwwwwwtttqttqqn---------ntt+++ttw++wwi
(PID.TID 0000.0001) //     19 tww++t-------qwwlittl+++qwwwwd---aba-----iannww++++t++++wwwwwwwwttqtttttt-----------w+++wqtww++t
(PID.TID 0000.0001) //     18 tw+++w-------qtnttfqq+++qwww++w+qfaa---iiblntwwwwtwtq+++wwtwwwwwtqtttttwwa----------w+++wqtw+++w
(PID.TID 0000.0001) //     17 tw+++w-------q-twwdqt+++l+++++++qf-----iilnninnnltwww++wwwttttttnqttqtwwwq---------tw+++wqtw+++w
(PID.TID 0000.0001) //     16 tw+++w------gn-wwtnntw++i++++++nf-------flnnfnnndf+++wwqflnttttqntttttwwwqt--------it+++wqtw+++w
(PID.TID 0000.0001) //     15 tw++wlb----aqq-wwwttnwwwnw+++++f---------lggdllnf++++wwwwwtqtttqqtttttwwqttt------atw+++wqtw++wl
(PID.TID 0000.0001) //     14 tw++nwn----dwwi+++tqqqtwnw++w+tb---------ttgglttg++++++wwtwttqqqnqttqqqqtttt-----aqtw+++wntw++nw
(PID.TID 0000.0001) //     13 twwn++t----nwwl+++qwwtqttliiw++n---------wwggittg++++++++wwwtttqqnqqttqttttl----aqttlwwwtntwwn++
(PID.TID 0000.0001) //     12 ttt+++wdaqttwwnwntwwwtntqttww++wt+++a----wwigiilw+++++++++wwqtttqqqqqtttttt-----qwwwwttttnttt+++
(PID.TID 0000.0001) //     11 qtw+++w++qtwwwnnt++wwtlttttwww++++++++--wwwwng-nw+w+++++++++wwwtqntttqqtttt----n+++++wwtqnqtw+++
(PID.TID 0000.0001) //     10 qtw++ww+w++wtiqqt++wwtqnnnqttwwww+++++w-wwwwtd-nbiw+++++++++wwwtqnttwwttqtq--ad++++++wwttnqtw++w
(PID.TID 0000.0001) //      9 nttwwwww+++llglntwtwtqqqttnnnttwwwwwwwwnwwwwt-fbt+++++++++++wwwtnqttwwwttqf-aad++++++wwwtqnttwww
(PID.TID 0000.0001) //      8 ntttqqqw++twwttwwwwfblqttttttnqqqttqqqtwtwwticfw++++++wwwwwwwttqnttwwwwwwta-aacttn++wtwwwtntttqq
(PID.TID 0000.0001) //      7 tninnwwqqt++wnw++wwtgcqtwwwttwwwwwwwttnttwwntw++++++wwwwtttqtqnnttwww+++wwt-aaaintgfqtqwwwtninnw
(PID.TID 0000.0001) //      6 ww++++++++++++++++wwwnggwwwwwwwwwwwwwwtqqqqttw++++wwwtqnnqnwtww+++w+w+++wwwtqqqqtilnniwtqtww++++
(PID.TID 0000.0001) //      5 ++++++++++++++++++wwwttttwwwwwwwwwwwwwtqqqlnlwwwwtttnnnqtwwww++++++++w+wwwwtqqqgitwwwwww++++++++
(PID.TID 0000.0001) //      4 +++tw++++++wwwqttttqqqttqqlbdnnllqqlnqqqqqnnnlnqlnnntttwwwwww+++++++wwwwwttnb--cqtwwwwww+++++tw+
(PID.TID 0000.0001) //      3 tttttilqqqdcc----------------------------cclgnqqqqttwwwwwwwwwtttttwwwwttqqbb--ciqtwwwwwwwwttttti
(PID.TID 0000.0001) //      2 ---------------------------------------------bbcdnttwwwttttqnnlfddc--abcc-----ccbcltttttba------
(PID.TID 0000.0001) //      1 ------------------------------------------------------------------------------------------------
(PID.TID 0000.0001) //      0 ainnllaa-aaaaaaaaaaaaa------------------------------------------------------------------aaainnll
(PID.TID 0000.0001) //     -1 fgnnllibbaaaaaaaa---aa-----------------------------------------------------bdda--------abffgnnll
(PID.TID 0000.0001) //     -2 ------------------------------------------------------------------------------------------------
(PID.TID 0000.0001) // =======================================================
(PID.TID 0000.0001) // END OF FIELD                                          =
(PID.TID 0000.0001) // =======================================================
(PID.TID 0000.0001) 
(PID.TID 0000.0001) // =======================================================
(PID.TID 0000.0001) // Field hFacC at iteration          1
(PID.TID 0000.0001) // CMIN =          1.000000000000000E+00
(PID.TID 0000.0001) // CMAX =          1.000000000000000E+00
(PID.TID 0000.0001) // CINT =          0.000000000000000E+00
(PID.TID 0000.0001) // SYMBOLS (CMIN->CMAX): -abcdefghijklmnopqrstuvwxyz+
(PID.TID 0000.0001) //                  0.0: .
(PID.TID 0000.0001) // RANGE I (Lo:Hi:Step):(  -2:  93:   1)
(PID.TID 0000.0001) // RANGE J (Lo:Hi:Step):(  43:  -2:  -1)
(PID.TID 0000.0001) // RANGE K (Lo:Hi:Step):(   1:   1:   1)
(PID.TID 0000.0001) // =======================================================
(PID.TID 0000.0001) K =   1
(PID.TID 0000.0001) //                I=7       I=17      I=27      I=37      I=47      I=57      I=67      I=77      I=87
(PID.TID 0000.0001) // |--J--|**0123456|890123456|890123456|890123456|890123456|890123456|890123456|890123456|890123456|890123
(PID.TID 0000.0001) //     43 ................................................................................................
(PID.TID 0000.0001) //     42 ................................................................................................
(PID.TID 0000.0001) //     41 ................................................................................................
(PID.TID 0000.0001) //     40 ................................................................................................
(PID.TID 0000.0001) //     39 ................................................................................................
(PID.TID 0000.0001) //     38 ................................................................................................
(PID.TID 0000.0001) //     37 ................................................................................................
(PID.TID 0000.0001) //     36 ................................................................................................
(PID.TID 0000.0001) //     35 ................................................................................................
(PID.TID 0000.0001) //     34 ................................................................................................
(PID.TID 0000.0001) //     33 ..........................................---.---------.........................................
(PID.TID 0000.0001) //     32 .........................................----.----------........................................
(PID.TID 0000.0001) //     31 .......................................------.----------......................--................
(PID.TID 0000.0001) //     30 .......................................----.--.-------------................----................
(PID.TID 0000.0001) //     29 ......................................----.---...-----------...............--.---.....--........
(PID.TID 0000.0001) //     28 ......................................-------------------..................------.....--........
(PID.TID 0000.0001) //     27 ........................................--------.-...---...................------..-----........
(PID.TID 0000.0001) //     26 ..................................---..-----------....------...............------..----.........
(PID.TID 0000.0001) //     25 ..................................---..---..--.....---------.................---...--...........
(PID.TID 0000.0001) //     24 ..................................--...-------------------.........................----.........
(PID.TID 0000.0001) //     23 .......................................----...-----.------.........................----.........
(PID.TID 0000.0001) //     22 ..............................................------..-.--......................................
(PID.TID 0000.0001) //     21 .--...........................................------.......................................--...
(PID.TID 0000.0001) //     20 .--............................................-------...............................---...--...
(PID.TID 0000.0001) //     19 ...--................---.......................----.----.............................---.....--.
(PID.TID 0000.0001) //     18 ..---................---....--.-.....................---.............................---....---.
(PID.TID 0000.0001) //     17 ..---................---.-------.....................--..............................---....---.
(PID.TID 0000.0001) //     16 ..---.................--.------...................---................................---....---.
(PID.TID 0000.0001) //     15 ..--......................-----..................----................................---....--..
(PID.TID 0000.0001) //     14 ..--...........---........--.-...................------..............................---....--..
(PID.TID 0000.0001) //     13 ....--.........---...........--..................--------.....................................--
(PID.TID 0000.0001) //     12 ...---.......................--..---.............---------...................................---
(PID.TID 0000.0001) //     11 ...---.--........--...........--------...........-.---------....................-----........---
(PID.TID 0000.0001) //     10 ...--..-.--......--..............-----.............---------...................------........--.
(PID.TID 0000.0001) //      9 ........---......................................-----------...................------...........
(PID.TID 0000.0001) //      8 ........--......................................------............................--............
(PID.TID 0000.0001) //      7 ..........--...--.............................------.................---........................
(PID.TID 0000.0001) //      6 ..----------------............................----.............---.-.---....................----
(PID.TID 0000.0001) //      5 ------------------...........................................--------.-.................--------
(PID.TID 0000.0001) //      4 ---..------..................................................-------....................-----..-
(PID.TID 0000.0001) //      3 ................................................................................................
(PID.TID 0000.0001) //      2 ................................................................................................
(PID.TID 0000.0001) //      1 ................................................................................................
(PID.TID 0000.0001) //      0 ................................................................................................
(PID.TID 0000.0001) //     -1 ................................................................................................
(PID.TID 0000.0001) //     -2 ................................................................................................
(PID.TID 0000.0001) // =======================================================
(PID.TID 0000.0001) // END OF FIELD                                          =
(PID.TID 0000.0001) // =======================================================
(PID.TID 0000.0001) 
(PID.TID 0000.0001) // =======================================================
(PID.TID 0000.0001) // Field hFacW at iteration          1
(PID.TID 0000.0001) // CMIN =          1.000000000000000E+00
(PID.TID 0000.0001) // CMAX =          1.000000000000000E+00
(PID.TID 0000.0001) // CINT =          0.000000000000000E+00
(PID.TID 0000.0001) // SYMBOLS (CMIN->CMAX): -abcdefghijklmnopqrstuvwxyz+
(PID.TID 0000.0001) //                  0.0: .
(PID.TID 0000.0001) // RANGE I (Lo:Hi:Step):(  -2:  93:   1)
(PID.TID 0000.0001) // RANGE J (Lo:Hi:Step):(  43:  -2:  -1)
(PID.TID 0000.0001) // RANGE K (Lo:Hi:Step):(   1:   1:   1)
(PID.TID 0000.0001) // =======================================================
(PID.TID 0000.0001) K =   1
(PID.TID 0000.0001) //                I=7       I=17      I=27      I=37      I=47      I=57      I=67      I=77      I=87
(PID.TID 0000.0001) // |--J--|**0123456|890123456|890123456|890123456|890123456|890123456|890123456|890123456|890123456|890123
(PID.TID 0000.0001) //     43 ................................................................................................
(PID.TID 0000.0001) //     42 ................................................................................................
(PID.TID 0000.0001) //     41 ................................................................................................
(PID.TID 0000.0001) //     40 ................................................................................................
(PID.TID 0000.0001) //     39 ................................................................................................
(PID.TID 0000.0001) //     38 ................................................................................................
(PID.TID 0000.0001) //     37 ................................................................................................
(PID.TID 0000.0001) //     36 ................................................................................................
(PID.TID 0000.0001) //     35 ................................................................................................
(PID.TID 0000.0001) //     34 ................................................................................................
(PID.TID 0000.0001) //     33 ...........................................--..--------.........................................
(PID.TID 0000.0001) //     32 ..........................................---..---------........................................
(PID.TID 0000.0001) //     31 ........................................-----..---------.......................-................
(PID.TID 0000.0001) //     30 ........................................---..-..------------.................---................
(PID.TID 0000.0001) //     29 .......................................---..--....----------................-..--......-........
(PID.TID 0000.0001) //     28 .......................................------------------...................-----......-........
(PID.TID 0000.0001) //     27 .........................................-------......--....................-----...----........
(PID.TID 0000.0001) //     26 ...................................--...----------.....-----................-----...---.........
(PID.TID 0000.0001) //     25 ...................................--...--...-......--------..................--....-...........
(PID.TID 0000.0001) //     24 ...................................-....------------------..........................---.........
(PID.TID 0000.0001) //     23 ........................................---....----..-----..........................---.........
(PID.TID 0000.0001) //     22 ...............................................-----.....-......................................
(PID.TID 0000.0001) //     21 ..-............................................-----........................................-...
(PID.TID 0000.0001) //     20 ..-.............................................------................................--....-...
(PID.TID 0000.0001) //     19 ....-.................--........................---..---..............................--......-.
(PID.TID 0000.0001) //     18 ...--.................--.....-........................--..............................--.....--.
(PID.TID 0000.0001) //     17 ...--.................--..------......................-...............................--.....--.
(PID.TID 0000.0001) //     16 ...--..................-..-----....................--.................................--.....--.
(PID.TID 0000.0001) //     15 ...-.......................----...................---.................................--.....-..
(PID.TID 0000.0001) //     14 ...-............--.........-......................-----...............................--.....-..
(PID.TID 0000.0001) //     13 .....-..........--............-...................-------......................................-
(PID.TID 0000.0001) //     12 ....--........................-...--..............--------....................................--
(PID.TID 0000.0001) //     11 ....--..-.........-............-------..............--------.....................----.........--
(PID.TID 0000.0001) //     10 ....-.....-.......-...............----..............--------....................-----.........-.
(PID.TID 0000.0001) //      9 .........--.......................................----------....................-----...........
(PID.TID 0000.0001) //      8 .........-.......................................-----.............................-............
(PID.TID 0000.0001) //      7 ...........-....-..............................-----..................--........................
(PID.TID 0000.0001) //      6 ...---------------.............................---..............--....--.....................---
(PID.TID 0000.0001) //      5 ------------------............................................-------....................-------
(PID.TID 0000.0001) //      4 ---...-----...................................................------.....................----...
(PID.TID 0000.0001) //      3 ................................................................................................
(PID.TID 0000.0001) //      2 ................................................................................................
(PID.TID 0000.0001) //      1 ................................................................................................
(PID.TID 0000.0001) //      0 ................................................................................................
(PID.TID 0000.0001) //     -1 ................................................................................................
(PID.TID 0000.0001) //     -2 ................................................................................................
(PID.TID 0000.0001) // =======================================================
(PID.TID 0000.0001) // END OF FIELD                                          =
(PID.TID 0000.0001) // =======================================================
(PID.TID 0000.0001) 
(PID.TID 0000.0001) // =======================================================
(PID.TID 0000.0001) // Field hFacS at iteration          1
(PID.TID 0000.0001) // CMIN =          1.000000000000000E+00
(PID.TID 0000.0001) // CMAX =          1.000000000000000E+00
(PID.TID 0000.0001) // CINT =          0.000000000000000E+00
(PID.TID 0000.0001) // SYMBOLS (CMIN->CMAX): -abcdefghijklmnopqrstuvwxyz+
(PID.TID 0000.0001) //                  0.0: .
(PID.TID 0000.0001) // RANGE I (Lo:Hi:Step):(  -2:  93:   1)
(PID.TID 0000.0001) // RANGE J (Lo:Hi:Step):(  43:  -2:  -1)
(PID.TID 0000.0001) // RANGE K (Lo:Hi:Step):(   1:   1:   1)
(PID.TID 0000.0001) // =======================================================
(PID.TID 0000.0001) K =   1
(PID.TID 0000.0001) //                I=7       I=17      I=27      I=37      I=47      I=57      I=67      I=77      I=87
(PID.TID 0000.0001) // |--J--|**0123456|890123456|890123456|890123456|890123456|890123456|890123456|890123456|890123456|890123
(PID.TID 0000.0001) //     43 ................................................................................................
(PID.TID 0000.0001) //     42 ................................................................................................
(PID.TID 0000.0001) //     41 ................................................................................................
(PID.TID 0000.0001) //     40 ................................................................................................
(PID.TID 0000.0001) //     39 ................................................................................................
(PID.TID 0000.0001) //     38 ................................................................................................
(PID.TID 0000.0001) //     37 ................................................................................................
(PID.TID 0000.0001) //     36 ................................................................................................
(PID.TID 0000.0001) //     35 ................................................................................................
(PID.TID 0000.0001) //     34 ................................................................................................
(PID.TID 0000.0001) //     33 ..........................................---.---------.........................................
(PID.TID 0000.0001) //     32 .........................................----.----------........................................
(PID.TID 0000.0001) //     31 .......................................----.-..---------......................--................
(PID.TID 0000.0001) //     30 .......................................---..--...-----------................-.--................
(PID.TID 0000.0001) //     29 ......................................----.---...--------..................--.---.....--........
(PID.TID 0000.0001) //     28 ........................................--------.-...---...................------.....--........
(PID.TID 0000.0001) //     27 ........................................--------.-....--...................------..----.........
(PID.TID 0000.0001) //     26 ..................................---..---..--........------.................---...--...........
(PID.TID 0000.0001) //     25 ..................................--...---..--.....-------.........................--...........
(PID.TID 0000.0001) //     24 .......................................----...-----.------.........................----.........
(PID.TID 0000.0001) //     23 ..............................................-----...-.--......................................
(PID.TID 0000.0001) //     22 ..............................................------............................................
(PID.TID 0000.0001) //     21 .--............................................-----.......................................--...
(PID.TID 0000.0001) //     20 ...............................................----.--...............................---........
(PID.TID 0000.0001) //     19 ...--................---.............................---.............................---.....--.
(PID.TID 0000.0001) //     18 ..---................---....--.-.....................--..............................---....---.
(PID.TID 0000.0001) //     17 ..---.................--.------......................................................---....---.
(PID.TID 0000.0001) //     16 ..--......................-----...................---................................---....--..
(PID.TID 0000.0001) //     15 ..--......................--.-...................----................................---....--..
(PID.TID 0000.0001) //     14 ...............---...........-...................------.........................................
(PID.TID 0000.0001) //     13 ....--.......................--..................--------.....................................--
(PID.TID 0000.0001) //     12 ...---........................-..---.............-.-------...................................---
(PID.TID 0000.0001) //     11 ...--..-.........--..............-----.............---------....................-----........--.
(PID.TID 0000.0001) //     10 .........--........................................---------...................------...........
(PID.TID 0000.0001) //      9 ........--.......................................-----............................--............
(PID.TID 0000.0001) //      8 ................................................----............................................
(PID.TID 0000.0001) //      7 ..........--...--.............................----...................---........................
(PID.TID 0000.0001) //      6 ..----------------.............................................---.-..-.....................----
(PID.TID 0000.0001) //      5 ---..------..................................................-------....................-----..-
(PID.TID 0000.0001) //      4 ................................................................................................
(PID.TID 0000.0001) //      3 ................................................................................................
(PID.TID 0000.0001) //      2 ................................................................................................
(PID.TID 0000.0001) //      1 ................................................................................................
(PID.TID 0000.0001) //      0 ................................................................................................
(PID.TID 0000.0001) //     -1 ................................................................................................
(PID.TID 0000.0001) //     -2 ................................................................................................
(PID.TID 0000.0001) // =======================================================
(PID.TID 0000.0001) // END OF FIELD                                          =
(PID.TID 0000.0001) // =======================================================
(PID.TID 0000.0001) 
(PID.TID 0000.0001) %MON fCori_max                    =   1.4226580169407E-04
(PID.TID 0000.0001) %MON fCori_min                    =  -1.4226580169407E-04
(PID.TID 0000.0001) %MON fCori_mean                   =   7.5291817533716E-23
(PID.TID 0000.0001) %MON fCori_sd                     =   9.6335367303778E-05
(PID.TID 0000.0001) %MON fCoriG_max                   =   1.4112379284621E-04
(PID.TID 0000.0001) %MON fCoriG_min                   =  -1.4323448157692E-04
(PID.TID 0000.0001) %MON fCoriG_mean                  =  -3.6726790147928E-06
(PID.TID 0000.0001) %MON fCoriG_sd                    =   9.7510077443652E-05
(PID.TID 0000.0001) %MON fCoriCos_max                 =   1.4535550371427E-04
(PID.TID 0000.0001) %MON fCoriCos_min                 =   3.0239529651320E-05
(PID.TID 0000.0001) %MON fCoriCos_mean                =   1.0260497651149E-04
(PID.TID 0000.0001) %MON fCoriCos_sd                  =   3.6683828681187E-05
(PID.TID 0000.0001)  PACKAGES_BOOT: opening data.pkg
(PID.TID 0000.0001)  OPEN_COPY_DATA_FILE: opening file data.pkg
(PID.TID 0000.0001) // =======================================================
(PID.TID 0000.0001) // Parameter file "data.pkg"
(PID.TID 0000.0001) // =======================================================
(PID.TID 0000.0001) ># Packages
(PID.TID 0000.0001) > &PACKAGES
(PID.TID 0000.0001) > &
(PID.TID 0000.0001) 
(PID.TID 0000.0001)  PACKAGES_BOOT: finished reading data.pkg
(PID.TID 0000.0001) 
(PID.TID 0000.0001) // ===================================
(PID.TID 0000.0001) // GAD parameters :
(PID.TID 0000.0001) // ===================================
(PID.TID 0000.0001) tempAdvScheme =   /* Temp. advection scheme selector */
(PID.TID 0000.0001)                       2
(PID.TID 0000.0001)     ;
(PID.TID 0000.0001) tempMultiDimAdvec =   /* use Muti-Dim Advec method for Temp */
(PID.TID 0000.0001)                   F
(PID.TID 0000.0001)     ;
(PID.TID 0000.0001) tempAdamsBashforth =   /* use Adams-Bashforth time-stepping for Temp */
(PID.TID 0000.0001)                   T
(PID.TID 0000.0001)     ;
(PID.TID 0000.0001) saltAdvScheme =   /* Salt. advection scheme selector */
(PID.TID 0000.0001)                       2
(PID.TID 0000.0001)     ;
(PID.TID 0000.0001) saltMultiDimAdvec =   /* use Muti-Dim Advec method for Salt */
(PID.TID 0000.0001)                   F
(PID.TID 0000.0001)     ;
(PID.TID 0000.0001) saltAdamsBashforth =   /* use Adams-Bashforth time-stepping for Salt */
(PID.TID 0000.0001)                   T
(PID.TID 0000.0001)     ;
(PID.TID 0000.0001) // ===================================
(PID.TID 0000.0001) // CG2D normalisation factor =          0.6002578945994698667540502E-08
(PID.TID 0000.0001) 
(PID.TID 0000.0001) CONFIG_CHECK: OK
(PID.TID 0000.0001) // =======================================================
(PID.TID 0000.0001) // Model configuration
(PID.TID 0000.0001) // =======================================================
(PID.TID 0000.0001) //
(PID.TID 0000.0001) // "Physical" paramters ( PARM01 in namelist )
(PID.TID 0000.0001) //
(PID.TID 0000.0001) buoyancyRelation = OCEANICP
(PID.TID 0000.0001) tRef =   /* Reference temperature profile ( oC or oK ) */
(PID.TID 0000.0001)    15 @  2.000000000000000E+01              /* K =  1: 15 */
(PID.TID 0000.0001)     ;
(PID.TID 0000.0001) sRef =   /* Reference salinity profile ( ppt ) */
(PID.TID 0000.0001)    15 @  3.500000000000000E+01              /* K =  1: 15 */
(PID.TID 0000.0001)     ;
(PID.TID 0000.0001) viscAh =   /* Lateral eddy viscosity ( m^2/s ) */
(PID.TID 0000.0001)                 3.000000000000000E+05
(PID.TID 0000.0001)     ;
(PID.TID 0000.0001) viscAh =   /* Lateral biharmonic viscosity ( m^4/s ) */
(PID.TID 0000.0001)                 0.000000000000000E+00
(PID.TID 0000.0001)     ;
(PID.TID 0000.0001) no_slip_sides =  /* Viscous BCs: No-slip sides */
(PID.TID 0000.0001)                   T
(PID.TID 0000.0001)     ;
(PID.TID 0000.0001) viscAr =   /* Vertical eddy viscosity ( units of r^2/s ) */
(PID.TID 0000.0001)                 1.721611620915750E+05
(PID.TID 0000.0001)     ;
(PID.TID 0000.0001) diffKhT =   /* Laplacian diffusion of heat laterally ( m^2/s ) */
(PID.TID 0000.0001)                 1.000000000000000E+03
(PID.TID 0000.0001)     ;
(PID.TID 0000.0001) diffK4T =   /* Bihaarmonic diffusion of heat laterally ( m^4/s ) */
(PID.TID 0000.0001)                 0.000000000000000E+00
(PID.TID 0000.0001)     ;
(PID.TID 0000.0001) diffKzT =   /* Laplacian diffusion of heat vertically ( m^2/s ) */
(PID.TID 0000.0001)                 1.234567000000000E+05
(PID.TID 0000.0001)     ;
(PID.TID 0000.0001) diffKrT =   /* Laplacian diffusion of heat vertically ( m^2/s ) */
(PID.TID 0000.0001)                 5.154525811125000E+03
(PID.TID 0000.0001)     ;
(PID.TID 0000.0001) diffKhS =   /* Laplacian diffusion of salt laterally ( m^2/s ) */
(PID.TID 0000.0001)                 1.000000000000000E+03
(PID.TID 0000.0001)     ;
(PID.TID 0000.0001) diffK4S =   /* Bihaarmonic diffusion of salt laterally ( m^4/s ) */
(PID.TID 0000.0001)                 0.000000000000000E+00
(PID.TID 0000.0001)     ;
(PID.TID 0000.0001) diffKzS =   /* Laplacian diffusion of salt vertically ( m^2/s ) */
(PID.TID 0000.0001)                 1.234567000000000E+05
(PID.TID 0000.0001)     ;
(PID.TID 0000.0001) diffKrS =   /* Laplacian diffusion of salt vertically ( m^2/s ) */
(PID.TID 0000.0001)                 5.154525811125000E+03
(PID.TID 0000.0001)     ;
(PID.TID 0000.0001)  Equation of State : eosType = JMD95P
(PID.TID 0000.0001) tAlpha =   /* Linear EOS thermal expansion coefficient ( 1/degree ) */
(PID.TID 0000.0001)                 1.234567000000000E+05
(PID.TID 0000.0001)     ;
(PID.TID 0000.0001) sBeta =   /* Linear EOS haline contraction coefficient ( 1/ppt ) */
(PID.TID 0000.0001)                 1.234567000000000E+05
(PID.TID 0000.0001)     ;
(PID.TID 0000.0001) rhonil =   /* Reference density ( kg/m^3 ) */
(PID.TID 0000.0001)                 1.035000000000000E+03
(PID.TID 0000.0001)     ;
(PID.TID 0000.0001) rhoConst =   /* Reference density ( kg/m^3 ) */
(PID.TID 0000.0001)                 1.035000000000000E+03
(PID.TID 0000.0001)     ;
(PID.TID 0000.0001) rhoConstFresh =   /* Reference density ( kg/m^3 ) */
(PID.TID 0000.0001)                 9.998000000000000E+02
(PID.TID 0000.0001)     ;
(PID.TID 0000.0001) gravity =   /* Gravitational acceleration ( m/s^2 ) */
(PID.TID 0000.0001)                 9.810000000000000E+00
(PID.TID 0000.0001)     ;
(PID.TID 0000.0001) gBaro =   /* Barotropic gravity ( m/s^2 ) */
(PID.TID 0000.0001)                 9.810000000000000E+00
(PID.TID 0000.0001)     ;
(PID.TID 0000.0001) f0 =   /* Reference coriolis parameter ( 1/s ) */
(PID.TID 0000.0001)                 1.000000000000000E-04
(PID.TID 0000.0001)     ;
(PID.TID 0000.0001) beta =   /* Beta ( 1/(m.s) ) */
(PID.TID 0000.0001)                 9.999999999999999E-12
(PID.TID 0000.0001)     ;
(PID.TID 0000.0001) freeSurfFac =   /* Implicit free surface factor */
(PID.TID 0000.0001)                 1.000000000000000E+00
(PID.TID 0000.0001)     ;
(PID.TID 0000.0001) implicitFreeSurface =   /* Implicit free surface on/off flag */
(PID.TID 0000.0001)                   T
(PID.TID 0000.0001)     ;
(PID.TID 0000.0001) rigidLid =   /* Rigid lid on/off flag */
(PID.TID 0000.0001)                   F
(PID.TID 0000.0001)     ;
(PID.TID 0000.0001) implicSurfPress =   /* Surface Pressure implicit factor (0-1)*/
(PID.TID 0000.0001)                 1.000000000000000E+00
(PID.TID 0000.0001)     ;
(PID.TID 0000.0001) implicDiv2Dflow =   /* Barot. Flow Div. implicit factor (0-1)*/
(PID.TID 0000.0001)                 1.000000000000000E+00
(PID.TID 0000.0001)     ;
(PID.TID 0000.0001) exactConserv =   /* Exact Volume Conservation on/off flag*/
(PID.TID 0000.0001)                   T
(PID.TID 0000.0001)     ;
(PID.TID 0000.0001) uniformLin_PhiSurf =   /* use uniform Bo_surf on/off flag*/
(PID.TID 0000.0001)                   T
(PID.TID 0000.0001)     ;
(PID.TID 0000.0001) nonlinFreeSurf =   /* Non-linear Free Surf. options (-1,0,1,2,3)*/
(PID.TID 0000.0001)                       3
(PID.TID 0000.0001)     ;
(PID.TID 0000.0001)      -1,0= Off ; 1,2,3= On, 2=+rescale gU,gV, 3=+update cg2d solv.
(PID.TID 0000.0001) hFacInf =   /* lower threshold for hFac (nonlinFreeSurf only)*/
(PID.TID 0000.0001)                 2.000000000000000E-01
(PID.TID 0000.0001)     ;
(PID.TID 0000.0001) hFacSup =   /* upper threshold for hFac (nonlinFreeSurf only)*/
(PID.TID 0000.0001)                 2.000000000000000E+00
(PID.TID 0000.0001)     ;
(PID.TID 0000.0001) useRealFreshWaterFlux =   /* Real Fresh Water Flux on/off flag*/
(PID.TID 0000.0001)                   F
(PID.TID 0000.0001)     ;
(PID.TID 0000.0001) convertFW2Salt = /* convert F.W. Flux to Salt Flux (-1=use local S)(ppt)*/
(PID.TID 0000.0001)                 3.500000000000000E+01
(PID.TID 0000.0001)     ;
(PID.TID 0000.0001) multiDimAdvection =   /* enable/disable Multi-Dim Advection */
(PID.TID 0000.0001)                   T
(PID.TID 0000.0001)     ;
(PID.TID 0000.0001) staggerTimeStep =   /* Stagger time stepping on/off flag */
(PID.TID 0000.0001)                   F
(PID.TID 0000.0001)     ;
(PID.TID 0000.0001) momStepping =  /* Momentum equation on/off flag */
(PID.TID 0000.0001)                   T
(PID.TID 0000.0001)     ;
(PID.TID 0000.0001) momAdvection =  /* Momentum advection on/off flag */
(PID.TID 0000.0001)                   T
(PID.TID 0000.0001)     ;
(PID.TID 0000.0001) momViscosity =  /* Momentum viscosity on/off flag */
(PID.TID 0000.0001)                   T
(PID.TID 0000.0001)     ;
(PID.TID 0000.0001) useCoriolis =  /* Coriolis on/off flag */
(PID.TID 0000.0001)                   T
(PID.TID 0000.0001)     ;
(PID.TID 0000.0001) momForcing =  /* Momentum forcing on/off flag */
(PID.TID 0000.0001)                   T
(PID.TID 0000.0001)     ;
(PID.TID 0000.0001) momPressureForcing =  /* Momentum pressure term on/off flag */
(PID.TID 0000.0001)                   T
(PID.TID 0000.0001)     ;
(PID.TID 0000.0001) tempStepping =  /* Temperature equation on/off flag */
(PID.TID 0000.0001)                   T
(PID.TID 0000.0001)     ;
(PID.TID 0000.0001) tempAdvection=  /* Temperature advection on/off flag */
(PID.TID 0000.0001)                   T
(PID.TID 0000.0001)     ;
(PID.TID 0000.0001) tempForcing  =  /* Temperature forcing on/off flag */
(PID.TID 0000.0001)                   T
(PID.TID 0000.0001)     ;
(PID.TID 0000.0001) saltStepping =  /* Salinity equation on/off flag */
(PID.TID 0000.0001)                   T
(PID.TID 0000.0001)     ;
(PID.TID 0000.0001) saltAdvection=  /* Salinity advection on/off flag */
(PID.TID 0000.0001)                   T
(PID.TID 0000.0001)     ;
(PID.TID 0000.0001) saltForcing  =  /* Salinity forcing on/off flag */
(PID.TID 0000.0001)                   T
(PID.TID 0000.0001)     ;
(PID.TID 0000.0001) nonHydrostatic =  /* Non-Hydrostatic on/off flag */
(PID.TID 0000.0001)                   F
(PID.TID 0000.0001)     ;
(PID.TID 0000.0001) //
(PID.TID 0000.0001) // Elliptic solver(s) paramters ( PARM02 in namelist )
(PID.TID 0000.0001) //
(PID.TID 0000.0001) cg2dMaxIters =   /* Upper limit on 2d con. grad iterations  */
(PID.TID 0000.0001)                     200
(PID.TID 0000.0001)     ;
(PID.TID 0000.0001) cg2dChkResFreq =   /* 2d con. grad convergence test frequency */
(PID.TID 0000.0001)                       1
(PID.TID 0000.0001)     ;
(PID.TID 0000.0001) cg2dTargetResidual =   /* 2d con. grad target residual  */
(PID.TID 0000.0001)                 1.000000000000000E-09
(PID.TID 0000.0001)     ;
(PID.TID 0000.0001) //
(PID.TID 0000.0001) // Time stepping paramters ( PARM03 in namelist )
(PID.TID 0000.0001) //
(PID.TID 0000.0001) nIter0 =   /* Base timestep number  */
(PID.TID 0000.0001)                       0
(PID.TID 0000.0001)     ;
(PID.TID 0000.0001) nTimeSteps =   /* Number of timesteps */
(PID.TID 0000.0001)                      20
(PID.TID 0000.0001)     ;
(PID.TID 0000.0001) deltatTmom =   /* Momentum equation timestep ( s ) */
(PID.TID 0000.0001)                 1.200000000000000E+03
(PID.TID 0000.0001)     ;
(PID.TID 0000.0001) deltaTfreesurf =   /* FreeSurface equation timestep ( s ) */
(PID.TID 0000.0001)                 1.728000000000000E+05
(PID.TID 0000.0001)     ;
(PID.TID 0000.0001) deltatTtracer =   /* Tracer equation timestep ( s ) */
(PID.TID 0000.0001)                 1.728000000000000E+05
(PID.TID 0000.0001)     ;
(PID.TID 0000.0001) deltatTClock  =   /* Model clock timestep ( s ) */
(PID.TID 0000.0001)                 1.728000000000000E+05
(PID.TID 0000.0001)     ;
(PID.TID 0000.0001) cAdjFreq =   /* Convective adjustment interval ( s ) */
(PID.TID 0000.0001)                 0.000000000000000E+00
(PID.TID 0000.0001)     ;
(PID.TID 0000.0001) forcing_In_AB =   /* put T,S Forcing in Adams-Bash. stepping */
(PID.TID 0000.0001)                   T
(PID.TID 0000.0001)     ;
(PID.TID 0000.0001) abeps =   /* Adams-Bashforth stabilizing weight */
(PID.TID 0000.0001)                 1.000000000000000E-01
(PID.TID 0000.0001)     ;
(PID.TID 0000.0001) tauCD =   /* CD coupling time-scale ( s ) */
(PID.TID 0000.0001)                 1.200000000000000E+03
(PID.TID 0000.0001)     ;
(PID.TID 0000.0001) rCD =   /* Normalised CD coupling parameter */
(PID.TID 0000.0001)                 0.000000000000000E+00
(PID.TID 0000.0001)     ;
(PID.TID 0000.0001) startTime =   /* Run start time ( s ). */
(PID.TID 0000.0001)                 0.000000000000000E+00
(PID.TID 0000.0001)     ;
(PID.TID 0000.0001) endTime =   /* Integration ending time ( s ). */
(PID.TID 0000.0001)                 3.456000000000000E+06
(PID.TID 0000.0001)     ;
(PID.TID 0000.0001) pChkPtFreq =   /* Permanent restart/checkpoint file interval ( s ). */
(PID.TID 0000.0001)                 3.110400000000000E+09
(PID.TID 0000.0001)     ;
(PID.TID 0000.0001) chkPtFreq =   /* Rolling restart/checkpoint file interval ( s ). */
(PID.TID 0000.0001)                 0.000000000000000E+00
(PID.TID 0000.0001)     ;
(PID.TID 0000.0001) dumpFreq =   /* Model state write out interval ( s ). */
(PID.TID 0000.0001)                 3.110400000000000E+09
(PID.TID 0000.0001)     ;
(PID.TID 0000.0001) //
(PID.TID 0000.0001) // Gridding paramters ( PARM04 in namelist )
(PID.TID 0000.0001) //
(PID.TID 0000.0001) usingCartesianGrid =   /* Cartesian coordinates flag ( True / False ) */
(PID.TID 0000.0001)                   F
(PID.TID 0000.0001)     ;
(PID.TID 0000.0001) usingSphericalPolarGrid =   /* Spherical coordinates flag ( True / False ) */
(PID.TID 0000.0001)                   T
(PID.TID 0000.0001)     ;
(PID.TID 0000.0001) groundAtK1 =   /* Lower Boundary (ground) at the surface(k=1) ( T / F ) */
(PID.TID 0000.0001)                   T
(PID.TID 0000.0001)     ;
(PID.TID 0000.0001) Ro_SeaLevel =   /* r(1) ( units of r ) */
(PID.TID 0000.0001)                 5.302312256608400E+07
(PID.TID 0000.0001)     ;
(PID.TID 0000.0001) rkFac =   /* minus Vertical index orientation  */
(PID.TID 0000.0001)                 1.000000000000000E+00
(PID.TID 0000.0001)     ;
(PID.TID 0000.0001) horiVertRatio =   /* Ratio on units : Horiz - Vertical */
(PID.TID 0000.0001)                 1.015335000000000E+04
(PID.TID 0000.0001)     ;
(PID.TID 0000.0001) drC =   /* C spacing ( units of r ) */
(PID.TID 0000.0001)                 3.551650360010500E+06,      /* K =  1 */
(PID.TID 0000.0001)                 6.836924580405500E+06,      /* K =  2 */
(PID.TID 0000.0001)                 6.306109225519501E+06,      /* K =  3 */
(PID.TID 0000.0001)                 5.779053338153000E+06,      /* K =  4 */
(PID.TID 0000.0001)                 5.255519350233500E+06,      /* K =  5 */
(PID.TID 0000.0001)                 4.735252734850001E+06,      /* K =  6 */
(PID.TID 0000.0001)                 4.217983340545500E+06,      /* K =  7 */
(PID.TID 0000.0001)                 3.703426779226000E+06,      /* K =  8 */
(PID.TID 0000.0001)                 3.191285859157500E+06,      /* K =  9 */
(PID.TID 0000.0001)                 2.681252055355000E+06,      /* K = 10 */
(PID.TID 0000.0001)                 2.173007010517000E+06,      /* K = 11 */
(PID.TID 0000.0001)                 1.666224060479000E+06,      /* K = 12 */
(PID.TID 0000.0001)                 1.211001777568000E+06,      /* K = 13 */
(PID.TID 0000.0001)                 8.573828878235000E+05,      /* K = 14 */
(PID.TID 0000.0001)                 6.050043594899999E+05       /* K = 15 */
(PID.TID 0000.0001)     ;
(PID.TID 0000.0001) drF =   /* W spacing ( units of r ) */
(PID.TID 0000.0001)                 7.103300720021000E+06,      /* K =  1 */
(PID.TID 0000.0001)                 6.570548440790000E+06,      /* K =  2 */
(PID.TID 0000.0001)                 6.041670010249000E+06,      /* K =  3 */
(PID.TID 0000.0001)                 5.516436666057000E+06,      /* K =  4 */
(PID.TID 0000.0001)                 4.994602034410000E+06,      /* K =  5 */
(PID.TID 0000.0001)                 4.475903435290000E+06,      /* K =  6 */
(PID.TID 0000.0001)                 3.960063245801000E+06,      /* K =  7 */
(PID.TID 0000.0001)                 3.446790312651000E+06,      /* K =  8 */
(PID.TID 0000.0001)                 2.935781405664000E+06,      /* K =  9 */
(PID.TID 0000.0001)                 2.426722705046000E+06,      /* K = 10 */
(PID.TID 0000.0001)                 1.919291315988000E+06,      /* K = 11 */
(PID.TID 0000.0001)                 1.413156804970000E+06,      /* K = 12 */
(PID.TID 0000.0001)                 1.008846750166000E+06,      /* K = 13 */
(PID.TID 0000.0001)                 7.059190254810000E+05,      /* K = 14 */
(PID.TID 0000.0001)                 5.040896934990000E+05       /* K = 15 */
(PID.TID 0000.0001)     ;
(PID.TID 0000.0001) delX =   /* U spacing ( m - cartesian, degrees - spherical ) */
(PID.TID 0000.0001)    90 @  4.000000000000000E+00              /* I =  1: 90 */
(PID.TID 0000.0001)     ;
(PID.TID 0000.0001) delY =   /* V spacing ( m - cartesian, degrees - spherical ) */
(PID.TID 0000.0001)    40 @  4.000000000000000E+00              /* J =  1: 40 */
(PID.TID 0000.0001)     ;
(PID.TID 0000.0001) phiMin =    /* South edge (ignored - cartesian, degrees - spherical ) */
(PID.TID 0000.0001)                -8.000000000000000E+01
(PID.TID 0000.0001)     ;
(PID.TID 0000.0001) thetaMin =    /* West edge ( ignored - cartesian, degrees - spherical ) */
(PID.TID 0000.0001)                 0.000000000000000E+00
(PID.TID 0000.0001)     ;
(PID.TID 0000.0001) rSphere =    /* Radius ( ignored - cartesian, m - spherical ) */
(PID.TID 0000.0001)                 6.370000000000000E+06
(PID.TID 0000.0001)     ;
(PID.TID 0000.0001) xcoord =   /* P-point X coord ( m - cartesian, degrees - spherical ) */
(PID.TID 0000.0001)                 2.000000000000000E+00,      /* I =  1 */
(PID.TID 0000.0001)                 6.000000000000000E+00,      /* I =  2 */
(PID.TID 0000.0001)                 1.000000000000000E+01,      /* I =  3 */
(PID.TID 0000.0001)                 1.400000000000000E+01,      /* I =  4 */
(PID.TID 0000.0001)                 1.800000000000000E+01,      /* I =  5 */
(PID.TID 0000.0001)                 2.200000000000000E+01,      /* I =  6 */
(PID.TID 0000.0001)                 2.600000000000000E+01,      /* I =  7 */
(PID.TID 0000.0001)                 3.000000000000000E+01,      /* I =  8 */
(PID.TID 0000.0001)                 3.400000000000000E+01,      /* I =  9 */
(PID.TID 0000.0001)                 3.800000000000000E+01,      /* I = 10 */
(PID.TID 0000.0001)                 4.200000000000000E+01,      /* I = 11 */
(PID.TID 0000.0001)                 4.600000000000000E+01,      /* I = 12 */
(PID.TID 0000.0001)                 5.000000000000000E+01,      /* I = 13 */
(PID.TID 0000.0001)                 5.400000000000000E+01,      /* I = 14 */
(PID.TID 0000.0001)                 5.800000000000000E+01,      /* I = 15 */
(PID.TID 0000.0001)                 6.200000000000000E+01,      /* I = 16 */
(PID.TID 0000.0001)                 6.600000000000000E+01,      /* I = 17 */
(PID.TID 0000.0001)                 7.000000000000000E+01,      /* I = 18 */
(PID.TID 0000.0001)                 7.400000000000000E+01,      /* I = 19 */
(PID.TID 0000.0001)                 7.800000000000000E+01,      /* I = 20 */
(PID.TID 0000.0001)                 8.200000000000000E+01,      /* I = 21 */
(PID.TID 0000.0001)                 8.600000000000000E+01,      /* I = 22 */
(PID.TID 0000.0001)                 9.000000000000000E+01,      /* I = 23 */
(PID.TID 0000.0001)                 9.400000000000000E+01,      /* I = 24 */
(PID.TID 0000.0001)                 9.800000000000000E+01,      /* I = 25 */
(PID.TID 0000.0001)                 1.020000000000000E+02,      /* I = 26 */
(PID.TID 0000.0001)                 1.060000000000000E+02,      /* I = 27 */
(PID.TID 0000.0001)                 1.100000000000000E+02,      /* I = 28 */
(PID.TID 0000.0001)                 1.140000000000000E+02,      /* I = 29 */
(PID.TID 0000.0001)                 1.180000000000000E+02,      /* I = 30 */
(PID.TID 0000.0001)                 1.220000000000000E+02,      /* I = 31 */
(PID.TID 0000.0001)                 1.260000000000000E+02,      /* I = 32 */
(PID.TID 0000.0001)                 1.300000000000000E+02,      /* I = 33 */
(PID.TID 0000.0001)                 1.340000000000000E+02,      /* I = 34 */
(PID.TID 0000.0001)                 1.380000000000000E+02,      /* I = 35 */
(PID.TID 0000.0001)                 1.420000000000000E+02,      /* I = 36 */
(PID.TID 0000.0001)                 1.460000000000000E+02,      /* I = 37 */
(PID.TID 0000.0001)                 1.500000000000000E+02,      /* I = 38 */
(PID.TID 0000.0001)                 1.540000000000000E+02,      /* I = 39 */
(PID.TID 0000.0001)                 1.580000000000000E+02,      /* I = 40 */
(PID.TID 0000.0001)                 1.620000000000000E+02,      /* I = 41 */
(PID.TID 0000.0001)                 1.660000000000000E+02,      /* I = 42 */
(PID.TID 0000.0001)                 1.700000000000000E+02,      /* I = 43 */
(PID.TID 0000.0001)                 1.740000000000000E+02,      /* I = 44 */
(PID.TID 0000.0001)                 1.780000000000000E+02,      /* I = 45 */
(PID.TID 0000.0001)                 1.820000000000000E+02,      /* I = 46 */
(PID.TID 0000.0001)                 1.860000000000000E+02,      /* I = 47 */
(PID.TID 0000.0001)                 1.900000000000000E+02,      /* I = 48 */
(PID.TID 0000.0001)                 1.940000000000000E+02,      /* I = 49 */
(PID.TID 0000.0001)                 1.980000000000000E+02,      /* I = 50 */
(PID.TID 0000.0001)                 2.020000000000000E+02,      /* I = 51 */
(PID.TID 0000.0001)                 2.060000000000000E+02,      /* I = 52 */
(PID.TID 0000.0001)                 2.100000000000000E+02,      /* I = 53 */
(PID.TID 0000.0001)                 2.140000000000000E+02,      /* I = 54 */
(PID.TID 0000.0001)                 2.180000000000000E+02,      /* I = 55 */
(PID.TID 0000.0001)                 2.220000000000000E+02,      /* I = 56 */
(PID.TID 0000.0001)                 2.260000000000000E+02,      /* I = 57 */
(PID.TID 0000.0001)                 2.300000000000000E+02,      /* I = 58 */
(PID.TID 0000.0001)                 2.340000000000000E+02,      /* I = 59 */
(PID.TID 0000.0001)                 2.380000000000000E+02,      /* I = 60 */
(PID.TID 0000.0001)                 2.420000000000000E+02,      /* I = 61 */
(PID.TID 0000.0001)                 2.460000000000000E+02,      /* I = 62 */
(PID.TID 0000.0001)                 2.500000000000000E+02,      /* I = 63 */
(PID.TID 0000.0001)                 2.540000000000000E+02,      /* I = 64 */
(PID.TID 0000.0001)                 2.580000000000000E+02,      /* I = 65 */
(PID.TID 0000.0001)                 2.620000000000000E+02,      /* I = 66 */
(PID.TID 0000.0001)                 2.660000000000000E+02,      /* I = 67 */
(PID.TID 0000.0001)                 2.700000000000000E+02,      /* I = 68 */
(PID.TID 0000.0001)                 2.740000000000000E+02,      /* I = 69 */
(PID.TID 0000.0001)                 2.780000000000000E+02,      /* I = 70 */
(PID.TID 0000.0001)                 2.820000000000000E+02,      /* I = 71 */
(PID.TID 0000.0001)                 2.860000000000000E+02,      /* I = 72 */
(PID.TID 0000.0001)                 2.900000000000000E+02,      /* I = 73 */
(PID.TID 0000.0001)                 2.940000000000000E+02,      /* I = 74 */
(PID.TID 0000.0001)                 2.980000000000000E+02,      /* I = 75 */
(PID.TID 0000.0001)                 3.020000000000000E+02,      /* I = 76 */
(PID.TID 0000.0001)                 3.060000000000000E+02,      /* I = 77 */
(PID.TID 0000.0001)                 3.100000000000000E+02,      /* I = 78 */
(PID.TID 0000.0001)                 3.140000000000000E+02,      /* I = 79 */
(PID.TID 0000.0001)                 3.180000000000000E+02,      /* I = 80 */
(PID.TID 0000.0001)                 3.220000000000000E+02,      /* I = 81 */
(PID.TID 0000.0001)                 3.260000000000000E+02,      /* I = 82 */
(PID.TID 0000.0001)                 3.300000000000000E+02,      /* I = 83 */
(PID.TID 0000.0001)                 3.340000000000000E+02,      /* I = 84 */
(PID.TID 0000.0001)                 3.380000000000000E+02,      /* I = 85 */
(PID.TID 0000.0001)                 3.420000000000000E+02,      /* I = 86 */
(PID.TID 0000.0001)                 3.460000000000000E+02,      /* I = 87 */
(PID.TID 0000.0001)                 3.500000000000000E+02,      /* I = 88 */
(PID.TID 0000.0001)                 3.540000000000000E+02,      /* I = 89 */
(PID.TID 0000.0001)                 3.580000000000000E+02       /* I = 90 */
(PID.TID 0000.0001)     ;
(PID.TID 0000.0001) ycoord =   /* P-point Y coord ( m - cartesian, degrees - spherical ) */
(PID.TID 0000.0001)                -7.800000000000000E+01,      /* J =  1 */
(PID.TID 0000.0001)                -7.400000000000000E+01,      /* J =  2 */
(PID.TID 0000.0001)                -7.000000000000000E+01,      /* J =  3 */
(PID.TID 0000.0001)                -6.600000000000000E+01,      /* J =  4 */
(PID.TID 0000.0001)                -6.200000000000000E+01,      /* J =  5 */
(PID.TID 0000.0001)                -5.800000000000000E+01,      /* J =  6 */
(PID.TID 0000.0001)                -5.400000000000000E+01,      /* J =  7 */
(PID.TID 0000.0001)                -5.000000000000000E+01,      /* J =  8 */
(PID.TID 0000.0001)                -4.600000000000000E+01,      /* J =  9 */
(PID.TID 0000.0001)                -4.200000000000000E+01,      /* J = 10 */
(PID.TID 0000.0001)                -3.800000000000000E+01,      /* J = 11 */
(PID.TID 0000.0001)                -3.400000000000000E+01,      /* J = 12 */
(PID.TID 0000.0001)                -3.000000000000000E+01,      /* J = 13 */
(PID.TID 0000.0001)                -2.600000000000000E+01,      /* J = 14 */
(PID.TID 0000.0001)                -2.200000000000000E+01,      /* J = 15 */
(PID.TID 0000.0001)                -1.800000000000000E+01,      /* J = 16 */
(PID.TID 0000.0001)                -1.400000000000000E+01,      /* J = 17 */
(PID.TID 0000.0001)                -1.000000000000000E+01,      /* J = 18 */
(PID.TID 0000.0001)                -6.000000000000000E+00,      /* J = 19 */
(PID.TID 0000.0001)                -2.000000000000000E+00,      /* J = 20 */
(PID.TID 0000.0001)                 2.000000000000000E+00,      /* J = 21 */
(PID.TID 0000.0001)                 6.000000000000000E+00,      /* J = 22 */
(PID.TID 0000.0001)                 1.000000000000000E+01,      /* J = 23 */
(PID.TID 0000.0001)                 1.400000000000000E+01,      /* J = 24 */
(PID.TID 0000.0001)                 1.800000000000000E+01,      /* J = 25 */
(PID.TID 0000.0001)                 2.200000000000000E+01,      /* J = 26 */
(PID.TID 0000.0001)                 2.600000000000000E+01,      /* J = 27 */
(PID.TID 0000.0001)                 3.000000000000000E+01,      /* J = 28 */
(PID.TID 0000.0001)                 3.400000000000000E+01,      /* J = 29 */
(PID.TID 0000.0001)                 3.800000000000000E+01,      /* J = 30 */
(PID.TID 0000.0001)                 4.200000000000000E+01,      /* J = 31 */
(PID.TID 0000.0001)                 4.600000000000000E+01,      /* J = 32 */
(PID.TID 0000.0001)                 5.000000000000000E+01,      /* J = 33 */
(PID.TID 0000.0001)                 5.400000000000000E+01,      /* J = 34 */
(PID.TID 0000.0001)                 5.800000000000000E+01,      /* J = 35 */
(PID.TID 0000.0001)                 6.200000000000000E+01,      /* J = 36 */
(PID.TID 0000.0001)                 6.600000000000000E+01,      /* J = 37 */
(PID.TID 0000.0001)                 7.000000000000000E+01,      /* J = 38 */
(PID.TID 0000.0001)                 7.400000000000000E+01,      /* J = 39 */
(PID.TID 0000.0001)                 7.800000000000000E+01       /* J = 40 */
(PID.TID 0000.0001)     ;
(PID.TID 0000.0001) rcoord =   /* P-point R coordinate (  units of r ) */
(PID.TID 0000.0001)                 4.947147220607350E+07,      /* K =  1 */
(PID.TID 0000.0001)                 4.263454762566800E+07,      /* K =  2 */
(PID.TID 0000.0001)                 3.632843840014850E+07,      /* K =  3 */
(PID.TID 0000.0001)                 3.054938506199550E+07,      /* K =  4 */
(PID.TID 0000.0001)                 2.529386571176200E+07,      /* K =  5 */
(PID.TID 0000.0001)                 2.055861297691200E+07,      /* K =  6 */
(PID.TID 0000.0001)                 1.634062963636650E+07,      /* K =  7 */
(PID.TID 0000.0001)                 1.263720285714050E+07,      /* K =  8 */
(PID.TID 0000.0001)                 9.445916997983005E+06,      /* K =  9 */
(PID.TID 0000.0001)                 6.764664942628005E+06,      /* K = 10 */
(PID.TID 0000.0001)                 4.591657932111004E+06,      /* K = 11 */
(PID.TID 0000.0001)                 2.925433871632004E+06,      /* K = 12 */
(PID.TID 0000.0001)                 1.714432094064004E+06,      /* K = 13 */
(PID.TID 0000.0001)                 8.570492062405043E+05,      /* K = 14 */
(PID.TID 0000.0001)                 2.520448467505043E+05       /* K = 15 */
(PID.TID 0000.0001)     ;
(PID.TID 0000.0001) rF =   /* W-Interf. R coordinate (  units of r ) */
(PID.TID 0000.0001)                 5.302312256608400E+07,      /* K =  1 */
(PID.TID 0000.0001)                 4.591982184606300E+07,      /* K =  2 */
(PID.TID 0000.0001)                 3.934927340527300E+07,      /* K =  3 */
(PID.TID 0000.0001)                 3.330760339502400E+07,      /* K =  4 */
(PID.TID 0000.0001)                 2.779116672896700E+07,      /* K =  5 */
(PID.TID 0000.0001)                 2.279656469455700E+07,      /* K =  6 */
(PID.TID 0000.0001)                 1.832066125926699E+07,      /* K =  7 */
(PID.TID 0000.0001)                 1.436059801346599E+07,      /* K =  8 */
(PID.TID 0000.0001)                 1.091380770081500E+07,      /* K =  9 */
(PID.TID 0000.0001)                 7.978026295150995E+06,      /* K = 10 */
(PID.TID 0000.0001)                 5.551303590104995E+06,      /* K = 11 */
(PID.TID 0000.0001)                 3.632012274116995E+06,      /* K = 12 */
(PID.TID 0000.0001)                 2.218855469146995E+06,      /* K = 13 */
(PID.TID 0000.0001)                 1.210008718980995E+06,      /* K = 14 */
(PID.TID 0000.0001)                 5.040896934999955E+05,      /* K = 15 */
(PID.TID 0000.0001)                 9.955256246030331E-07       /* K = 16 */
(PID.TID 0000.0001)     ;
(PID.TID 0000.0001) dxF =  /* dxF(:,1,:,1) ( m - cartesian, degrees - spherical ) */
(PID.TID 0000.0001)    90 @  9.246038586187513E+04              /* I =  1: 90 */
(PID.TID 0000.0001)     ;
(PID.TID 0000.0001) dxF =  /* dxF(1,:,1,:) ( m - cartesian, degrees - spherical ) */
(PID.TID 0000.0001)                 9.246038586187513E+04,      /* J =  1 */
(PID.TID 0000.0001)                 1.225786591246834E+05,      /* J =  2 */
(PID.TID 0000.0001)                 1.520997414818001E+05,      /* J =  3 */
(PID.TID 0000.0001)                 1.808798091874300E+05,      /* J =  4 */
(PID.TID 0000.0001)                 2.087786486446736E+05,      /* J =  5 */
(PID.TID 0000.0001)                 2.356603395120766E+05,      /* J =  6 */
(PID.TID 0000.0001)                 2.613939168938713E+05,      /* J =  7 */
(PID.TID 0000.0001)                 2.858540093877838E+05,      /* J =  8 */
(PID.TID 0000.0001)                 3.089214498819035E+05,      /* J =  9 */
(PID.TID 0000.0001)                 3.304838561248741E+05,      /* J = 10 */
(PID.TID 0000.0001)                 3.504361782409254E+05,      /* J = 11 */
(PID.TID 0000.0001)                 3.686812105223083E+05,      /* J = 12 */
(PID.TID 0000.0001)                 3.851300650057322E+05,      /* J = 13 */
(PID.TID 0000.0001)                 3.997026045255871E+05,      /* J = 14 */
(PID.TID 0000.0001)                 4.123278331341585E+05,      /* J = 15 */
(PID.TID 0000.0001)                 4.229442419867491E+05,      /* J = 16 */
(PID.TID 0000.0001)                 4.315001090065869E+05,      /* J = 17 */
(PID.TID 0000.0001)                 4.379537508695839E+05,      /* J = 18 */
(PID.TID 0000.0001)                 4.422737260813013E+05,      /* J = 19 */
(PID.TID 0000.0001)     2 @  4.444389881567501E+05,             /* J = 20: 21 */
(PID.TID 0000.0001)                 4.422737260813013E+05,      /* J = 22 */
(PID.TID 0000.0001)                 4.379537508695839E+05,      /* J = 23 */
(PID.TID 0000.0001)                 4.315001090065869E+05,      /* J = 24 */
(PID.TID 0000.0001)                 4.229442419867491E+05,      /* J = 25 */
(PID.TID 0000.0001)                 4.123278331341585E+05,      /* J = 26 */
(PID.TID 0000.0001)                 3.997026045255871E+05,      /* J = 27 */
(PID.TID 0000.0001)                 3.851300650057322E+05,      /* J = 28 */
(PID.TID 0000.0001)                 3.686812105223083E+05,      /* J = 29 */
(PID.TID 0000.0001)                 3.504361782409254E+05,      /* J = 30 */
(PID.TID 0000.0001)                 3.304838561248741E+05,      /* J = 31 */
(PID.TID 0000.0001)                 3.089214498819035E+05,      /* J = 32 */
(PID.TID 0000.0001)                 2.858540093877838E+05,      /* J = 33 */
(PID.TID 0000.0001)                 2.613939168938713E+05,      /* J = 34 */
(PID.TID 0000.0001)                 2.356603395120766E+05,      /* J = 35 */
(PID.TID 0000.0001)                 2.087786486446736E+05,      /* J = 36 */
(PID.TID 0000.0001)                 1.808798091874300E+05,      /* J = 37 */
(PID.TID 0000.0001)                 1.520997414818001E+05,      /* J = 38 */
(PID.TID 0000.0001)                 1.225786591246834E+05,      /* J = 39 */
(PID.TID 0000.0001)                 9.246038586187513E+04       /* J = 40 */
(PID.TID 0000.0001)     ;
(PID.TID 0000.0001) dyF =  /* dyF(:,1,:,1) ( m - cartesian, degrees - spherical ) */
(PID.TID 0000.0001)    90 @  4.447098934081552E+05              /* I =  1: 90 */
(PID.TID 0000.0001)     ;
(PID.TID 0000.0001) dyF =  /* dyF(1,:,1,:) ( m - cartesian, degrees - spherical ) */
(PID.TID 0000.0001)    40 @  4.447098934081552E+05              /* J =  1: 40 */
(PID.TID 0000.0001)     ;
(PID.TID 0000.0001) dxG =  /* dxG(:,1,:,1) ( m - cartesian, degrees - spherical ) */
(PID.TID 0000.0001)    90 @  7.722306258078101E+04              /* I =  1: 90 */
(PID.TID 0000.0001)     ;
(PID.TID 0000.0001) dxG =  /* dxG(1,:,1,:) ( m - cartesian, degrees - spherical ) */
(PID.TID 0000.0001)                 7.722306258078101E+04,      /* J =  1 */
(PID.TID 0000.0001)                 1.075850604052271E+05,      /* J =  2 */
(PID.TID 0000.0001)                 1.374229146297914E+05,      /* J =  3 */
(PID.TID 0000.0001)                 1.665912582279823E+05,      /* J =  4 */
(PID.TID 0000.0001)                 1.949479859617814E+05,      /* J =  5 */
(PID.TID 0000.0001)                 2.223549467040776E+05,      /* J =  6 */
(PID.TID 0000.0001)                 2.486786164970726E+05,      /* J =  7 */
(PID.TID 0000.0001)                 2.737907490675810E+05,      /* J =  8 */
(PID.TID 0000.0001)                 2.975690006299820E+05,      /* J =  9 */
(PID.TID 0000.0001)                 3.198975259328452E+05,      /* J = 10 */
(PID.TID 0000.0001)                 3.406675426453503E+05,      /* J = 11 */
(PID.TID 0000.0001)                 3.597778613338689E+05,      /* J = 12 */
(PID.TID 0000.0001)                 3.771353784467131E+05,      /* J = 13 */
(PID.TID 0000.0001)                 3.926555299052806E+05,      /* J = 14 */
(PID.TID 0000.0001)                 4.062627030917454E+05,      /* J = 15 */
(PID.TID 0000.0001)                 4.178906052261313E+05,      /* J = 16 */
(PID.TID 0000.0001)                 4.274825863380723E+05,      /* J = 17 */
(PID.TID 0000.0001)                 4.349919152597734E+05,      /* J = 18 */
(PID.TID 0000.0001)                 4.403820072955634E+05,      /* J = 19 */
(PID.TID 0000.0001)                 4.436266024588540E+05,      /* J = 20 */
(PID.TID 0000.0001)                 4.447098934081552E+05,      /* J = 21 */
(PID.TID 0000.0001)                 4.436266024588540E+05,      /* J = 22 */
(PID.TID 0000.0001)                 4.403820072955634E+05,      /* J = 23 */
(PID.TID 0000.0001)                 4.349919152597734E+05,      /* J = 24 */
(PID.TID 0000.0001)                 4.274825863380723E+05,      /* J = 25 */
(PID.TID 0000.0001)                 4.178906052261313E+05,      /* J = 26 */
(PID.TID 0000.0001)                 4.062627030917454E+05,      /* J = 27 */
(PID.TID 0000.0001)                 3.926555299052806E+05,      /* J = 28 */
(PID.TID 0000.0001)                 3.771353784467131E+05,      /* J = 29 */
(PID.TID 0000.0001)                 3.597778613338689E+05,      /* J = 30 */
(PID.TID 0000.0001)                 3.406675426453503E+05,      /* J = 31 */
(PID.TID 0000.0001)                 3.198975259328452E+05,      /* J = 32 */
(PID.TID 0000.0001)                 2.975690006299820E+05,      /* J = 33 */
(PID.TID 0000.0001)                 2.737907490675810E+05,      /* J = 34 */
(PID.TID 0000.0001)                 2.486786164970726E+05,      /* J = 35 */
(PID.TID 0000.0001)                 2.223549467040776E+05,      /* J = 36 */
(PID.TID 0000.0001)                 1.949479859617814E+05,      /* J = 37 */
(PID.TID 0000.0001)                 1.665912582279823E+05,      /* J = 38 */
(PID.TID 0000.0001)                 1.374229146297914E+05,      /* J = 39 */
(PID.TID 0000.0001)                 1.075850604052271E+05       /* J = 40 */
(PID.TID 0000.0001)     ;
(PID.TID 0000.0001) dyG =  /* dyG(:,1,:,1) ( m - cartesian, degrees - spherical ) */
(PID.TID 0000.0001)    90 @  4.447098934081552E+05              /* I =  1: 90 */
(PID.TID 0000.0001)     ;
(PID.TID 0000.0001) dyG =  /* dyG(1,:,1,:) ( m - cartesian, degrees - spherical ) */
(PID.TID 0000.0001)    40 @  4.447098934081552E+05              /* J =  1: 40 */
(PID.TID 0000.0001)     ;
(PID.TID 0000.0001) dxC =  /* dxC(:,1,:,1) ( m - cartesian, degrees - spherical ) */
(PID.TID 0000.0001)    90 @  9.246038586187513E+04              /* I =  1: 90 */
(PID.TID 0000.0001)     ;
(PID.TID 0000.0001) dxC =  /* dxC(1,:,1,:) ( m - cartesian, degrees - spherical ) */
(PID.TID 0000.0001)                 9.246038586187513E+04,      /* J =  1 */
(PID.TID 0000.0001)                 1.225786591246834E+05,      /* J =  2 */
(PID.TID 0000.0001)                 1.520997414818001E+05,      /* J =  3 */
(PID.TID 0000.0001)                 1.808798091874300E+05,      /* J =  4 */
(PID.TID 0000.0001)                 2.087786486446736E+05,      /* J =  5 */
(PID.TID 0000.0001)                 2.356603395120766E+05,      /* J =  6 */
(PID.TID 0000.0001)                 2.613939168938713E+05,      /* J =  7 */
(PID.TID 0000.0001)                 2.858540093877838E+05,      /* J =  8 */
(PID.TID 0000.0001)                 3.089214498819035E+05,      /* J =  9 */
(PID.TID 0000.0001)                 3.304838561248741E+05,      /* J = 10 */
(PID.TID 0000.0001)                 3.504361782409254E+05,      /* J = 11 */
(PID.TID 0000.0001)                 3.686812105223083E+05,      /* J = 12 */
(PID.TID 0000.0001)                 3.851300650057322E+05,      /* J = 13 */
(PID.TID 0000.0001)                 3.997026045255871E+05,      /* J = 14 */
(PID.TID 0000.0001)                 4.123278331341585E+05,      /* J = 15 */
(PID.TID 0000.0001)                 4.229442419867491E+05,      /* J = 16 */
(PID.TID 0000.0001)                 4.315001090065869E+05,      /* J = 17 */
(PID.TID 0000.0001)                 4.379537508695839E+05,      /* J = 18 */
(PID.TID 0000.0001)                 4.422737260813013E+05,      /* J = 19 */
(PID.TID 0000.0001)     2 @  4.444389881567501E+05,             /* J = 20: 21 */
(PID.TID 0000.0001)                 4.422737260813013E+05,      /* J = 22 */
(PID.TID 0000.0001)                 4.379537508695839E+05,      /* J = 23 */
(PID.TID 0000.0001)                 4.315001090065869E+05,      /* J = 24 */
(PID.TID 0000.0001)                 4.229442419867491E+05,      /* J = 25 */
(PID.TID 0000.0001)                 4.123278331341585E+05,      /* J = 26 */
(PID.TID 0000.0001)                 3.997026045255871E+05,      /* J = 27 */
(PID.TID 0000.0001)                 3.851300650057322E+05,      /* J = 28 */
(PID.TID 0000.0001)                 3.686812105223083E+05,      /* J = 29 */
(PID.TID 0000.0001)                 3.504361782409254E+05,      /* J = 30 */
(PID.TID 0000.0001)                 3.304838561248741E+05,      /* J = 31 */
(PID.TID 0000.0001)                 3.089214498819035E+05,      /* J = 32 */
(PID.TID 0000.0001)                 2.858540093877838E+05,      /* J = 33 */
(PID.TID 0000.0001)                 2.613939168938713E+05,      /* J = 34 */
(PID.TID 0000.0001)                 2.356603395120766E+05,      /* J = 35 */
(PID.TID 0000.0001)                 2.087786486446736E+05,      /* J = 36 */
(PID.TID 0000.0001)                 1.808798091874300E+05,      /* J = 37 */
(PID.TID 0000.0001)                 1.520997414818001E+05,      /* J = 38 */
(PID.TID 0000.0001)                 1.225786591246834E+05,      /* J = 39 */
(PID.TID 0000.0001)                 9.246038586187513E+04       /* J = 40 */
(PID.TID 0000.0001)     ;
(PID.TID 0000.0001) dyC =  /* dyC(:,1,:,1) ( m - cartesian, degrees - spherical ) */
(PID.TID 0000.0001)    90 @  4.447098934081552E+05              /* I =  1: 90 */
(PID.TID 0000.0001)     ;
(PID.TID 0000.0001) dyC =  /* dyC(1,:,1,:) ( m - cartesian, degrees - spherical ) */
(PID.TID 0000.0001)    40 @  4.447098934081552E+05              /* J =  1: 40 */
(PID.TID 0000.0001)     ;
(PID.TID 0000.0001) dxV =  /* dxV(:,1,:,1) ( m - cartesian, degrees - spherical ) */
(PID.TID 0000.0001)    90 @  7.722306258078101E+04              /* I =  1: 90 */
(PID.TID 0000.0001)     ;
(PID.TID 0000.0001) dxV =  /* dxV(1,:,1,:) ( m - cartesian, degrees - spherical ) */
(PID.TID 0000.0001)                 7.722306258078101E+04,      /* J =  1 */
(PID.TID 0000.0001)                 1.075850604052271E+05,      /* J =  2 */
(PID.TID 0000.0001)                 1.374229146297914E+05,      /* J =  3 */
(PID.TID 0000.0001)                 1.665912582279823E+05,      /* J =  4 */
(PID.TID 0000.0001)                 1.949479859617814E+05,      /* J =  5 */
(PID.TID 0000.0001)                 2.223549467040776E+05,      /* J =  6 */
(PID.TID 0000.0001)                 2.486786164970726E+05,      /* J =  7 */
(PID.TID 0000.0001)                 2.737907490675810E+05,      /* J =  8 */
(PID.TID 0000.0001)                 2.975690006299820E+05,      /* J =  9 */
(PID.TID 0000.0001)                 3.198975259328452E+05,      /* J = 10 */
(PID.TID 0000.0001)                 3.406675426453503E+05,      /* J = 11 */
(PID.TID 0000.0001)                 3.597778613338689E+05,      /* J = 12 */
(PID.TID 0000.0001)                 3.771353784467131E+05,      /* J = 13 */
(PID.TID 0000.0001)                 3.926555299052806E+05,      /* J = 14 */
(PID.TID 0000.0001)                 4.062627030917454E+05,      /* J = 15 */
(PID.TID 0000.0001)                 4.178906052261313E+05,      /* J = 16 */
(PID.TID 0000.0001)                 4.274825863380723E+05,      /* J = 17 */
(PID.TID 0000.0001)                 4.349919152597734E+05,      /* J = 18 */
(PID.TID 0000.0001)                 4.403820072955634E+05,      /* J = 19 */
(PID.TID 0000.0001)                 4.436266024588540E+05,      /* J = 20 */
(PID.TID 0000.0001)                 4.447098934081552E+05,      /* J = 21 */
(PID.TID 0000.0001)                 4.436266024588540E+05,      /* J = 22 */
(PID.TID 0000.0001)                 4.403820072955634E+05,      /* J = 23 */
(PID.TID 0000.0001)                 4.349919152597734E+05,      /* J = 24 */
(PID.TID 0000.0001)                 4.274825863380723E+05,      /* J = 25 */
(PID.TID 0000.0001)                 4.178906052261313E+05,      /* J = 26 */
(PID.TID 0000.0001)                 4.062627030917454E+05,      /* J = 27 */
(PID.TID 0000.0001)                 3.926555299052806E+05,      /* J = 28 */
(PID.TID 0000.0001)                 3.771353784467131E+05,      /* J = 29 */
(PID.TID 0000.0001)                 3.597778613338689E+05,      /* J = 30 */
(PID.TID 0000.0001)                 3.406675426453503E+05,      /* J = 31 */
(PID.TID 0000.0001)                 3.198975259328452E+05,      /* J = 32 */
(PID.TID 0000.0001)                 2.975690006299820E+05,      /* J = 33 */
(PID.TID 0000.0001)                 2.737907490675810E+05,      /* J = 34 */
(PID.TID 0000.0001)                 2.486786164970726E+05,      /* J = 35 */
(PID.TID 0000.0001)                 2.223549467040776E+05,      /* J = 36 */
(PID.TID 0000.0001)                 1.949479859617814E+05,      /* J = 37 */
(PID.TID 0000.0001)                 1.665912582279823E+05,      /* J = 38 */
(PID.TID 0000.0001)                 1.374229146297914E+05,      /* J = 39 */
(PID.TID 0000.0001)                 1.075850604052271E+05       /* J = 40 */
(PID.TID 0000.0001)     ;
(PID.TID 0000.0001) dyU =  /* dyU(:,1,:,1) ( m - cartesian, degrees - spherical ) */
(PID.TID 0000.0001)    90 @  4.447098934081552E+05              /* I =  1: 90 */
(PID.TID 0000.0001)     ;
(PID.TID 0000.0001) dyU =  /* dyU(1,:,1,:) ( m - cartesian, degrees - spherical ) */
(PID.TID 0000.0001)    40 @  4.447098934081552E+05              /* J =  1: 40 */
(PID.TID 0000.0001)     ;
(PID.TID 0000.0001) rA =  /* rA(:,1,:,1) ( m - cartesian, degrees - spherical ) */
(PID.TID 0000.0001)    90 @  4.110969866729052E+10              /* I =  1: 90 */
(PID.TID 0000.0001)     ;
(PID.TID 0000.0001) rA =  /* rA(1,:,1,:) ( m - cartesian, degrees - spherical ) */
(PID.TID 0000.0001)                 4.110969866729052E+10,      /* J =  1 */
(PID.TID 0000.0001)                 5.450087291636662E+10,      /* J =  2 */
(PID.TID 0000.0001)                 6.762652439100241E+10,      /* J =  3 */
(PID.TID 0000.0001)                 8.042270623660014E+10,      /* J =  4 */
(PID.TID 0000.0001)                 9.282707674147511E+10,      /* J =  5 */
(PID.TID 0000.0001)                 1.047792030594104E+11,      /* J =  6 */
(PID.TID 0000.0001)                 1.162208556324094E+11,      /* J =  7 */
(PID.TID 0000.0001)                 1.270962918792466E+11,      /* J =  8 */
(PID.TID 0000.0001)                 1.373525277677230E+11,      /* J =  9 */
(PID.TID 0000.0001)                 1.469395959475424E+11,      /* J = 10 */
(PID.TID 0000.0001)                 1.558107891862222E+11,      /* J = 11 */
(PID.TID 0000.0001)                 1.639228879220324E+11,      /* J = 12 */
(PID.TID 0000.0001)                 1.712363708253575E+11,      /* J = 13 */
(PID.TID 0000.0001)                 1.777156073426414E+11,      /* J = 14 */
(PID.TID 0000.0001)                 1.833290312848624E+11,      /* J = 15 */
(PID.TID 0000.0001)                 1.880492946148330E+11,      /* J = 16 */
(PID.TID 0000.0001)                 1.918534006840893E+11,      /* J = 17 */
(PID.TID 0000.0001)                 1.947228162702492E+11,      /* J = 18 */
(PID.TID 0000.0001)                 1.966435618690094E+11,      /* J = 19 */
(PID.TID 0000.0001)     2 @  1.976062798008856E+11,             /* J = 20: 21 */
(PID.TID 0000.0001)                 1.966435618690094E+11,      /* J = 22 */
(PID.TID 0000.0001)                 1.947228162702492E+11,      /* J = 23 */
(PID.TID 0000.0001)                 1.918534006840893E+11,      /* J = 24 */
(PID.TID 0000.0001)                 1.880492946148330E+11,      /* J = 25 */
(PID.TID 0000.0001)                 1.833290312848624E+11,      /* J = 26 */
(PID.TID 0000.0001)                 1.777156073426414E+11,      /* J = 27 */
(PID.TID 0000.0001)                 1.712363708253575E+11,      /* J = 28 */
(PID.TID 0000.0001)                 1.639228879220324E+11,      /* J = 29 */
(PID.TID 0000.0001)                 1.558107891862222E+11,      /* J = 30 */
(PID.TID 0000.0001)                 1.469395959475424E+11,      /* J = 31 */
(PID.TID 0000.0001)                 1.373525277677230E+11,      /* J = 32 */
(PID.TID 0000.0001)                 1.270962918792466E+11,      /* J = 33 */
(PID.TID 0000.0001)                 1.162208556324094E+11,      /* J = 34 */
(PID.TID 0000.0001)                 1.047792030594104E+11,      /* J = 35 */
(PID.TID 0000.0001)                 9.282707674147511E+10,      /* J = 36 */
(PID.TID 0000.0001)                 8.042270623660014E+10,      /* J = 37 */
(PID.TID 0000.0001)                 6.762652439100241E+10,      /* J = 38 */
(PID.TID 0000.0001)                 5.450087291636662E+10,      /* J = 39 */
(PID.TID 0000.0001)                 4.110969866729052E+10       /* J = 40 */
(PID.TID 0000.0001)     ;
(PID.TID 0000.0001) rAw =  /* rAw(:,1,:,1) ( m - cartesian, degrees - spherical ) */
(PID.TID 0000.0001)    90 @  4.110969866729052E+10              /* I =  1: 90 */
(PID.TID 0000.0001)     ;
(PID.TID 0000.0001) rAw =  /* rAw(1,:,1,:) ( m - cartesian, degrees - spherical ) */
(PID.TID 0000.0001)                 4.110969866729052E+10,      /* J =  1 */
(PID.TID 0000.0001)                 5.450087291636662E+10,      /* J =  2 */
(PID.TID 0000.0001)                 6.762652439100241E+10,      /* J =  3 */
(PID.TID 0000.0001)                 8.042270623660014E+10,      /* J =  4 */
(PID.TID 0000.0001)                 9.282707674147511E+10,      /* J =  5 */
(PID.TID 0000.0001)                 1.047792030594104E+11,      /* J =  6 */
(PID.TID 0000.0001)                 1.162208556324094E+11,      /* J =  7 */
(PID.TID 0000.0001)                 1.270962918792466E+11,      /* J =  8 */
(PID.TID 0000.0001)                 1.373525277677230E+11,      /* J =  9 */
(PID.TID 0000.0001)                 1.469395959475424E+11,      /* J = 10 */
(PID.TID 0000.0001)                 1.558107891862222E+11,      /* J = 11 */
(PID.TID 0000.0001)                 1.639228879220324E+11,      /* J = 12 */
(PID.TID 0000.0001)                 1.712363708253575E+11,      /* J = 13 */
(PID.TID 0000.0001)                 1.777156073426414E+11,      /* J = 14 */
(PID.TID 0000.0001)                 1.833290312848624E+11,      /* J = 15 */
(PID.TID 0000.0001)                 1.880492946148330E+11,      /* J = 16 */
(PID.TID 0000.0001)                 1.918534006840893E+11,      /* J = 17 */
(PID.TID 0000.0001)                 1.947228162702492E+11,      /* J = 18 */
(PID.TID 0000.0001)                 1.966435618690094E+11,      /* J = 19 */
(PID.TID 0000.0001)     2 @  1.976062798008856E+11,             /* J = 20: 21 */
(PID.TID 0000.0001)                 1.966435618690094E+11,      /* J = 22 */
(PID.TID 0000.0001)                 1.947228162702492E+11,      /* J = 23 */
(PID.TID 0000.0001)                 1.918534006840893E+11,      /* J = 24 */
(PID.TID 0000.0001)                 1.880492946148330E+11,      /* J = 25 */
(PID.TID 0000.0001)                 1.833290312848624E+11,      /* J = 26 */
(PID.TID 0000.0001)                 1.777156073426414E+11,      /* J = 27 */
(PID.TID 0000.0001)                 1.712363708253575E+11,      /* J = 28 */
(PID.TID 0000.0001)                 1.639228879220324E+11,      /* J = 29 */
(PID.TID 0000.0001)                 1.558107891862222E+11,      /* J = 30 */
(PID.TID 0000.0001)                 1.469395959475424E+11,      /* J = 31 */
(PID.TID 0000.0001)                 1.373525277677230E+11,      /* J = 32 */
(PID.TID 0000.0001)                 1.270962918792466E+11,      /* J = 33 */
(PID.TID 0000.0001)                 1.162208556324094E+11,      /* J = 34 */
(PID.TID 0000.0001)                 1.047792030594104E+11,      /* J = 35 */
(PID.TID 0000.0001)                 9.282707674147511E+10,      /* J = 36 */
(PID.TID 0000.0001)                 8.042270623660014E+10,      /* J = 37 */
(PID.TID 0000.0001)                 6.762652439100241E+10,      /* J = 38 */
(PID.TID 0000.0001)                 5.450087291636662E+10,      /* J = 39 */
(PID.TID 0000.0001)                 4.110969866729052E+10       /* J = 40 */
(PID.TID 0000.0001)     ;
(PID.TID 0000.0001) rAs =  /* rAs(:,1,:,1) ( m - cartesian, degrees - spherical ) */
(PID.TID 0000.0001)    90 @  3.433488626798226E+10              /* I =  1: 90 */
(PID.TID 0000.0001)     ;
(PID.TID 0000.0001) rAs =  /* rAs(1,:,1,:) ( m - cartesian, degrees - spherical ) */
(PID.TID 0000.0001)                 3.433488626798226E+10,      /* J =  1 */
(PID.TID 0000.0001)                 4.783442523123644E+10,      /* J =  2 */
(PID.TID 0000.0001)                 6.110091968306396E+10,      /* J =  3 */
(PID.TID 0000.0001)                 7.406973659603816E+10,      /* J =  4 */
(PID.TID 0000.0001)                 8.667769319778082E+10,      /* J =  5 */
(PID.TID 0000.0001)                 9.886336479107460E+10,      /* J =  6 */
(PID.TID 0000.0001)                 1.105673840088176E+11,      /* J =  7 */
(PID.TID 0000.0001)                 1.217327300458637E+11,      /* J =  8 */
(PID.TID 0000.0001)                 1.323050064586577E+11,      /* J =  9 */
(PID.TID 0000.0001)                 1.422327061792379E+11,      /* J = 10 */
(PID.TID 0000.0001)                 1.514674624524945E+11,      /* J = 11 */
(PID.TID 0000.0001)                 1.599642844741386E+11,      /* J = 12 */
(PID.TID 0000.0001)                 1.676817765813786E+11,      /* J = 13 */
(PID.TID 0000.0001)                 1.745823399284268E+11,      /* J = 14 */
(PID.TID 0000.0001)                 1.806323556642997E+11,      /* J = 15 */
(PID.TID 0000.0001)                 1.858023487204767E+11,      /* J = 16 */
(PID.TID 0000.0001)                 1.900671314104744E+11,      /* J = 17 */
(PID.TID 0000.0001)                 1.934059261417216E+11,      /* J = 18 */
(PID.TID 0000.0001)                 1.958024666419019E+11,      /* J = 19 */
(PID.TID 0000.0001)                 1.972450772065981E+11,      /* J = 20 */
(PID.TID 0000.0001)                 1.977267295821496E+11,      /* J = 21 */
(PID.TID 0000.0001)                 1.972450772065981E+11,      /* J = 22 */
(PID.TID 0000.0001)                 1.958024666419019E+11,      /* J = 23 */
(PID.TID 0000.0001)                 1.934059261417216E+11,      /* J = 24 */
(PID.TID 0000.0001)                 1.900671314104744E+11,      /* J = 25 */
(PID.TID 0000.0001)                 1.858023487204767E+11,      /* J = 26 */
(PID.TID 0000.0001)                 1.806323556642997E+11,      /* J = 27 */
(PID.TID 0000.0001)                 1.745823399284268E+11,      /* J = 28 */
(PID.TID 0000.0001)                 1.676817765813786E+11,      /* J = 29 */
(PID.TID 0000.0001)                 1.599642844741386E+11,      /* J = 30 */
(PID.TID 0000.0001)                 1.514674624524945E+11,      /* J = 31 */
(PID.TID 0000.0001)                 1.422327061792379E+11,      /* J = 32 */
(PID.TID 0000.0001)                 1.323050064586577E+11,      /* J = 33 */
(PID.TID 0000.0001)                 1.217327300458637E+11,      /* J = 34 */
(PID.TID 0000.0001)                 1.105673840088176E+11,      /* J = 35 */
(PID.TID 0000.0001)                 9.886336479107460E+10,      /* J = 36 */
(PID.TID 0000.0001)                 8.667769319778082E+10,      /* J = 37 */
(PID.TID 0000.0001)                 7.406973659603816E+10,      /* J = 38 */
(PID.TID 0000.0001)                 6.110091968306396E+10,      /* J = 39 */
(PID.TID 0000.0001)                 4.783442523123644E+10       /* J = 40 */
(PID.TID 0000.0001)     ;
(PID.TID 0000.0001) 
(PID.TID 0000.0001)  MDSREADFIELD: opening global file: trenberth_taux.bin
(PID.TID 0000.0001)  MDSREADFIELD: opening global file: trenberth_tauy.bin
(PID.TID 0000.0001)  MDSREADFIELD: opening global file: shi_qnet.bin
(PID.TID 0000.0001)  MDSREADFIELD: opening global file: shi_empmr.bin
(PID.TID 0000.0001)  MDSREADFIELD: opening global file: lev_sst.bin
(PID.TID 0000.0001)  MDSREADFIELD: opening global file: deltageopotjmd95.bin
(PID.TID 0000.0001)  MDSREADFIELD: opening global file: lev_t.bin
(PID.TID 0000.0001) // =======================================================
(PID.TID 0000.0001) // Field Initial Temperature at iteration          1
(PID.TID 0000.0001) // CMIN =          3.600000000000000E+00
(PID.TID 0000.0001) // CMAX =          3.600000000000000E+00
(PID.TID 0000.0001) // CINT =          0.000000000000000E+00
(PID.TID 0000.0001) // SYMBOLS (CMIN->CMAX): -abcdefghijklmnopqrstuvwxyz+
(PID.TID 0000.0001) //                  0.0: .
(PID.TID 0000.0001) // RANGE I (Lo:Hi:Step):(   1:  90:   1)
(PID.TID 0000.0001) // RANGE J (Lo:Hi:Step):(  40:   1:  -1)
(PID.TID 0000.0001) // RANGE K (Lo:Hi:Step):(   1:   1:   1)
(PID.TID 0000.0001) // =======================================================
(PID.TID 0000.0001) K =   1
(PID.TID 0000.0001)                I=10      I=20      I=30      I=40      I=50      I=60      I=70      I=80      I=90
(PID.TID 0000.0001) |--J--|123456789|123456789|123456789|123456789|123456789|123456789|123456789|123456789|123456789|
(PID.TID 0000.0001)     40 ..........................................................................................
(PID.TID 0000.0001)     39 ..........................................................................................
(PID.TID 0000.0001)     38 ..........................................................................................
(PID.TID 0000.0001)     37 ..........................................................................................
(PID.TID 0000.0001)     36 ..........................................................................................
(PID.TID 0000.0001)     35 ..........................................................................................
(PID.TID 0000.0001)     34 ..........................................................................................
(PID.TID 0000.0001)     33 .......................................---.---------......................................
(PID.TID 0000.0001)     32 ......................................----.----------.....................................
(PID.TID 0000.0001)     31 ....................................------.----------......................--.............
(PID.TID 0000.0001)     30 ....................................----.--.-------------................----.............
(PID.TID 0000.0001)     29 ...................................----.---...-----------...............--.---.....--.....
(PID.TID 0000.0001)     28 ...................................-------------------..................------.....--.....
(PID.TID 0000.0001)     27 .....................................--------.-...---...................------..-----.....
(PID.TID 0000.0001)     26 ...............................---..-----------....------...............------..----......
(PID.TID 0000.0001)     25 ...............................---..---..--.....---------.................---...--........
(PID.TID 0000.0001)     24 ...............................--...-------------------.........................----......
(PID.TID 0000.0001)     23 ....................................----...-----.------.........................----......
(PID.TID 0000.0001)     22 ...........................................------..-.--...................................
(PID.TID 0000.0001)     21 ...........................................------.......................................--
(PID.TID 0000.0001)     20 ............................................-------...............................---...--
(PID.TID 0000.0001)     19 --................---.......................----.----.............................---.....
(PID.TID 0000.0001)     18 --................---....--.-.....................---.............................---....-
(PID.TID 0000.0001)     17 --................---.-------.....................--..............................---....-
(PID.TID 0000.0001)     16 --.................--.------...................---................................---....-
(PID.TID 0000.0001)     15 -......................-----..................----................................---....-
(PID.TID 0000.0001)     14 -...........---........--.-...................------..............................---....-
(PID.TID 0000.0001)     13 .--.........---...........--..................--------....................................
(PID.TID 0000.0001)     12 ---.......................--..---.............---------...................................
(PID.TID 0000.0001)     11 ---.--........--...........--------...........-.---------....................-----........
(PID.TID 0000.0001)     10 --..-.--......--..............-----.............---------...................------........
(PID.TID 0000.0001)      9 .....---......................................-----------...................------........
(PID.TID 0000.0001)      8 .....--......................................------............................--.........
(PID.TID 0000.0001)      7 .......--...--.............................------.................---.....................
(PID.TID 0000.0001)      6 ---------------............................----.............---.-.---....................-
(PID.TID 0000.0001)      5 ---------------...........................................--------.-.................-----
(PID.TID 0000.0001)      4 ..------..................................................-------....................-----
(PID.TID 0000.0001)      3 ..........................................................................................
(PID.TID 0000.0001)      2 ..........................................................................................
(PID.TID 0000.0001)      1 ..........................................................................................
(PID.TID 0000.0001) // =======================================================
(PID.TID 0000.0001) // END OF FIELD                                          =
(PID.TID 0000.0001) // =======================================================
(PID.TID 0000.0001) 
(PID.TID 0000.0001)  MDSREADFIELD: opening global file: lev_s.bin
(PID.TID 0000.0001) // =======================================================
(PID.TID 0000.0001) // Field Initial Salinity at iteration          1
(PID.TID 0000.0001) // CMIN =          3.470000000000000E+01
(PID.TID 0000.0001) // CMAX =          3.470000000000000E+01
(PID.TID 0000.0001) // CINT =          0.000000000000000E+00
(PID.TID 0000.0001) // SYMBOLS (CMIN->CMAX): -abcdefghijklmnopqrstuvwxyz+
(PID.TID 0000.0001) //                  0.0: .
(PID.TID 0000.0001) // RANGE I (Lo:Hi:Step):(   1:  90:   1)
(PID.TID 0000.0001) // RANGE J (Lo:Hi:Step):(  40:   1:  -1)
(PID.TID 0000.0001) // RANGE K (Lo:Hi:Step):(   1:   1:   1)
(PID.TID 0000.0001) // =======================================================
(PID.TID 0000.0001) K =   1
(PID.TID 0000.0001)                I=10      I=20      I=30      I=40      I=50      I=60      I=70      I=80      I=90
(PID.TID 0000.0001) |--J--|123456789|123456789|123456789|123456789|123456789|123456789|123456789|123456789|123456789|
(PID.TID 0000.0001)     40 ..........................................................................................
(PID.TID 0000.0001)     39 ..........................................................................................
(PID.TID 0000.0001)     38 ..........................................................................................
(PID.TID 0000.0001)     37 ..........................................................................................
(PID.TID 0000.0001)     36 ..........................................................................................
(PID.TID 0000.0001)     35 ..........................................................................................
(PID.TID 0000.0001)     34 ..........................................................................................
(PID.TID 0000.0001)     33 .......................................---.---------......................................
(PID.TID 0000.0001)     32 ......................................----.----------.....................................
(PID.TID 0000.0001)     31 ....................................------.----------......................--.............
(PID.TID 0000.0001)     30 ....................................----.--.-------------................----.............
(PID.TID 0000.0001)     29 ...................................----.---...-----------...............--.---.....--.....
(PID.TID 0000.0001)     28 ...................................-------------------..................------.....--.....
(PID.TID 0000.0001)     27 .....................................--------.-...---...................------..-----.....
(PID.TID 0000.0001)     26 ...............................---..-----------....------...............------..----......
(PID.TID 0000.0001)     25 ...............................---..---..--.....---------.................---...--........
(PID.TID 0000.0001)     24 ...............................--...-------------------.........................----......
(PID.TID 0000.0001)     23 ....................................----...-----.------.........................----......
(PID.TID 0000.0001)     22 ...........................................------..-.--...................................
(PID.TID 0000.0001)     21 ...........................................------.......................................--
(PID.TID 0000.0001)     20 ............................................-------...............................---...--
(PID.TID 0000.0001)     19 --................---.......................----.----.............................---.....
(PID.TID 0000.0001)     18 --................---....--.-.....................---.............................---....-
(PID.TID 0000.0001)     17 --................---.-------.....................--..............................---....-
(PID.TID 0000.0001)     16 --.................--.------...................---................................---....-
(PID.TID 0000.0001)     15 -......................-----..................----................................---....-
(PID.TID 0000.0001)     14 -...........---........--.-...................------..............................---....-
(PID.TID 0000.0001)     13 .--.........---...........--..................--------....................................
(PID.TID 0000.0001)     12 ---.......................--..---.............---------...................................
(PID.TID 0000.0001)     11 ---.--........--...........--------...........-.---------....................-----........
(PID.TID 0000.0001)     10 --..-.--......--..............-----.............---------...................------........
(PID.TID 0000.0001)      9 .....---......................................-----------...................------........
(PID.TID 0000.0001)      8 .....--......................................------............................--.........
(PID.TID 0000.0001)      7 .......--...--.............................------.................---.....................
(PID.TID 0000.0001)      6 ---------------............................----.............---.-.---....................-
(PID.TID 0000.0001)      5 ---------------...........................................--------.-.................-----
(PID.TID 0000.0001)      4 ..------..................................................-------....................-----
(PID.TID 0000.0001)      3 ..........................................................................................
(PID.TID 0000.0001)      2 ..........................................................................................
(PID.TID 0000.0001)      1 ..........................................................................................
(PID.TID 0000.0001) // =======================================================
(PID.TID 0000.0001) // END OF FIELD                                          =
(PID.TID 0000.0001) // =======================================================
(PID.TID 0000.0001) 
(PID.TID 0000.0001) Start initial hydrostatic pressure computation
(PID.TID 0000.0001) Pressure is predetermined for buoyancyRelation OCEANICP
(PID.TID 0000.0001) 
(PID.TID 0000.0001) // =======================================================
(PID.TID 0000.0001) // Model current state
(PID.TID 0000.0001) // =======================================================
(PID.TID 0000.0001) 
(PID.TID 0000.0001) // =======================================================
(PID.TID 0000.0001) // Begin MONITOR dynamic field statistics
(PID.TID 0000.0001) // =======================================================
(PID.TID 0000.0001) %MON time_tsnumber                =                     0
(PID.TID 0000.0001) %MON time_secondsf                =   0.0000000000000E+00
(PID.TID 0000.0001) %MON dynstat_eta_max              =   0.0000000000000E+00
(PID.TID 0000.0001) %MON dynstat_eta_min              =   0.0000000000000E+00
(PID.TID 0000.0001) %MON dynstat_eta_mean             =   0.0000000000000E+00
(PID.TID 0000.0001) %MON dynstat_eta_sd               =   0.0000000000000E+00
(PID.TID 0000.0001) %MON dynstat_eta_del2             =   0.0000000000000E+00
(PID.TID 0000.0001) %MON dynstat_uvel_max             =   0.0000000000000E+00
(PID.TID 0000.0001) %MON dynstat_uvel_min             =   0.0000000000000E+00
(PID.TID 0000.0001) %MON dynstat_uvel_mean            =   0.0000000000000E+00
(PID.TID 0000.0001) %MON dynstat_uvel_sd              =   0.0000000000000E+00
(PID.TID 0000.0001) %MON dynstat_uvel_del2            =   0.0000000000000E+00
(PID.TID 0000.0001) %MON dynstat_vvel_max             =   0.0000000000000E+00
(PID.TID 0000.0001) %MON dynstat_vvel_min             =   0.0000000000000E+00
(PID.TID 0000.0001) %MON dynstat_vvel_mean            =   0.0000000000000E+00
(PID.TID 0000.0001) %MON dynstat_vvel_sd              =   0.0000000000000E+00
(PID.TID 0000.0001) %MON dynstat_vvel_del2            =   0.0000000000000E+00
(PID.TID 0000.0001) %MON dynstat_wvel_max             =   0.0000000000000E+00
(PID.TID 0000.0001) %MON dynstat_wvel_min             =   0.0000000000000E+00
(PID.TID 0000.0001) %MON dynstat_wvel_mean            =   0.0000000000000E+00
(PID.TID 0000.0001) %MON dynstat_wvel_sd              =   0.0000000000000E+00
(PID.TID 0000.0001) %MON dynstat_wvel_del2            =   0.0000000000000E+00
(PID.TID 0000.0001) %MON dynstat_theta_max            =   3.6000000000000E+00
(PID.TID 0000.0001) %MON dynstat_theta_min            =   3.6000000000000E+00
(PID.TID 0000.0001) %MON dynstat_theta_mean           =   3.5999999999999E+00
(PID.TID 0000.0001) %MON dynstat_theta_sd             =   6.5281113847956E-14
(PID.TID 0000.0001) %MON dynstat_theta_del2           =   0.0000000000000E+00
(PID.TID 0000.0001) %MON dynstat_salt_max             =   3.4700000000000E+01
(PID.TID 0000.0001) %MON dynstat_salt_min             =   3.4700000000000E+01
(PID.TID 0000.0001) %MON dynstat_salt_mean            =   3.4699999999994E+01
(PID.TID 0000.0001) %MON dynstat_salt_sd              =   5.9898752624575E-12
(PID.TID 0000.0001) %MON dynstat_salt_del2            =   0.0000000000000E+00
(PID.TID 0000.0001) %MON advcfl_uvel_max              =   0.0000000000000E+00
(PID.TID 0000.0001) %MON advcfl_vvel_max              =   0.0000000000000E+00
(PID.TID 0000.0001) %MON advcfl_wvel_max              =   0.0000000000000E+00
(PID.TID 0000.0001) %MON advcfl_W_hf_max              =   0.0000000000000E+00
(PID.TID 0000.0001) %MON ke_max                       =   0.0000000000000E+00
(PID.TID 0000.0001) %MON ke_mean                      =   0.0000000000000E+00
(PID.TID 0000.0001) %MON ke_volint                    =   0.0000000000000E+00
(PID.TID 0000.0001) %MON ke_volmean                   =   0.0000000000000E+00
(PID.TID 0000.0001) %MON ke_vol                       =   1.3442141716554E+22
(PID.TID 0000.0001) %MON surf_Corr_theta_mean         =   0.0000000000000E+00
(PID.TID 0000.0001) %MON surf_Corr_salt_mean          =   0.0000000000000E+00
(PID.TID 0000.0001) // =======================================================
(PID.TID 0000.0001) // End MONITOR dynamic field statistics
(PID.TID 0000.0001) // =======================================================
 S/R EXTERNAL_FIELDS_LOAD: Reading new data  0. 0
(PID.TID 0000.0001)  MDSREADFIELD: opening global file: trenberth_taux.bin
(PID.TID 0000.0001)  MDSREADFIELD: opening global file: trenberth_taux.bin
(PID.TID 0000.0001)  MDSREADFIELD: opening global file: trenberth_tauy.bin
(PID.TID 0000.0001)  MDSREADFIELD: opening global file: trenberth_tauy.bin
(PID.TID 0000.0001)  MDSREADFIELD: opening global file: shi_qnet.bin
(PID.TID 0000.0001)  MDSREADFIELD: opening global file: shi_qnet.bin
(PID.TID 0000.0001)  MDSREADFIELD: opening global file: shi_empmr.bin
(PID.TID 0000.0001)  MDSREADFIELD: opening global file: shi_empmr.bin
(PID.TID 0000.0001)  MDSREADFIELD: opening global file: lev_sst.bin
(PID.TID 0000.0001)  MDSREADFIELD: opening global file: lev_sst.bin
(PID.TID 0000.0001)  MDSREADFIELD: opening global file: deltageopotjmd95.bin
(PID.TID 0000.0001)  MDSREADFIELD: opening global file: deltageopotjmd95.bin
time,SST,SSS,fu,fv,Q,E-P,i0,i1,a,b =   0.0000E+00  1.1337E-01  0.0000E+00 -4.0176E-02 -6.3320E-02  1.7257E+02 -2.0964E-09    12     1  5.3333E-01  4.6667E-01
time,fu0,fu1,fu =   0.0000E+00 -4.5368E-02 -3.5633E-02 -4.0176E-02  5.3333E-01  4.6667E-01
(PID.TID 0000.0001) %GM: Global mean of phiHydLow =  0.13424542630127454E-03
 cg2d: Sum(rhs),rhsMax =  -6.53557069574262E-16  5.13958605143830E-03
(PID.TID 0000.0001)                    cg2d_init_res =    5.81236693792211E+00
(PID.TID 0000.0001)                       cg2d_iters =   155
(PID.TID 0000.0001)                         cg2d_res =    9.97896534254426E-10
(PID.TID 0000.0001) // =======================================================
(PID.TID 0000.0001) // Begin MONITOR dynamic field statistics
(PID.TID 0000.0001) // =======================================================
(PID.TID 0000.0001) %MON time_tsnumber                =                     1
(PID.TID 0000.0001) %MON time_secondsf                =   1.7280000000000E+05
(PID.TID 0000.0001) %MON dynstat_eta_max              =   3.5251253273162E+02
(PID.TID 0000.0001) %MON dynstat_eta_min              =  -3.7265941514670E+02
(PID.TID 0000.0001) %MON dynstat_eta_mean             =  -7.3531418531154E-16
(PID.TID 0000.0001) %MON dynstat_eta_sd               =   2.8300956865425E+01
(PID.TID 0000.0001) %MON dynstat_eta_del2             =   2.5478292015710E+00
(PID.TID 0000.0001) %MON dynstat_uvel_max             =   6.3777957602071E-03
(PID.TID 0000.0001) %MON dynstat_uvel_min             =  -3.6923938501444E-03
(PID.TID 0000.0001) %MON dynstat_uvel_mean            =   4.3785275400550E-06
(PID.TID 0000.0001) %MON dynstat_uvel_sd              =   2.4796930208387E-04
(PID.TID 0000.0001) %MON dynstat_uvel_del2            =   1.6376104997016E-05
(PID.TID 0000.0001) %MON dynstat_vvel_max             =   4.8481079510246E-03
(PID.TID 0000.0001) %MON dynstat_vvel_min             =  -4.3733345717595E-03
(PID.TID 0000.0001) %MON dynstat_vvel_mean            =  -4.1965597326805E-07
(PID.TID 0000.0001) %MON dynstat_vvel_sd              =   1.2363994781716E-04
(PID.TID 0000.0001) %MON dynstat_vvel_del2            =   1.0153320464391E-05
(PID.TID 0000.0001) %MON dynstat_wvel_max             =   7.5847315822651E-03
(PID.TID 0000.0001) %MON dynstat_wvel_min             =  -8.8531064673718E-03
(PID.TID 0000.0001) %MON dynstat_wvel_mean            =  -1.3671442297632E-06
(PID.TID 0000.0001) %MON dynstat_wvel_sd              =   4.3504329828871E-04
(PID.TID 0000.0001) %MON dynstat_wvel_del2            =   1.6510431450606E-04
(PID.TID 0000.0001) %MON dynstat_theta_max            =   4.5166448038597E+00
(PID.TID 0000.0001) %MON dynstat_theta_min            =   3.2294140089274E+00
(PID.TID 0000.0001) %MON dynstat_theta_mean           =   3.6065347531252E+00
(PID.TID 0000.0001) %MON dynstat_theta_sd             =   6.7033922439238E-02
(PID.TID 0000.0001) %MON dynstat_theta_del2           =   8.2321389601320E-04
(PID.TID 0000.0001) %MON dynstat_salt_max             =   3.4706138060965E+01
(PID.TID 0000.0001) %MON dynstat_salt_min             =   3.4683915986758E+01
(PID.TID 0000.0001) %MON dynstat_salt_mean            =   3.4699999999997E+01
(PID.TID 0000.0001) %MON dynstat_salt_sd              =   3.1413796784191E-04
(PID.TID 0000.0001) %MON dynstat_salt_del2            =   1.8593448743256E-05
(PID.TID 0000.0001) %MON advcfl_uvel_max              =   3.9558517000684E-03
(PID.TID 0000.0001) %MON advcfl_vvel_max              =   1.8838192411613E-03
(PID.TID 0000.0001) %MON advcfl_wvel_max              =   2.4494326371137E-03
(PID.TID 0000.0001) %MON advcfl_W_hf_max              =   2.4494326371137E-03
(PID.TID 0000.0001) %MON ke_max                       =   2.9325943219540E-05
(PID.TID 0000.0001) %MON ke_mean                      =   2.3518612184242E-07
(PID.TID 0000.0001) %MON ke_volint                    =   4.6669341412595E+14
(PID.TID 0000.0001) %MON ke_volmean                   =   3.4718679803175E-08
(PID.TID 0000.0001) %MON ke_vol                       =   1.3442141716554E+22
(PID.TID 0000.0001) %MON surf_Corr_theta_mean         =   2.7979964710197E-09
(PID.TID 0000.0001) %MON surf_Corr_salt_mean          =   2.7576257108237E-11
(PID.TID 0000.0001) // =======================================================
(PID.TID 0000.0001) // End MONITOR dynamic field statistics
(PID.TID 0000.0001) // =======================================================
time,SST,SSS,fu,fv,Q,E-P,i0,i1,a,b =   1.7280E+05  2.3410E-01  0.0000E+00 -3.9527E-02 -6.2453E-02  1.6404E+02 -2.0964E-09    12     1  6.0000E-01  4.0000E-01
time,fu0,fu1,fu =   1.7280E+05 -4.5368E-02 -3.5633E-02 -3.9527E-02  6.0000E-01  4.0000E-01
(PID.TID 0000.0001) %GM: Global mean of phiHydLow =  0.25279523866467264E-01
 cg2d: Sum(rhs),rhsMax =   9.66349396336330E-16  7.32315460933714E-03
(PID.TID 0000.0001)                    cg2d_init_res =    1.77973565546574E+00
(PID.TID 0000.0001)                       cg2d_iters =   150
(PID.TID 0000.0001)                         cg2d_res =    8.55003804873309E-10
(PID.TID 0000.0001) // =======================================================
(PID.TID 0000.0001) // Begin MONITOR dynamic field statistics
(PID.TID 0000.0001) // =======================================================
(PID.TID 0000.0001) %MON time_tsnumber                =                     2
(PID.TID 0000.0001) %MON time_secondsf                =   3.4560000000000E+05
(PID.TID 0000.0001) %MON dynstat_eta_max              =   5.7869401479093E+02
(PID.TID 0000.0001) %MON dynstat_eta_min              =  -5.5117981882868E+02
(PID.TID 0000.0001) %MON dynstat_eta_mean             =  -4.3462360877442E-16
(PID.TID 0000.0001) %MON dynstat_eta_sd               =   5.1490957082087E+01
(PID.TID 0000.0001) %MON dynstat_eta_del2             =   3.5201644929567E+00
(PID.TID 0000.0001) %MON dynstat_uvel_max             =   1.3254610792436E-02
(PID.TID 0000.0001) %MON dynstat_uvel_min             =  -7.4499956013808E-03
(PID.TID 0000.0001) %MON dynstat_uvel_mean            =   8.0406306650960E-06
(PID.TID 0000.0001) %MON dynstat_uvel_sd              =   5.0765664692872E-04
(PID.TID 0000.0001) %MON dynstat_uvel_del2            =   3.3676172707821E-05
(PID.TID 0000.0001) %MON dynstat_vvel_max             =   8.5316010972040E-03
(PID.TID 0000.0001) %MON dynstat_vvel_min             =  -8.3621820130708E-03
(PID.TID 0000.0001) %MON dynstat_vvel_mean            =   8.1074734781307E-07
(PID.TID 0000.0001) %MON dynstat_vvel_sd              =   2.2548454974061E-04
(PID.TID 0000.0001) %MON dynstat_vvel_del2            =   1.9750850439505E-05
(PID.TID 0000.0001) %MON dynstat_wvel_max             =   1.6171868094240E-02
(PID.TID 0000.0001) %MON dynstat_wvel_min             =  -1.7388100922438E-02
(PID.TID 0000.0001) %MON dynstat_wvel_mean            =  -3.4935025359857E-06
(PID.TID 0000.0001) %MON dynstat_wvel_sd              =   8.7461988599248E-04
(PID.TID 0000.0001) %MON dynstat_wvel_del2            =   3.3894808307006E-04
(PID.TID 0000.0001) %MON dynstat_theta_max            =   5.3793837715195E+00
(PID.TID 0000.0001) %MON dynstat_theta_min            =   3.3209592195146E+00
(PID.TID 0000.0001) %MON dynstat_theta_mean           =   3.6127318320863E+00
(PID.TID 0000.0001) %MON dynstat_theta_sd             =   1.3017153304862E-01
(PID.TID 0000.0001) %MON dynstat_theta_del2           =   1.7034587519312E-03
(PID.TID 0000.0001) %MON dynstat_salt_max             =   3.4712250123751E+01
(PID.TID 0000.0001) %MON dynstat_salt_min             =   3.4667892774482E+01
(PID.TID 0000.0001) %MON dynstat_salt_mean            =   3.4700000000043E+01
(PID.TID 0000.0001) %MON dynstat_salt_sd              =   6.1673950963437E-04
(PID.TID 0000.0001) %MON dynstat_salt_del2            =   4.5213995151639E-05
(PID.TID 0000.0001) %MON advcfl_uvel_max              =   8.0696613954890E-03
(PID.TID 0000.0001) %MON advcfl_vvel_max              =   3.3151065255114E-03
(PID.TID 0000.0001) %MON advcfl_wvel_max              =   4.6611404706490E-03
(PID.TID 0000.0001) %MON advcfl_W_hf_max              =   4.6611404706490E-03
(PID.TID 0000.0001) %MON ke_max                       =   1.1923031989526E-04
(PID.TID 0000.0001) %MON ke_mean                      =   9.4367328928006E-07
(PID.TID 0000.0001) %MON ke_volint                    =   1.8762043572489E+15
(PID.TID 0000.0001) %MON ke_volmean                   =   1.3957629645716E-07
(PID.TID 0000.0001) %MON ke_vol                       =   1.3442141716554E+22
(PID.TID 0000.0001) %MON surf_Corr_theta_mean         =   5.3298799495177E-07
(PID.TID 0000.0001) %MON surf_Corr_salt_mean          =   9.7083282413263E-09
(PID.TID 0000.0001) // =======================================================
(PID.TID 0000.0001) // End MONITOR dynamic field statistics
(PID.TID 0000.0001) // =======================================================
time,SST,SSS,fu,fv,Q,E-P,i0,i1,a,b =   3.4560E+05  3.5483E-01  0.0000E+00 -3.8878E-02 -6.1587E-02  1.5550E+02 -2.0964E-09    12     1  6.6667E-01  3.3333E-01
time,fu0,fu1,fu =   3.4560E+05 -4.5368E-02 -3.5633E-02 -3.8878E-02  6.6667E-01  3.3333E-01
(PID.TID 0000.0001) %GM: Global mean of phiHydLow =  0.50897005007441064E-01
 cg2d: Sum(rhs),rhsMax =   4.75964753721136E-17  7.77227479505144E-03
(PID.TID 0000.0001)                    cg2d_init_res =    1.52006211959814E+00
(PID.TID 0000.0001)                       cg2d_iters =   150
(PID.TID 0000.0001)                         cg2d_res =    8.60922965781251E-10
(PID.TID 0000.0001) // =======================================================
(PID.TID 0000.0001) // Begin MONITOR dynamic field statistics
(PID.TID 0000.0001) // =======================================================
(PID.TID 0000.0001) %MON time_tsnumber                =                     3
(PID.TID 0000.0001) %MON time_secondsf                =   5.1840000000000E+05
(PID.TID 0000.0001) %MON dynstat_eta_max              =   6.2519702827226E+02
(PID.TID 0000.0001) %MON dynstat_eta_min              =  -6.1394143182711E+02
(PID.TID 0000.0001) %MON dynstat_eta_mean             =   1.6739732887338E-15
(PID.TID 0000.0001) %MON dynstat_eta_sd               =   6.6558544468440E+01
(PID.TID 0000.0001) %MON dynstat_eta_del2             =   3.8759758152356E+00
(PID.TID 0000.0001) %MON dynstat_uvel_max             =   2.0543276177301E-02
(PID.TID 0000.0001) %MON dynstat_uvel_min             =  -1.1203484578890E-02
(PID.TID 0000.0001) %MON dynstat_uvel_mean            =   1.1150820761809E-05
(PID.TID 0000.0001) %MON dynstat_uvel_sd              =   7.6784595665753E-04
(PID.TID 0000.0001) %MON dynstat_uvel_del2            =   5.1170845694658E-05
(PID.TID 0000.0001) %MON dynstat_vvel_max             =   1.2068928958107E-02
(PID.TID 0000.0001) %MON dynstat_vvel_min             =  -1.2171355464625E-02
(PID.TID 0000.0001) %MON dynstat_vvel_mean            =   2.2702733854429E-06
(PID.TID 0000.0001) %MON dynstat_vvel_sd              =   3.1740535063736E-04
(PID.TID 0000.0001) %MON dynstat_vvel_del2            =   2.9090033161365E-05
(PID.TID 0000.0001) %MON dynstat_wvel_max             =   2.4989405187299E-02
(PID.TID 0000.0001) %MON dynstat_wvel_min             =  -2.3451486053506E-02
(PID.TID 0000.0001) %MON dynstat_wvel_mean            =  -5.4813385632397E-06
(PID.TID 0000.0001) %MON dynstat_wvel_sd              =   1.3388420583496E-03
(PID.TID 0000.0001) %MON dynstat_wvel_del2            =   5.1831364932874E-04
(PID.TID 0000.0001) %MON dynstat_theta_max            =   6.2105198103220E+00
(PID.TID 0000.0001) %MON dynstat_theta_min            =   3.1796758450320E+00
(PID.TID 0000.0001) %MON dynstat_theta_mean           =   3.6187247654447E+00
(PID.TID 0000.0001) %MON dynstat_theta_sd             =   1.9131187995236E-01
(PID.TID 0000.0001) %MON dynstat_theta_del2           =   2.5488651268110E-03
(PID.TID 0000.0001) %MON dynstat_salt_max             =   3.4718335392357E+01
(PID.TID 0000.0001) %MON dynstat_salt_min             =   3.4651911125783E+01
(PID.TID 0000.0001) %MON dynstat_salt_mean            =   3.4700000000040E+01
(PID.TID 0000.0001) %MON dynstat_salt_sd              =   9.2263046604990E-04
(PID.TID 0000.0001) %MON dynstat_salt_del2            =   6.7943864174737E-05
(PID.TID 0000.0001) %MON advcfl_uvel_max              =   1.2418500377310E-02
(PID.TID 0000.0001) %MON advcfl_vvel_max              =   4.7293983234075E-03
(PID.TID 0000.0001) %MON advcfl_wvel_max              =   6.6981613049233E-03
(PID.TID 0000.0001) %MON advcfl_W_hf_max              =   6.6981613049233E-03
(PID.TID 0000.0001) %MON ke_max                       =   2.6782859658295E-04
(PID.TID 0000.0001) %MON ke_mean                      =   2.1074454246143E-06
(PID.TID 0000.0001) %MON ke_volint                    =   4.1983077197681E+15
(PID.TID 0000.0001) %MON ke_volmean                   =   3.1232431619121E-07
(PID.TID 0000.0001) %MON ke_vol                       =   1.3442141716554E+22
(PID.TID 0000.0001) %MON surf_Corr_theta_mean         =   3.4467192429777E-07
(PID.TID 0000.0001) %MON surf_Corr_salt_mean          =   7.9631713143364E-09
(PID.TID 0000.0001) // =======================================================
(PID.TID 0000.0001) // End MONITOR dynamic field statistics
(PID.TID 0000.0001) // =======================================================
time,SST,SSS,fu,fv,Q,E-P,i0,i1,a,b =   5.1840E+05  4.7556E-01  0.0000E+00 -3.8229E-02 -6.0721E-02  1.4696E+02 -2.0964E-09    12     1  7.3333E-01  2.6667E-01
time,fu0,fu1,fu =   5.1840E+05 -4.5368E-02 -3.5633E-02 -3.8229E-02  7.3333E-01  2.6667E-01
(PID.TID 0000.0001) %GM: Global mean of phiHydLow =  0.77255680866520418E-01
 cg2d: Sum(rhs),rhsMax =  -2.23475751792712E-15  9.54972941089936E-03
(PID.TID 0000.0001)                    cg2d_init_res =    2.39021658986829E+00
(PID.TID 0000.0001)                       cg2d_iters =   148
(PID.TID 0000.0001)                         cg2d_res =    9.21733075067312E-10
(PID.TID 0000.0001) // =======================================================
(PID.TID 0000.0001) // Begin MONITOR dynamic field statistics
(PID.TID 0000.0001) // =======================================================
(PID.TID 0000.0001) %MON time_tsnumber                =                     4
(PID.TID 0000.0001) %MON time_secondsf                =   6.9120000000000E+05
(PID.TID 0000.0001) %MON dynstat_eta_max              =   7.5333156802310E+02
(PID.TID 0000.0001) %MON dynstat_eta_min              =  -6.5126549172528E+02
(PID.TID 0000.0001) %MON dynstat_eta_mean             =  -2.8547076518239E-15
(PID.TID 0000.0001) %MON dynstat_eta_sd               =   7.5323341568544E+01
(PID.TID 0000.0001) %MON dynstat_eta_del2             =   4.1159712287536E+00
(PID.TID 0000.0001) %MON dynstat_uvel_max             =   2.8124497771252E-02
(PID.TID 0000.0001) %MON dynstat_uvel_min             =  -1.4929528817613E-02
(PID.TID 0000.0001) %MON dynstat_uvel_mean            =   1.4261950200989E-05
(PID.TID 0000.0001) %MON dynstat_uvel_sd              =   1.0267745270215E-03
(PID.TID 0000.0001) %MON dynstat_uvel_del2            =   6.8976328830456E-05
(PID.TID 0000.0001) %MON dynstat_vvel_max             =   1.6210243789692E-02
(PID.TID 0000.0001) %MON dynstat_vvel_min             =  -1.5786131647410E-02
(PID.TID 0000.0001) %MON dynstat_vvel_mean            =   3.3645231017680E-06
(PID.TID 0000.0001) %MON dynstat_vvel_sd              =   4.0450094537726E-04
(PID.TID 0000.0001) %MON dynstat_vvel_del2            =   3.8604899344596E-05
(PID.TID 0000.0001) %MON dynstat_wvel_max             =   3.3862859104601E-02
(PID.TID 0000.0001) %MON dynstat_wvel_min             =  -2.9933683664214E-02
(PID.TID 0000.0001) %MON dynstat_wvel_mean            =  -6.5039607932732E-06
(PID.TID 0000.0001) %MON dynstat_wvel_sd              =   1.8210576469961E-03
(PID.TID 0000.0001) %MON dynstat_wvel_del2            =   7.1759677993204E-04
(PID.TID 0000.0001) %MON dynstat_theta_max            =   7.0107922548697E+00
(PID.TID 0000.0001) %MON dynstat_theta_min            =   3.0403120353890E+00
(PID.TID 0000.0001) %MON dynstat_theta_mean           =   3.6245278680094E+00
(PID.TID 0000.0001) %MON dynstat_theta_sd             =   2.5038081984605E-01
(PID.TID 0000.0001) %MON dynstat_theta_del2           =   3.3632785740758E-03
(PID.TID 0000.0001) %MON dynstat_salt_max             =   3.4724391456358E+01
(PID.TID 0000.0001) %MON dynstat_salt_min             =   3.4635962627376E+01
(PID.TID 0000.0001) %MON dynstat_salt_mean            =   3.4700000000058E+01
(PID.TID 0000.0001) %MON dynstat_salt_sd              =   1.2277305144700E-03
(PID.TID 0000.0001) %MON dynstat_salt_del2            =   8.9529692959655E-05
(PID.TID 0000.0001) %MON advcfl_uvel_max              =   1.7001382017628E-02
(PID.TID 0000.0001) %MON advcfl_vvel_max              =   6.2987807745664E-03
(PID.TID 0000.0001) %MON advcfl_wvel_max              =   8.8710911958068E-03
(PID.TID 0000.0001) %MON advcfl_W_hf_max              =   8.8710911958068E-03
(PID.TID 0000.0001) %MON ke_max                       =   4.7326589077685E-04
(PID.TID 0000.0001) %MON ke_mean                      =   3.7117982936378E-06
(PID.TID 0000.0001) %MON ke_volint                    =   7.4074465698987E+15
(PID.TID 0000.0001) %MON ke_volmean                   =   5.5106148455319E-07
(PID.TID 0000.0001) %MON ke_vol                       =   1.3442141716554E+22
(PID.TID 0000.0001) %MON surf_Corr_theta_mean         =  -1.8692021082518E-07
(PID.TID 0000.0001) %MON surf_Corr_salt_mean          =  -2.0906291376200E-10
(PID.TID 0000.0001) // =======================================================
(PID.TID 0000.0001) // End MONITOR dynamic field statistics
(PID.TID 0000.0001) // =======================================================
time,SST,SSS,fu,fv,Q,E-P,i0,i1,a,b =   6.9120E+05  5.9629E-01  0.0000E+00 -3.7580E-02 -5.9855E-02  1.3842E+02 -2.0964E-09    12     1  8.0000E-01  2.0000E-01
time,fu0,fu1,fu =   6.9120E+05 -4.5368E-02 -3.5633E-02 -3.7580E-02  8.0000E-01  2.0000E-01
(PID.TID 0000.0001) %GM: Global mean of phiHydLow =  0.10425719192111892E+00
 cg2d: Sum(rhs),rhsMax =  -8.39172481503780E-16  1.37604136950495E-02
(PID.TID 0000.0001)                    cg2d_init_res =    2.52422405544253E+00
(PID.TID 0000.0001)                       cg2d_iters =   145
(PID.TID 0000.0001)                         cg2d_res =    9.24593301601244E-10
(PID.TID 0000.0001) // =======================================================
(PID.TID 0000.0001) // Begin MONITOR dynamic field statistics
(PID.TID 0000.0001) // =======================================================
(PID.TID 0000.0001) %MON time_tsnumber                =                     5
(PID.TID 0000.0001) %MON time_secondsf                =   8.6400000000000E+05
(PID.TID 0000.0001) %MON dynstat_eta_max              =   8.2115583669805E+02
(PID.TID 0000.0001) %MON dynstat_eta_min              =  -6.1595301390773E+02
(PID.TID 0000.0001) %MON dynstat_eta_mean             =  -1.3990565171067E-14
(PID.TID 0000.0001) %MON dynstat_eta_sd               =   8.0186351539084E+01
(PID.TID 0000.0001) %MON dynstat_eta_del2             =   4.3225689832254E+00
(PID.TID 0000.0001) %MON dynstat_uvel_max             =   3.5826973530131E-02
(PID.TID 0000.0001) %MON dynstat_uvel_min             =  -1.8596905360610E-02
(PID.TID 0000.0001) %MON dynstat_uvel_mean            =   1.7501603917285E-05
(PID.TID 0000.0001) %MON dynstat_uvel_sd              =   1.2818552643685E-03
(PID.TID 0000.0001) %MON dynstat_uvel_del2            =   8.6847613327132E-05
(PID.TID 0000.0001) %MON dynstat_vvel_max             =   2.0321494558014E-02
(PID.TID 0000.0001) %MON dynstat_vvel_min             =  -1.9169305791745E-02
(PID.TID 0000.0001) %MON dynstat_vvel_mean            =   3.7910424002471E-06
(PID.TID 0000.0001) %MON dynstat_vvel_sd              =   4.9190389480027E-04
(PID.TID 0000.0001) %MON dynstat_vvel_del2            =   4.8676665034681E-05
(PID.TID 0000.0001) %MON dynstat_wvel_max             =   4.2716246998499E-02
(PID.TID 0000.0001) %MON dynstat_wvel_min             =  -3.5713404262425E-02
(PID.TID 0000.0001) %MON dynstat_wvel_mean            =  -5.9711219243776E-06
(PID.TID 0000.0001) %MON dynstat_wvel_sd              =   2.3299936529573E-03
(PID.TID 0000.0001) %MON dynstat_wvel_del2            =   9.3568252392172E-04
(PID.TID 0000.0001) %MON dynstat_theta_max            =   7.7813503154323E+00
(PID.TID 0000.0001) %MON dynstat_theta_min            =   2.9015769761420E+00
(PID.TID 0000.0001) %MON dynstat_theta_mean           =   3.6301461555819E+00
(PID.TID 0000.0001) %MON dynstat_theta_sd             =   3.0745085115098E-01
(PID.TID 0000.0001) %MON dynstat_theta_del2           =   4.1696069820853E-03
(PID.TID 0000.0001) %MON dynstat_salt_max             =   3.4730415886671E+01
(PID.TID 0000.0001) %MON dynstat_salt_min             =   3.4620039134992E+01
(PID.TID 0000.0001) %MON dynstat_salt_mean            =   3.4700000000080E+01
(PID.TID 0000.0001) %MON dynstat_salt_sd              =   1.5320897938336E-03
(PID.TID 0000.0001) %MON dynstat_salt_del2            =   1.1088824303941E-04
(PID.TID 0000.0001) %MON advcfl_uvel_max              =   2.1657562331435E-02
(PID.TID 0000.0001) %MON advcfl_vvel_max              =   7.8962809500662E-03
(PID.TID 0000.0001) %MON advcfl_wvel_max              =   1.1110554565981E-02
(PID.TID 0000.0001) %MON advcfl_W_hf_max              =   1.1110554565981E-02
(PID.TID 0000.0001) %MON ke_max                       =   7.3228023351202E-04
(PID.TID 0000.0001) %MON ke_mean                      =   5.7358369287888E-06
(PID.TID 0000.0001) %MON ke_volint                    =   1.1466341233408E+16
(PID.TID 0000.0001) %MON ke_volmean                   =   8.5301445820105E-07
(PID.TID 0000.0001) %MON ke_vol                       =   1.3442141716554E+22
(PID.TID 0000.0001) %MON surf_Corr_theta_mean         =  -7.4457377281269E-07
(PID.TID 0000.0001) %MON surf_Corr_salt_mean          =  -1.0480659444858E-08
(PID.TID 0000.0001) // =======================================================
(PID.TID 0000.0001) // End MONITOR dynamic field statistics
(PID.TID 0000.0001) // =======================================================
time,SST,SSS,fu,fv,Q,E-P,i0,i1,a,b =   8.6400E+05  7.1702E-01  0.0000E+00 -3.6931E-02 -5.8989E-02  1.2989E+02 -2.0964E-09    12     1  8.6667E-01  1.3333E-01
time,fu0,fu1,fu =   8.6400E+05 -4.5368E-02 -3.5633E-02 -3.6931E-02  8.6667E-01  1.3333E-01
(PID.TID 0000.0001) %GM: Global mean of phiHydLow =  0.13177918659946969E+00
 cg2d: Sum(rhs),rhsMax =   3.12748958675169E-15  1.64789468681563E-02
(PID.TID 0000.0001)                    cg2d_init_res =    1.43427540850854E+00
(PID.TID 0000.0001)                       cg2d_iters =   142
(PID.TID 0000.0001)                         cg2d_res =    9.66979345913851E-10
(PID.TID 0000.0001) // =======================================================
(PID.TID 0000.0001) // Begin MONITOR dynamic field statistics
(PID.TID 0000.0001) // =======================================================
(PID.TID 0000.0001) %MON time_tsnumber                =                     6
(PID.TID 0000.0001) %MON time_secondsf                =   1.0368000000000E+06
(PID.TID 0000.0001) %MON dynstat_eta_max              =   8.5396295047543E+02
(PID.TID 0000.0001) %MON dynstat_eta_min              =  -5.5190779835452E+02
(PID.TID 0000.0001) %MON dynstat_eta_mean             =   7.0067035738197E-16
(PID.TID 0000.0001) %MON dynstat_eta_sd               =   8.3139507875393E+01
(PID.TID 0000.0001) %MON dynstat_eta_del2             =   4.5375861964707E+00
(PID.TID 0000.0001) %MON dynstat_uvel_max             =   4.3663572723423E-02
(PID.TID 0000.0001) %MON dynstat_uvel_min             =  -2.2258241937417E-02
(PID.TID 0000.0001) %MON dynstat_uvel_mean            =   2.0790911402633E-05
(PID.TID 0000.0001) %MON dynstat_uvel_sd              =   1.5305397784090E-03
(PID.TID 0000.0001) %MON dynstat_uvel_del2            =   1.0476799660190E-04
(PID.TID 0000.0001) %MON dynstat_vvel_max             =   2.4362320818182E-02
(PID.TID 0000.0001) %MON dynstat_vvel_min             =  -2.2275473966430E-02
(PID.TID 0000.0001) %MON dynstat_vvel_mean            =   3.5713741795399E-06
(PID.TID 0000.0001) %MON dynstat_vvel_sd              =   5.8483332565162E-04
(PID.TID 0000.0001) %MON dynstat_vvel_del2            =   5.9572442192844E-05
(PID.TID 0000.0001) %MON dynstat_wvel_max             =   5.1459243738613E-02
(PID.TID 0000.0001) %MON dynstat_wvel_min             =  -4.0782724223580E-02
(PID.TID 0000.0001) %MON dynstat_wvel_mean            =  -4.2085319031430E-06
(PID.TID 0000.0001) %MON dynstat_wvel_sd              =   2.8830341449221E-03
(PID.TID 0000.0001) %MON dynstat_wvel_del2            =   1.1776468451569E-03
(PID.TID 0000.0001) %MON dynstat_theta_max            =   8.5300513506663E+00
(PID.TID 0000.0001) %MON dynstat_theta_min            =   2.7634896536794E+00
(PID.TID 0000.0001) %MON dynstat_theta_mean           =   3.6355861530202E+00
(PID.TID 0000.0001) %MON dynstat_theta_sd             =   3.6259418163449E-01
(PID.TID 0000.0001) %MON dynstat_theta_del2           =   4.9829738741667E-03
(PID.TID 0000.0001) %MON dynstat_salt_max             =   3.4736406234895E+01
(PID.TID 0000.0001) %MON dynstat_salt_min             =   3.4604132816453E+01
(PID.TID 0000.0001) %MON dynstat_salt_mean            =   3.4700000000098E+01
(PID.TID 0000.0001) %MON dynstat_salt_sd              =   1.8355786211401E-03
(PID.TID 0000.0001) %MON dynstat_salt_del2            =   1.3272507843527E-04
(PID.TID 0000.0001) %MON advcfl_uvel_max              =   2.6462521747737E-02
(PID.TID 0000.0001) %MON advcfl_vvel_max              =   9.4664164206439E-03
(PID.TID 0000.0001) %MON advcfl_wvel_max              =   1.3286811414252E-02
(PID.TID 0000.0001) %MON advcfl_W_hf_max              =   1.3286811414252E-02
(PID.TID 0000.0001) %MON ke_max                       =   1.0403685464244E-03
(PID.TID 0000.0001) %MON ke_mean                      =   8.1539941540475E-06
(PID.TID 0000.0001) %MON ke_volint                    =   1.6329177679491E+16
(PID.TID 0000.0001) %MON ke_volmean                   =   1.2147749981970E-06
(PID.TID 0000.0001) %MON ke_vol                       =   1.3442141716554E+22
(PID.TID 0000.0001) %MON surf_Corr_theta_mean         =  -1.0888342786987E-06
(PID.TID 0000.0001) %MON surf_Corr_salt_mean          =  -1.8669073209678E-08
(PID.TID 0000.0001) // =======================================================
(PID.TID 0000.0001) // End MONITOR dynamic field statistics
(PID.TID 0000.0001) // =======================================================
time,SST,SSS,fu,fv,Q,E-P,i0,i1,a,b =   1.0368E+06  8.3775E-01  0.0000E+00 -3.6282E-02 -5.8123E-02  1.2135E+02 -2.0964E-09    12     1  9.3333E-01  6.6667E-02
time,fu0,fu1,fu =   1.0368E+06 -4.5368E-02 -3.5633E-02 -3.6282E-02  9.3333E-01  6.6667E-02
(PID.TID 0000.0001) %GM: Global mean of phiHydLow =  0.15970738771509280E+00
 cg2d: Sum(rhs),rhsMax =  -2.41289193486649E-15  1.94635120005749E-02
(PID.TID 0000.0001)                    cg2d_init_res =    9.74926175630815E-01
(PID.TID 0000.0001)                       cg2d_iters =   142
(PID.TID 0000.0001)                         cg2d_res =    9.15960503733306E-10
(PID.TID 0000.0001) // =======================================================
(PID.TID 0000.0001) // Begin MONITOR dynamic field statistics
(PID.TID 0000.0001) // =======================================================
(PID.TID 0000.0001) %MON time_tsnumber                =                     7
(PID.TID 0000.0001) %MON time_secondsf                =   1.2096000000000E+06
(PID.TID 0000.0001) %MON dynstat_eta_max              =   8.7530934647002E+02
(PID.TID 0000.0001) %MON dynstat_eta_min              =  -5.2139828849963E+02
(PID.TID 0000.0001) %MON dynstat_eta_mean             =  -2.7804769490808E-15
(PID.TID 0000.0001) %MON dynstat_eta_sd               =   8.5359158648798E+01
(PID.TID 0000.0001) %MON dynstat_eta_del2             =   4.8101176186992E+00
(PID.TID 0000.0001) %MON dynstat_uvel_max             =   5.1411701061249E-02
(PID.TID 0000.0001) %MON dynstat_uvel_min             =  -2.6581332780769E-02
(PID.TID 0000.0001) %MON dynstat_uvel_mean            =   2.4017334577706E-05
(PID.TID 0000.0001) %MON dynstat_uvel_sd              =   1.7704689070299E-03
(PID.TID 0000.0001) %MON dynstat_uvel_del2            =   1.2280575825374E-04
(PID.TID 0000.0001) %MON dynstat_vvel_max             =   2.8295533098581E-02
(PID.TID 0000.0001) %MON dynstat_vvel_min             =  -2.5480892302772E-02
(PID.TID 0000.0001) %MON dynstat_vvel_mean            =   2.9009110469468E-06
(PID.TID 0000.0001) %MON dynstat_vvel_sd              =   6.8781377635644E-04
(PID.TID 0000.0001) %MON dynstat_vvel_del2            =   7.1542218967173E-05
(PID.TID 0000.0001) %MON dynstat_wvel_max             =   5.9977760752736E-02
(PID.TID 0000.0001) %MON dynstat_wvel_min             =  -4.8652956446217E-02
(PID.TID 0000.0001) %MON dynstat_wvel_mean            =  -2.1205967701887E-06
(PID.TID 0000.0001) %MON dynstat_wvel_sd              =   3.4901785341309E-03
(PID.TID 0000.0001) %MON dynstat_wvel_del2            =   1.4447801188440E-03
(PID.TID 0000.0001) %MON dynstat_theta_max            =   9.2637294948571E+00
(PID.TID 0000.0001) %MON dynstat_theta_min            =   2.6260447602412E+00
(PID.TID 0000.0001) %MON dynstat_theta_mean           =   3.6408541979906E+00
(PID.TID 0000.0001) %MON dynstat_theta_sd             =   4.1588084298820E-01
(PID.TID 0000.0001) %MON dynstat_theta_del2           =   5.8042502670442E-03
(PID.TID 0000.0001) %MON dynstat_salt_max             =   3.4742360035672E+01
(PID.TID 0000.0001) %MON dynstat_salt_min             =   3.4588236178024E+01
(PID.TID 0000.0001) %MON dynstat_salt_mean            =   3.4700000000110E+01
(PID.TID 0000.0001) %MON dynstat_salt_sd              =   2.1376367097351E-03
(PID.TID 0000.0001) %MON dynstat_salt_del2            =   1.5527723958068E-04
(PID.TID 0000.0001) %MON advcfl_uvel_max              =   3.1373691944115E-02
(PID.TID 0000.0001) %MON advcfl_vvel_max              =   1.0994736550525E-02
(PID.TID 0000.0001) %MON advcfl_wvel_max              =   1.5369167509720E-02
(PID.TID 0000.0001) %MON advcfl_W_hf_max              =   1.5369167509720E-02
(PID.TID 0000.0001) %MON ke_max                       =   1.3919813128654E-03
(PID.TID 0000.0001) %MON ke_mean                      =   1.0936708329755E-05
(PID.TID 0000.0001) %MON ke_volint                    =   2.1942887132786E+16
(PID.TID 0000.0001) %MON ke_volmean                   =   1.6323951640655E-06
(PID.TID 0000.0001) %MON ke_vol                       =   1.3442141716554E+22
(PID.TID 0000.0001) %MON surf_Corr_theta_mean         =  -1.1196255478919E-06
(PID.TID 0000.0001) %MON surf_Corr_salt_mean          =  -2.1353737365874E-08
(PID.TID 0000.0001) // =======================================================
(PID.TID 0000.0001) // End MONITOR dynamic field statistics
(PID.TID 0000.0001) // =======================================================
 S/R EXTERNAL_FIELDS_LOAD: Reading new data  1209600. 7
(PID.TID 0000.0001)  MDSREADFIELD: opening global file: trenberth_taux.bin
(PID.TID 0000.0001)  MDSREADFIELD: opening global file: trenberth_taux.bin
(PID.TID 0000.0001)  MDSREADFIELD: opening global file: trenberth_tauy.bin
(PID.TID 0000.0001)  MDSREADFIELD: opening global file: trenberth_tauy.bin
(PID.TID 0000.0001)  MDSREADFIELD: opening global file: shi_qnet.bin
(PID.TID 0000.0001)  MDSREADFIELD: opening global file: shi_qnet.bin
(PID.TID 0000.0001)  MDSREADFIELD: opening global file: shi_empmr.bin
(PID.TID 0000.0001)  MDSREADFIELD: opening global file: shi_empmr.bin
(PID.TID 0000.0001)  MDSREADFIELD: opening global file: lev_sst.bin
(PID.TID 0000.0001)  MDSREADFIELD: opening global file: lev_sst.bin
(PID.TID 0000.0001)  MDSREADFIELD: opening global file: deltageopotjmd95.bin
(PID.TID 0000.0001)  MDSREADFIELD: opening global file: deltageopotjmd95.bin
time,SST,SSS,fu,fv,Q,E-P,i0,i1,a,b =   1.2096E+06  9.5848E-01  0.0000E+00 -3.5633E-02 -5.7257E-02  1.1281E+02 -2.0964E-09     1     2  0.0000E+00  1.0000E+00
time,fu0,fu1,fu =   1.2096E+06 -3.5633E-02 -1.4435E-02 -3.5633E-02  0.0000E+00  1.0000E+00
(PID.TID 0000.0001) %GM: Global mean of phiHydLow =  0.18791733265156807E+00
 cg2d: Sum(rhs),rhsMax =  -6.83481049534862E-16  2.25603658986412E-02
(PID.TID 0000.0001)                    cg2d_init_res =    7.92001254621057E-01
(PID.TID 0000.0001)                       cg2d_iters =   141
(PID.TID 0000.0001)                         cg2d_res =    8.98130233358221E-10
(PID.TID 0000.0001) // =======================================================
(PID.TID 0000.0001) // Begin MONITOR dynamic field statistics
(PID.TID 0000.0001) // =======================================================
(PID.TID 0000.0001) %MON time_tsnumber                =                     8
(PID.TID 0000.0001) %MON time_secondsf                =   1.3824000000000E+06
(PID.TID 0000.0001) %MON dynstat_eta_max              =   8.9799994239826E+02
(PID.TID 0000.0001) %MON dynstat_eta_min              =  -5.4711308711767E+02
(PID.TID 0000.0001) %MON dynstat_eta_mean             =   3.5151716189264E-14
(PID.TID 0000.0001) %MON dynstat_eta_sd               =   8.7055750720606E+01
(PID.TID 0000.0001) %MON dynstat_eta_del2             =   5.1306023546456E+00
(PID.TID 0000.0001) %MON dynstat_uvel_max             =   5.8946272173569E-02
(PID.TID 0000.0001) %MON dynstat_uvel_min             =  -3.0918479424999E-02
(PID.TID 0000.0001) %MON dynstat_uvel_mean            =   2.7107230056464E-05
(PID.TID 0000.0001) %MON dynstat_uvel_sd              =   1.9995313244430E-03
(PID.TID 0000.0001) %MON dynstat_uvel_del2            =   1.4095547677736E-04
(PID.TID 0000.0001) %MON dynstat_vvel_max             =   3.2087181194066E-02
(PID.TID 0000.0001) %MON dynstat_vvel_min             =  -2.9023949363337E-02
(PID.TID 0000.0001) %MON dynstat_vvel_mean            =   2.0454805747001E-06
(PID.TID 0000.0001) %MON dynstat_vvel_sd              =   8.0409039157861E-04
(PID.TID 0000.0001) %MON dynstat_vvel_del2            =   8.4528069684132E-05
(PID.TID 0000.0001) %MON dynstat_wvel_max             =   6.8336249613055E-02
(PID.TID 0000.0001) %MON dynstat_wvel_min             =  -5.9987654414964E-02
(PID.TID 0000.0001) %MON dynstat_wvel_mean            =  -3.9450082727774E-07
(PID.TID 0000.0001) %MON dynstat_wvel_sd              =   4.1608589296644E-03
(PID.TID 0000.0001) %MON dynstat_wvel_del2            =   1.7375840052963E-03
(PID.TID 0000.0001) %MON dynstat_theta_max            =   9.9753679446546E+00
(PID.TID 0000.0001) %MON dynstat_theta_min            =   2.4892326641911E+00
(PID.TID 0000.0001) %MON dynstat_theta_mean           =   3.6459563679554E+00
(PID.TID 0000.0001) %MON dynstat_theta_sd             =   4.6737897556834E-01
(PID.TID 0000.0001) %MON dynstat_theta_del2           =   6.6297954173114E-03
(PID.TID 0000.0001) %MON dynstat_salt_max             =   3.4748274805002E+01
(PID.TID 0000.0001) %MON dynstat_salt_min             =   3.4572342095701E+01
(PID.TID 0000.0001) %MON dynstat_salt_mean            =   3.4700000000110E+01
(PID.TID 0000.0001) %MON dynstat_salt_sd              =   2.4387861892548E-03
(PID.TID 0000.0001) %MON dynstat_salt_del2            =   1.7752552140368E-04
(PID.TID 0000.0001) %MON advcfl_uvel_max              =   3.6196487704173E-02
(PID.TID 0000.0001) %MON advcfl_vvel_max              =   1.2468049378982E-02
(PID.TID 0000.0001) %MON advcfl_wvel_max              =   1.7327842256596E-02
(PID.TID 0000.0001) %MON advcfl_W_hf_max              =   1.7327842256596E-02
(PID.TID 0000.0001) %MON ke_max                       =   1.7806855031276E-03
(PID.TID 0000.0001) %MON ke_mean                      =   1.4050948455549E-05
(PID.TID 0000.0001) %MON ke_volint                    =   2.8248087402031E+16
(PID.TID 0000.0001) %MON ke_volmean                   =   2.1014573419683E-06
(PID.TID 0000.0001) %MON ke_vol                       =   1.3442141716554E+22
(PID.TID 0000.0001) %MON surf_Corr_theta_mean         =  -8.9350785192758E-07
(PID.TID 0000.0001) %MON surf_Corr_salt_mean          =  -1.8309882700440E-08
(PID.TID 0000.0001) // =======================================================
(PID.TID 0000.0001) // End MONITOR dynamic field statistics
(PID.TID 0000.0001) // =======================================================
time,SST,SSS,fu,fv,Q,E-P,i0,i1,a,b =   1.3824E+06  8.5911E-01  0.0000E+00 -3.4220E-02 -5.4615E-02  1.1534E+02 -2.0964E-09     1     2  6.6667E-02  9.3333E-01
time,fu0,fu1,fu =   1.3824E+06 -3.5633E-02 -1.4435E-02 -3.4220E-02  6.6667E-02  9.3333E-01
(PID.TID 0000.0001) %GM: Global mean of phiHydLow =  0.21630116480701059E+00
 cg2d: Sum(rhs),rhsMax =  -6.36643515683488E-16  2.55778355443680E-02
(PID.TID 0000.0001)                    cg2d_init_res =    7.39643284890946E-01
(PID.TID 0000.0001)                       cg2d_iters =   137
(PID.TID 0000.0001)                         cg2d_res =    9.64989827505901E-10
(PID.TID 0000.0001) // =======================================================
(PID.TID 0000.0001) // Begin MONITOR dynamic field statistics
(PID.TID 0000.0001) // =======================================================
(PID.TID 0000.0001) %MON time_tsnumber                =                     9
(PID.TID 0000.0001) %MON time_secondsf                =   1.5552000000000E+06
(PID.TID 0000.0001) %MON dynstat_eta_max              =   8.9505086246644E+02
(PID.TID 0000.0001) %MON dynstat_eta_min              =  -5.8714602151347E+02
(PID.TID 0000.0001) %MON dynstat_eta_mean             =   1.5873016039027E-14
(PID.TID 0000.0001) %MON dynstat_eta_sd               =   8.7503036827015E+01
(PID.TID 0000.0001) %MON dynstat_eta_del2             =   5.3995514681379E+00
(PID.TID 0000.0001) %MON dynstat_uvel_max             =   6.5878083475732E-02
(PID.TID 0000.0001) %MON dynstat_uvel_min             =  -3.5244877087441E-02
(PID.TID 0000.0001) %MON dynstat_uvel_mean            =   3.0179500278649E-05
(PID.TID 0000.0001) %MON dynstat_uvel_sd              =   2.2130712978855E-03
(PID.TID 0000.0001) %MON dynstat_uvel_del2            =   1.5870541825140E-04
(PID.TID 0000.0001) %MON dynstat_vvel_max             =   3.4974170738450E-02
(PID.TID 0000.0001) %MON dynstat_vvel_min             =  -3.2271807599274E-02
(PID.TID 0000.0001) %MON dynstat_vvel_mean            =   1.1551202916019E-06
(PID.TID 0000.0001) %MON dynstat_vvel_sd              =   9.3196827661125E-04
(PID.TID 0000.0001) %MON dynstat_vvel_del2            =   9.7966723876020E-05
(PID.TID 0000.0001) %MON dynstat_wvel_max             =   7.8430912148746E-02
(PID.TID 0000.0001) %MON dynstat_wvel_min             =  -7.2287645112457E-02
(PID.TID 0000.0001) %MON dynstat_wvel_mean            =   1.3482916929333E-06
(PID.TID 0000.0001) %MON dynstat_wvel_sd              =   4.8869223847299E-03
(PID.TID 0000.0001) %MON dynstat_wvel_del2            =   2.0468301227496E-03
(PID.TID 0000.0001) %MON dynstat_theta_max            =   1.0651923981620E+01
(PID.TID 0000.0001) %MON dynstat_theta_min            =   2.3566967445496E+00
(PID.TID 0000.0001) %MON dynstat_theta_mean           =   3.6508983931114E+00
(PID.TID 0000.0001) %MON dynstat_theta_sd             =   5.1711414570686E-01
(PID.TID 0000.0001) %MON dynstat_theta_del2           =   7.4014007606008E-03
(PID.TID 0000.0001) %MON dynstat_salt_max             =   3.4754148037638E+01
(PID.TID 0000.0001) %MON dynstat_salt_min             =   3.4556443850771E+01
(PID.TID 0000.0001) %MON dynstat_salt_mean            =   3.4700000000098E+01
(PID.TID 0000.0001) %MON dynstat_salt_sd              =   2.7392635153999E-03
(PID.TID 0000.0001) %MON dynstat_salt_del2            =   2.0036693309157E-04
(PID.TID 0000.0001) %MON advcfl_uvel_max              =   4.0377240314007E-02
(PID.TID 0000.0001) %MON advcfl_vvel_max              =   1.3589840912438E-02
(PID.TID 0000.0001) %MON advcfl_wvel_max              =   1.9186978421635E-02
(PID.TID 0000.0001) %MON advcfl_W_hf_max              =   1.9186978421635E-02
(PID.TID 0000.0001) %MON ke_max                       =   2.1810903961047E-03
(PID.TID 0000.0001) %MON ke_mean                      =   1.7411068539243E-05
(PID.TID 0000.0001) %MON ke_volint                    =   3.5065105363265E+16
(PID.TID 0000.0001) %MON ke_volmean                   =   2.6085951258855E-06
(PID.TID 0000.0001) %MON ke_vol                       =   1.3442141716554E+22
(PID.TID 0000.0001) %MON surf_Corr_theta_mean         =  -4.3676794007333E-07
(PID.TID 0000.0001) %MON surf_Corr_salt_mean          =  -9.8497958481441E-09
(PID.TID 0000.0001) // =======================================================
(PID.TID 0000.0001) // End MONITOR dynamic field statistics
(PID.TID 0000.0001) // =======================================================
time,SST,SSS,fu,fv,Q,E-P,i0,i1,a,b =   1.5552E+06  7.5973E-01  0.0000E+00 -3.2807E-02 -5.1974E-02  1.1787E+02 -2.0964E-09     1     2  1.3333E-01  8.6667E-01
time,fu0,fu1,fu =   1.5552E+06 -3.5633E-02 -1.4435E-02 -3.2807E-02  1.3333E-01  8.6667E-01
(PID.TID 0000.0001) %GM: Global mean of phiHydLow =  0.24476281480623416E+00
 cg2d: Sum(rhs),rhsMax =  -1.28889954265077E-15  2.84728255453597E-02
(PID.TID 0000.0001)                    cg2d_init_res =    6.09009537572704E-01
(PID.TID 0000.0001)                       cg2d_iters =   134
(PID.TID 0000.0001)                         cg2d_res =    8.61387864321246E-10
(PID.TID 0000.0001) // =======================================================
(PID.TID 0000.0001) // Begin MONITOR dynamic field statistics
(PID.TID 0000.0001) // =======================================================
(PID.TID 0000.0001) %MON time_tsnumber                =                    10
(PID.TID 0000.0001) %MON time_secondsf                =   1.7280000000000E+06
(PID.TID 0000.0001) %MON dynstat_eta_max              =   8.7774668237366E+02
(PID.TID 0000.0001) %MON dynstat_eta_min              =  -6.2307122548014E+02
(PID.TID 0000.0001) %MON dynstat_eta_mean             =  -1.0119875039564E-14
(PID.TID 0000.0001) %MON dynstat_eta_sd               =   8.6960121039194E+01
(PID.TID 0000.0001) %MON dynstat_eta_del2             =   5.6522590207432E+00
(PID.TID 0000.0001) %MON dynstat_uvel_max             =   7.2147080603337E-02
(PID.TID 0000.0001) %MON dynstat_uvel_min             =  -3.9443119829672E-02
(PID.TID 0000.0001) %MON dynstat_uvel_mean            =   3.3241987758358E-05
(PID.TID 0000.0001) %MON dynstat_uvel_sd              =   2.4098271357798E-03
(PID.TID 0000.0001) %MON dynstat_uvel_del2            =   1.7618449135578E-04
(PID.TID 0000.0001) %MON dynstat_vvel_max             =   3.7213877574868E-02
(PID.TID 0000.0001) %MON dynstat_vvel_min             =  -3.5248492843551E-02
(PID.TID 0000.0001) %MON dynstat_vvel_mean            =   4.8401730661280E-07
(PID.TID 0000.0001) %MON dynstat_vvel_sd              =   1.0743934745457E-03
(PID.TID 0000.0001) %MON dynstat_vvel_del2            =   1.1205241255076E-04
(PID.TID 0000.0001) %MON dynstat_wvel_max             =   8.8242414465117E-02
(PID.TID 0000.0001) %MON dynstat_wvel_min             =  -8.5096966074682E-02
(PID.TID 0000.0001) %MON dynstat_wvel_mean            =   2.3036180828025E-06
(PID.TID 0000.0001) %MON dynstat_wvel_sd              =   5.6739248007135E-03
(PID.TID 0000.0001) %MON dynstat_wvel_del2            =   2.3765959396420E-03
(PID.TID 0000.0001) %MON dynstat_theta_max            =   1.1300114231414E+01
(PID.TID 0000.0001) %MON dynstat_theta_min            =   2.2269428215810E+00
(PID.TID 0000.0001) %MON dynstat_theta_mean           =   3.6556862063710E+00
(PID.TID 0000.0001) %MON dynstat_theta_sd             =   5.6516296684904E-01
(PID.TID 0000.0001) %MON dynstat_theta_del2           =   8.1354950804176E-03
(PID.TID 0000.0001) %MON dynstat_salt_max             =   3.4759979790606E+01
(PID.TID 0000.0001) %MON dynstat_salt_min             =   3.4540536637536E+01
(PID.TID 0000.0001) %MON dynstat_salt_mean            =   3.4700000000073E+01
(PID.TID 0000.0001) %MON dynstat_salt_sd              =   3.0389137236057E-03
(PID.TID 0000.0001) %MON dynstat_salt_del2            =   2.2221901300780E-04
(PID.TID 0000.0001) %MON advcfl_uvel_max              =   4.4036266112602E-02
(PID.TID 0000.0001) %MON advcfl_vvel_max              =   1.4460119147912E-02
(PID.TID 0000.0001) %MON advcfl_wvel_max              =   2.0918969376036E-02
(PID.TID 0000.0001) %MON advcfl_W_hf_max              =   2.0918969376036E-02
(PID.TID 0000.0001) %MON ke_max                       =   2.5867814317715E-03
(PID.TID 0000.0001) %MON ke_mean                      =   2.0979512768001E-05
(PID.TID 0000.0001) %MON ke_volint                    =   4.2327556289457E+16
(PID.TID 0000.0001) %MON ke_volmean                   =   3.1488699629859E-06
(PID.TID 0000.0001) %MON ke_vol                       =   1.3442141716554E+22
(PID.TID 0000.0001) %MON surf_Corr_theta_mean         =  -4.5765308309769E-08
(PID.TID 0000.0001) %MON surf_Corr_salt_mean          =  -2.1946733603562E-09
(PID.TID 0000.0001) // =======================================================
(PID.TID 0000.0001) // End MONITOR dynamic field statistics
(PID.TID 0000.0001) // =======================================================
time,SST,SSS,fu,fv,Q,E-P,i0,i1,a,b =   1.7280E+06  6.6036E-01  0.0000E+00 -3.1393E-02 -4.9332E-02  1.2039E+02 -2.0964E-09     1     2  2.0000E-01  8.0000E-01
time,fu0,fu1,fu =   1.7280E+06 -3.5633E-02 -1.4435E-02 -3.1393E-02  2.0000E-01  8.0000E-01
(PID.TID 0000.0001) %GM: Global mean of phiHydLow =  0.27322315081942000E+00
 cg2d: Sum(rhs),rhsMax =  -2.78921850893621E-15  3.12488636240297E-02
(PID.TID 0000.0001)                    cg2d_init_res =    5.44248567287186E-01
(PID.TID 0000.0001)                       cg2d_iters =   133
(PID.TID 0000.0001)                         cg2d_res =    9.34948500384302E-10
(PID.TID 0000.0001) // =======================================================
(PID.TID 0000.0001) // Begin MONITOR dynamic field statistics
(PID.TID 0000.0001) // =======================================================
(PID.TID 0000.0001) %MON time_tsnumber                =                    11
(PID.TID 0000.0001) %MON time_secondsf                =   1.9008000000000E+06
(PID.TID 0000.0001) %MON dynstat_eta_max              =   8.5841190904778E+02
(PID.TID 0000.0001) %MON dynstat_eta_min              =  -6.4839875294656E+02
(PID.TID 0000.0001) %MON dynstat_eta_mean             =   2.0438485409866E-14
(PID.TID 0000.0001) %MON dynstat_eta_sd               =   8.5750523644808E+01
(PID.TID 0000.0001) %MON dynstat_eta_del2             =   5.9024056914529E+00
(PID.TID 0000.0001) %MON dynstat_uvel_max             =   7.7649560699716E-02
(PID.TID 0000.0001) %MON dynstat_uvel_min             =  -4.3445561100072E-02
(PID.TID 0000.0001) %MON dynstat_uvel_mean            =   3.6306627195890E-05
(PID.TID 0000.0001) %MON dynstat_uvel_sd              =   2.5882686529339E-03
(PID.TID 0000.0001) %MON dynstat_uvel_del2            =   1.9329081202581E-04
(PID.TID 0000.0001) %MON dynstat_vvel_max             =   3.8804197039611E-02
(PID.TID 0000.0001) %MON dynstat_vvel_min             =  -3.8221312749740E-02
(PID.TID 0000.0001) %MON dynstat_vvel_mean            =   7.4582550339199E-08
(PID.TID 0000.0001) %MON dynstat_vvel_sd              =   1.2311865371912E-03
(PID.TID 0000.0001) %MON dynstat_vvel_del2            =   1.2677483552447E-04
(PID.TID 0000.0001) %MON dynstat_wvel_max             =   9.7709734508174E-02
(PID.TID 0000.0001) %MON dynstat_wvel_min             =  -9.8263633643914E-02
(PID.TID 0000.0001) %MON dynstat_wvel_mean            =   2.7541070495338E-06
(PID.TID 0000.0001) %MON dynstat_wvel_sd              =   6.5198527432130E-03
(PID.TID 0000.0001) %MON dynstat_wvel_del2            =   2.7244869937646E-03
(PID.TID 0000.0001) %MON dynstat_theta_max            =   1.1920828227976E+01
(PID.TID 0000.0001) %MON dynstat_theta_min            =   2.0999475859185E+00
(PID.TID 0000.0001) %MON dynstat_theta_mean           =   3.6603253277412E+00
(PID.TID 0000.0001) %MON dynstat_theta_sd             =   6.1158554803754E-01
(PID.TID 0000.0001) %MON dynstat_theta_del2           =   8.8552243835511E-03
(PID.TID 0000.0001) %MON dynstat_salt_max             =   3.4765768992035E+01
(PID.TID 0000.0001) %MON dynstat_salt_min             =   3.4524615383132E+01
(PID.TID 0000.0001) %MON dynstat_salt_mean            =   3.4700000000052E+01
(PID.TID 0000.0001) %MON dynstat_salt_sd              =   3.3377860327373E-03
(PID.TID 0000.0001) %MON dynstat_salt_del2            =   2.4445182474040E-04
(PID.TID 0000.0001) %MON advcfl_uvel_max              =   4.7122595534859E-02
(PID.TID 0000.0001) %MON advcfl_vvel_max              =   1.5078066280596E-02
(PID.TID 0000.0001) %MON advcfl_wvel_max              =   2.2590276076159E-02
(PID.TID 0000.0001) %MON advcfl_W_hf_max              =   2.2590276076159E-02
(PID.TID 0000.0001) %MON ke_max                       =   2.9883039590683E-03
(PID.TID 0000.0001) %MON ke_mean                      =   2.4704961236950E-05
(PID.TID 0000.0001) %MON ke_volint                    =   4.9938799721008E+16
(PID.TID 0000.0001) %MON ke_volmean                   =   3.7150924885361E-06
(PID.TID 0000.0001) %MON ke_vol                       =   1.3442141716554E+22
(PID.TID 0000.0001) %MON surf_Corr_theta_mean         =   2.5397377927145E-07
(PID.TID 0000.0001) %MON surf_Corr_salt_mean          =   3.7177137526811E-09
(PID.TID 0000.0001) // =======================================================
(PID.TID 0000.0001) // End MONITOR dynamic field statistics
(PID.TID 0000.0001) // =======================================================
time,SST,SSS,fu,fv,Q,E-P,i0,i1,a,b =   1.9008E+06  5.6099E-01  0.0000E+00 -2.9980E-02 -4.6691E-02  1.2292E+02 -2.0964E-09     1     2  2.6667E-01  7.3333E-01
time,fu0,fu1,fu =   1.9008E+06 -3.5633E-02 -1.4435E-02 -2.9980E-02  2.6667E-01  7.3333E-01
(PID.TID 0000.0001) %GM: Global mean of phiHydLow =  0.30161565127468976E+00
 cg2d: Sum(rhs),rhsMax =   2.37776378447796E-15  3.38803241136698E-02
(PID.TID 0000.0001)                    cg2d_init_res =    4.89476971071552E-01
(PID.TID 0000.0001)                       cg2d_iters =   136
(PID.TID 0000.0001)                         cg2d_res =    8.45320050237032E-10
(PID.TID 0000.0001) // =======================================================
(PID.TID 0000.0001) // Begin MONITOR dynamic field statistics
(PID.TID 0000.0001) // =======================================================
(PID.TID 0000.0001) %MON time_tsnumber                =                    12
(PID.TID 0000.0001) %MON time_secondsf                =   2.0736000000000E+06
(PID.TID 0000.0001) %MON dynstat_eta_max              =   8.4238270107706E+02
(PID.TID 0000.0001) %MON dynstat_eta_min              =  -6.6537202861901E+02
(PID.TID 0000.0001) %MON dynstat_eta_mean             =  -2.0027074833102E-14
(PID.TID 0000.0001) %MON dynstat_eta_sd               =   8.4174522431262E+01
(PID.TID 0000.0001) %MON dynstat_eta_del2             =   6.1529241692661E+00
(PID.TID 0000.0001) %MON dynstat_uvel_max             =   8.2284761432385E-02
(PID.TID 0000.0001) %MON dynstat_uvel_min             =  -4.7182289318302E-02
(PID.TID 0000.0001) %MON dynstat_uvel_mean            =   3.9376486503000E-05
(PID.TID 0000.0001) %MON dynstat_uvel_sd              =   2.7472192470259E-03
(PID.TID 0000.0001) %MON dynstat_uvel_del2            =   2.1000179331250E-04
(PID.TID 0000.0001) %MON dynstat_vvel_max             =   4.0515868034519E-02
(PID.TID 0000.0001) %MON dynstat_vvel_min             =  -4.3396441249229E-02
(PID.TID 0000.0001) %MON dynstat_vvel_mean            =  -1.1074517264578E-07
(PID.TID 0000.0001) %MON dynstat_vvel_sd              =   1.4011824316691E-03
(PID.TID 0000.0001) %MON dynstat_vvel_del2            =   1.4219694154017E-04
(PID.TID 0000.0001) %MON dynstat_wvel_max             =   1.0682264312145E-01
(PID.TID 0000.0001) %MON dynstat_wvel_min             =  -1.1164291868476E-01
(PID.TID 0000.0001) %MON dynstat_wvel_mean            =   2.9133849589747E-06
(PID.TID 0000.0001) %MON dynstat_wvel_sd              =   7.4206092955006E-03
(PID.TID 0000.0001) %MON dynstat_wvel_del2            =   3.0902524807316E-03
(PID.TID 0000.0001) %MON dynstat_theta_max            =   1.2515034275820E+01
(PID.TID 0000.0001) %MON dynstat_theta_min            =   1.9756817161119E+00
(PID.TID 0000.0001) %MON dynstat_theta_mean           =   3.6648211875399E+00
(PID.TID 0000.0001) %MON dynstat_theta_sd             =   6.5644045423635E-01
(PID.TID 0000.0001) %MON dynstat_theta_del2           =   9.5514555626629E-03
(PID.TID 0000.0001) %MON dynstat_salt_max             =   3.4771515179016E+01
(PID.TID 0000.0001) %MON dynstat_salt_min             =   3.4508675830335E+01
(PID.TID 0000.0001) %MON dynstat_salt_mean            =   3.4700000000038E+01
(PID.TID 0000.0001) %MON dynstat_salt_sd              =   3.6357511522329E-03
(PID.TID 0000.0001) %MON dynstat_salt_del2            =   2.6665102351295E-04
(PID.TID 0000.0001) %MON advcfl_uvel_max              =   4.9741498487178E-02
(PID.TID 0000.0001) %MON advcfl_vvel_max              =   1.6862465078968E-02
(PID.TID 0000.0001) %MON advcfl_wvel_max              =   2.4109186958086E-02
(PID.TID 0000.0001) %MON advcfl_W_hf_max              =   2.4109186958086E-02
(PID.TID 0000.0001) %MON ke_max                       =   3.3761585540171E-03
(PID.TID 0000.0001) %MON ke_mean                      =   2.8536152209174E-05
(PID.TID 0000.0001) %MON ke_volint                    =   5.7801840571676E+16
(PID.TID 0000.0001) %MON ke_volmean                   =   4.3000469560957E-06
(PID.TID 0000.0001) %MON ke_vol                       =   1.3442141716554E+22
(PID.TID 0000.0001) %MON surf_Corr_theta_mean         =   4.2087418425491E-07
(PID.TID 0000.0001) %MON surf_Corr_salt_mean          =   7.0259136630643E-09
(PID.TID 0000.0001) // =======================================================
(PID.TID 0000.0001) // End MONITOR dynamic field statistics
(PID.TID 0000.0001) // =======================================================
time,SST,SSS,fu,fv,Q,E-P,i0,i1,a,b =   2.0736E+06  4.6162E-01  0.0000E+00 -2.8567E-02 -4.4050E-02  1.2545E+02 -2.0964E-09     1     2  3.3333E-01  6.6667E-01
time,fu0,fu1,fu =   2.0736E+06 -3.5633E-02 -1.4435E-02 -2.8567E-02  3.3333E-01  6.6667E-01
(PID.TID 0000.0001) %GM: Global mean of phiHydLow =  0.32987960257673010E+00
 cg2d: Sum(rhs),rhsMax =  -4.92336206525668E-16  3.63690912134624E-02
(PID.TID 0000.0001)                    cg2d_init_res =    4.55358007650537E-01
(PID.TID 0000.0001)                       cg2d_iters =   136
(PID.TID 0000.0001)                         cg2d_res =    8.50030632160757E-10
(PID.TID 0000.0001) // =======================================================
(PID.TID 0000.0001) // Begin MONITOR dynamic field statistics
(PID.TID 0000.0001) // =======================================================
(PID.TID 0000.0001) %MON time_tsnumber                =                    13
(PID.TID 0000.0001) %MON time_secondsf                =   2.2464000000000E+06
(PID.TID 0000.0001) %MON dynstat_eta_max              =   8.2861523752884E+02
(PID.TID 0000.0001) %MON dynstat_eta_min              =  -6.7772788030527E+02
(PID.TID 0000.0001) %MON dynstat_eta_mean             =  -2.1443627186194E-14
(PID.TID 0000.0001) %MON dynstat_eta_sd               =   8.2498094877634E+01
(PID.TID 0000.0001) %MON dynstat_eta_del2             =   6.4057846035412E+00
(PID.TID 0000.0001) %MON dynstat_uvel_max             =   8.5967666978977E-02
(PID.TID 0000.0001) %MON dynstat_uvel_min             =  -5.0587776243689E-02
(PID.TID 0000.0001) %MON dynstat_uvel_mean            =   4.2452852190053E-05
(PID.TID 0000.0001) %MON dynstat_uvel_sd              =   2.8859342160066E-03
(PID.TID 0000.0001) %MON dynstat_uvel_del2            =   2.2635110504025E-04
(PID.TID 0000.0001) %MON dynstat_vvel_max             =   4.2434316369416E-02
(PID.TID 0000.0001) %MON dynstat_vvel_min             =  -4.8543403444046E-02
(PID.TID 0000.0001) %MON dynstat_vvel_mean            =  -1.5229338318773E-07
(PID.TID 0000.0001) %MON dynstat_vvel_sd              =   1.5824537920949E-03
(PID.TID 0000.0001) %MON dynstat_vvel_del2            =   1.5829492947850E-04
(PID.TID 0000.0001) %MON dynstat_wvel_max             =   1.1556567610201E-01
(PID.TID 0000.0001) %MON dynstat_wvel_min             =  -1.2509404534300E-01
(PID.TID 0000.0001) %MON dynstat_wvel_mean            =   2.8571394301881E-06
(PID.TID 0000.0001) %MON dynstat_wvel_sd              =   8.3700568875351E-03
(PID.TID 0000.0001) %MON dynstat_wvel_del2            =   3.4739002419113E-03
(PID.TID 0000.0001) %MON dynstat_theta_max            =   1.3083661520080E+01
(PID.TID 0000.0001) %MON dynstat_theta_min            =   1.8541173178210E+00
(PID.TID 0000.0001) %MON dynstat_theta_mean           =   3.6691789735626E+00
(PID.TID 0000.0001) %MON dynstat_theta_sd             =   6.9978442157316E-01
(PID.TID 0000.0001) %MON dynstat_theta_del2           =   1.0229379835780E-02
(PID.TID 0000.0001) %MON dynstat_salt_max             =   3.4777218254202E+01
(PID.TID 0000.0001) %MON dynstat_salt_min             =   3.4492714374416E+01
(PID.TID 0000.0001) %MON dynstat_salt_mean            =   3.4700000000030E+01
(PID.TID 0000.0001) %MON dynstat_salt_sd              =   3.9326636325011E-03
(PID.TID 0000.0001) %MON dynstat_salt_del2            =   2.8964244186745E-04
(PID.TID 0000.0001) %MON advcfl_uvel_max              =   5.1967831012001E-02
(PID.TID 0000.0001) %MON advcfl_vvel_max              =   1.8862409493176E-02
(PID.TID 0000.0001) %MON advcfl_wvel_max              =   2.5372594950457E-02
(PID.TID 0000.0001) %MON advcfl_W_hf_max              =   2.5372594950457E-02
(PID.TID 0000.0001) %MON ke_max                       =   3.7416757923887E-03
(PID.TID 0000.0001) %MON ke_mean                      =   3.2423001803685E-05
(PID.TID 0000.0001) %MON ke_volint                    =   6.5821687326279E+16
(PID.TID 0000.0001) %MON ke_volmean                   =   4.8966666707001E-06
(PID.TID 0000.0001) %MON ke_vol                       =   1.3442141716554E+22
(PID.TID 0000.0001) %MON surf_Corr_theta_mean         =   4.4519091738416E-07
(PID.TID 0000.0001) %MON surf_Corr_salt_mean          =   7.5919330150829E-09
(PID.TID 0000.0001) // =======================================================
(PID.TID 0000.0001) // End MONITOR dynamic field statistics
(PID.TID 0000.0001) // =======================================================
time,SST,SSS,fu,fv,Q,E-P,i0,i1,a,b =   2.2464E+06  3.6224E-01  0.0000E+00 -2.7154E-02 -4.1408E-02  1.2798E+02 -2.0964E-09     1     2  4.0000E-01  6.0000E-01
time,fu0,fu1,fu =   2.2464E+06 -3.5633E-02 -1.4435E-02 -2.7154E-02  4.0000E-01  6.0000E-01
(PID.TID 0000.0001) %GM: Global mean of phiHydLow =  0.35796171983275116E+00
 cg2d: Sum(rhs),rhsMax =  -1.86894770493051E-15  3.87262421616210E-02
(PID.TID 0000.0001)                    cg2d_init_res =    4.27314478929662E-01
(PID.TID 0000.0001)                       cg2d_iters =   130
(PID.TID 0000.0001)                         cg2d_res =    9.16823383880624E-10
(PID.TID 0000.0001) // =======================================================
(PID.TID 0000.0001) // Begin MONITOR dynamic field statistics
(PID.TID 0000.0001) // =======================================================
(PID.TID 0000.0001) %MON time_tsnumber                =                    14
(PID.TID 0000.0001) %MON time_secondsf                =   2.4192000000000E+06
(PID.TID 0000.0001) %MON dynstat_eta_max              =   8.1408071449592E+02
(PID.TID 0000.0001) %MON dynstat_eta_min              =  -6.8727830171767E+02
(PID.TID 0000.0001) %MON dynstat_eta_mean             =  -1.2884633622627E-14
(PID.TID 0000.0001) %MON dynstat_eta_sd               =   8.0977791495910E+01
(PID.TID 0000.0001) %MON dynstat_eta_del2             =   6.6432151474660E+00
(PID.TID 0000.0001) %MON dynstat_uvel_max             =   8.9200779022281E-02
(PID.TID 0000.0001) %MON dynstat_uvel_min             =  -5.3602432709012E-02
(PID.TID 0000.0001) %MON dynstat_uvel_mean            =   4.5540662918930E-05
(PID.TID 0000.0001) %MON dynstat_uvel_sd              =   3.0041229968310E-03
(PID.TID 0000.0001) %MON dynstat_uvel_del2            =   2.4236420183075E-04
(PID.TID 0000.0001) %MON dynstat_vvel_max             =   4.8704251291586E-02
(PID.TID 0000.0001) %MON dynstat_vvel_min             =  -5.3596183228648E-02
(PID.TID 0000.0001) %MON dynstat_vvel_mean            =  -1.2690271760232E-07
(PID.TID 0000.0001) %MON dynstat_vvel_sd              =   1.7725431231939E-03
(PID.TID 0000.0001) %MON dynstat_vvel_del2            =   1.7499603043413E-04
(PID.TID 0000.0001) %MON dynstat_wvel_max             =   1.2389684692662E-01
(PID.TID 0000.0001) %MON dynstat_wvel_min             =  -1.3848137306266E-01
(PID.TID 0000.0001) %MON dynstat_wvel_mean            =   2.6118722548464E-06
(PID.TID 0000.0001) %MON dynstat_wvel_sd              =   9.3609364424923E-03
(PID.TID 0000.0001) %MON dynstat_wvel_del2            =   3.8752699553642E-03
(PID.TID 0000.0001) %MON dynstat_theta_max            =   1.3627604440847E+01
(PID.TID 0000.0001) %MON dynstat_theta_min            =   1.7352254253377E+00
(PID.TID 0000.0001) %MON dynstat_theta_mean           =   3.6734036739651E+00
(PID.TID 0000.0001) %MON dynstat_theta_sd             =   7.4167246122817E-01
(PID.TID 0000.0001) %MON dynstat_theta_del2           =   1.0880861179571E-02
(PID.TID 0000.0001) %MON dynstat_salt_max             =   3.4782878486343E+01
(PID.TID 0000.0001) %MON dynstat_salt_min             =   3.4476728071064E+01
(PID.TID 0000.0001) %MON dynstat_salt_mean            =   3.4700000000030E+01
(PID.TID 0000.0001) %MON dynstat_salt_sd              =   4.2287052484399E-03
(PID.TID 0000.0001) %MON dynstat_salt_del2            =   3.1107602504310E-04
(PID.TID 0000.0001) %MON advcfl_uvel_max              =   5.3577356455400E-02
(PID.TID 0000.0001) %MON advcfl_vvel_max              =   2.0825757643782E-02
(PID.TID 0000.0001) %MON advcfl_wvel_max              =   2.6362193599839E-02
(PID.TID 0000.0001) %MON advcfl_W_hf_max              =   2.6362193599839E-02
(PID.TID 0000.0001) %MON ke_max                       =   4.0995723881309E-03
(PID.TID 0000.0001) %MON ke_mean                      =   3.6317244812503E-05
(PID.TID 0000.0001) %MON ke_volint                    =   7.3906524506029E+16
(PID.TID 0000.0001) %MON ke_volmean                   =   5.4981212119652E-06
(PID.TID 0000.0001) %MON ke_vol                       =   1.3442141716554E+22
(PID.TID 0000.0001) %MON surf_Corr_theta_mean         =   3.5676737803545E-07
(PID.TID 0000.0001) %MON surf_Corr_salt_mean          =   5.8668307578659E-09
(PID.TID 0000.0001) // =======================================================
(PID.TID 0000.0001) // End MONITOR dynamic field statistics
(PID.TID 0000.0001) // =======================================================
time,SST,SSS,fu,fv,Q,E-P,i0,i1,a,b =   2.4192E+06  2.6287E-01  0.0000E+00 -2.5740E-02 -3.8767E-02  1.3050E+02 -2.0964E-09     1     2  4.6667E-01  5.3333E-01
time,fu0,fu1,fu =   2.4192E+06 -3.5633E-02 -1.4435E-02 -2.5740E-02  4.6667E-01  5.3333E-01
(PID.TID 0000.0001) %GM: Global mean of phiHydLow =  0.38581590881319194E+00
 cg2d: Sum(rhs),rhsMax =   7.37907998593634E-16  4.09658612850104E-02
(PID.TID 0000.0001)                    cg2d_init_res =    4.00882402688489E-01
(PID.TID 0000.0001)                       cg2d_iters =   133
(PID.TID 0000.0001)                         cg2d_res =    9.08271616626059E-10
(PID.TID 0000.0001) // =======================================================
(PID.TID 0000.0001) // Begin MONITOR dynamic field statistics
(PID.TID 0000.0001) // =======================================================
(PID.TID 0000.0001) %MON time_tsnumber                =                    15
(PID.TID 0000.0001) %MON time_secondsf                =   2.5920000000000E+06
(PID.TID 0000.0001) %MON dynstat_eta_max              =   7.9708011091007E+02
(PID.TID 0000.0001) %MON dynstat_eta_min              =  -6.9409728928358E+02
(PID.TID 0000.0001) %MON dynstat_eta_mean             =  -3.6312132406598E-14
(PID.TID 0000.0001) %MON dynstat_eta_sd               =   7.9876965668874E+01
(PID.TID 0000.0001) %MON dynstat_eta_del2             =   6.8651581342855E+00
(PID.TID 0000.0001) %MON dynstat_uvel_max             =   9.1723536994155E-02
(PID.TID 0000.0001) %MON dynstat_uvel_min             =  -5.6173321968632E-02
(PID.TID 0000.0001) %MON dynstat_uvel_mean            =   4.8643059363547E-05
(PID.TID 0000.0001) %MON dynstat_uvel_sd              =   3.1019640482789E-03
(PID.TID 0000.0001) %MON dynstat_uvel_del2            =   2.5824092755384E-04
(PID.TID 0000.0001) %MON dynstat_vvel_max             =   5.4997968724454E-02
(PID.TID 0000.0001) %MON dynstat_vvel_min             =  -5.8489945258934E-02
(PID.TID 0000.0001) %MON dynstat_vvel_mean            =  -8.2310466133869E-08
(PID.TID 0000.0001) %MON dynstat_vvel_sd              =   1.9686639839724E-03
(PID.TID 0000.0001) %MON dynstat_vvel_del2            =   1.9225261149465E-04
(PID.TID 0000.0001) %MON dynstat_wvel_max             =   1.3811984867615E-01
(PID.TID 0000.0001) %MON dynstat_wvel_min             =  -1.5167558379334E-01
(PID.TID 0000.0001) %MON dynstat_wvel_mean            =   2.1926037378471E-06
(PID.TID 0000.0001) %MON dynstat_wvel_sd              =   1.0382163823420E-02
(PID.TID 0000.0001) %MON dynstat_wvel_del2            =   4.2922588711343E-03
(PID.TID 0000.0001) %MON dynstat_theta_max            =   1.4152600622451E+01
(PID.TID 0000.0001) %MON dynstat_theta_min            =   1.6189737038809E+00
(PID.TID 0000.0001) %MON dynstat_theta_mean           =   3.6775001620278E+00
(PID.TID 0000.0001) %MON dynstat_theta_sd             =   7.8215770420176E-01
(PID.TID 0000.0001) %MON dynstat_theta_del2           =   1.1531075128983E-02
(PID.TID 0000.0001) %MON dynstat_salt_max             =   3.4788496514717E+01
(PID.TID 0000.0001) %MON dynstat_salt_min             =   3.4460714640816E+01
(PID.TID 0000.0001) %MON dynstat_salt_mean            =   3.4700000000035E+01
(PID.TID 0000.0001) %MON dynstat_salt_sd              =   4.5239057831958E-03
(PID.TID 0000.0001) %MON dynstat_salt_del2            =   3.3327063565848E-04
(PID.TID 0000.0001) %MON advcfl_uvel_max              =   5.5290831924845E-02
(PID.TID 0000.0001) %MON advcfl_vvel_max              =   2.2727316595738E-02
(PID.TID 0000.0001) %MON advcfl_wvel_max              =   2.7763122117350E-02
(PID.TID 0000.0001) %MON advcfl_W_hf_max              =   2.7763122117350E-02
(PID.TID 0000.0001) %MON ke_max                       =   4.4463798613398E-03
(PID.TID 0000.0001) %MON ke_mean                      =   4.0173042281536E-05
(PID.TID 0000.0001) %MON ke_volint                    =   8.1968904769822E+16
(PID.TID 0000.0001) %MON ke_volmean                   =   6.0979051179676E-06
(PID.TID 0000.0001) %MON ke_vol                       =   1.3442141716554E+22
(PID.TID 0000.0001) %MON surf_Corr_theta_mean         =   2.0475780690769E-07
(PID.TID 0000.0001) %MON surf_Corr_salt_mean          =   2.6535518629317E-09
(PID.TID 0000.0001) // =======================================================
(PID.TID 0000.0001) // End MONITOR dynamic field statistics
(PID.TID 0000.0001) // =======================================================
time,SST,SSS,fu,fv,Q,E-P,i0,i1,a,b =   2.5920E+06  1.6350E-01  0.0000E+00 -2.4327E-02 -3.6125E-02  1.3303E+02 -2.0964E-09     1     2  5.3333E-01  4.6667E-01
time,fu0,fu1,fu =   2.5920E+06 -3.5633E-02 -1.4435E-02 -2.4327E-02  5.3333E-01  4.6667E-01
(PID.TID 0000.0001) %GM: Global mean of phiHydLow =  0.41340396697168497E+00
 cg2d: Sum(rhs),rhsMax =   5.20135150228196E-15  4.30986960176002E-02
(PID.TID 0000.0001)                    cg2d_init_res =    3.79729906595437E-01
(PID.TID 0000.0001)                       cg2d_iters =   133
(PID.TID 0000.0001)                         cg2d_res =    9.67529569580871E-10
(PID.TID 0000.0001) // =======================================================
(PID.TID 0000.0001) // Begin MONITOR dynamic field statistics
(PID.TID 0000.0001) // =======================================================
(PID.TID 0000.0001) %MON time_tsnumber                =                    16
(PID.TID 0000.0001) %MON time_secondsf                =   2.7648000000000E+06
(PID.TID 0000.0001) %MON dynstat_eta_max              =   7.7794409457763E+02
(PID.TID 0000.0001) %MON dynstat_eta_min              =  -6.9769348515525E+02
(PID.TID 0000.0001) %MON dynstat_eta_mean             =   6.4960920614423E-15
(PID.TID 0000.0001) %MON dynstat_eta_sd               =   7.9449167818476E+01
(PID.TID 0000.0001) %MON dynstat_eta_del2             =   7.0776633305793E+00
(PID.TID 0000.0001) %MON dynstat_uvel_max             =   9.3294269811444E-02
(PID.TID 0000.0001) %MON dynstat_uvel_min             =  -5.8254852348318E-02
(PID.TID 0000.0001) %MON dynstat_uvel_mean            =   5.1756611397599E-05
(PID.TID 0000.0001) %MON dynstat_uvel_sd              =   3.1801147273657E-03
(PID.TID 0000.0001) %MON dynstat_uvel_del2            =   2.7401786433543E-04
(PID.TID 0000.0001) %MON dynstat_vvel_max             =   6.1217227084375E-02
(PID.TID 0000.0001) %MON dynstat_vvel_min             =  -6.3161678647713E-02
(PID.TID 0000.0001) %MON dynstat_vvel_mean            =  -2.9872560024439E-08
(PID.TID 0000.0001) %MON dynstat_vvel_sd              =   2.1678556641159E-03
(PID.TID 0000.0001) %MON dynstat_vvel_del2            =   2.0994805760404E-04
(PID.TID 0000.0001) %MON dynstat_wvel_max             =   1.5569302981511E-01
(PID.TID 0000.0001) %MON dynstat_wvel_min             =  -1.6455393229190E-01
(PID.TID 0000.0001) %MON dynstat_wvel_mean            =   1.6372724938221E-06
(PID.TID 0000.0001) %MON dynstat_wvel_sd              =   1.1428619172318E-02
(PID.TID 0000.0001) %MON dynstat_wvel_del2            =   4.7245691090489E-03
(PID.TID 0000.0001) %MON dynstat_theta_max            =   1.4679617643018E+01
(PID.TID 0000.0001) %MON dynstat_theta_min            =   1.5053263228504E+00
(PID.TID 0000.0001) %MON dynstat_theta_mean           =   3.6814731536669E+00
(PID.TID 0000.0001) %MON dynstat_theta_sd             =   8.2129132368698E-01
(PID.TID 0000.0001) %MON dynstat_theta_del2           =   1.2173774524542E-02
(PID.TID 0000.0001) %MON dynstat_salt_max             =   3.4794073350780E+01
(PID.TID 0000.0001) %MON dynstat_salt_min             =   3.4444672469411E+01
(PID.TID 0000.0001) %MON dynstat_salt_mean            =   3.4700000000044E+01
(PID.TID 0000.0001) %MON dynstat_salt_sd              =   4.8180745549696E-03
(PID.TID 0000.0001) %MON dynstat_salt_del2            =   3.5627138666548E-04
(PID.TID 0000.0001) %MON advcfl_uvel_max              =   5.8496068078965E-02
(PID.TID 0000.0001) %MON advcfl_vvel_max              =   2.4542602339426E-02
(PID.TID 0000.0001) %MON advcfl_wvel_max              =   2.9419126086921E-02
(PID.TID 0000.0001) %MON advcfl_W_hf_max              =   2.9419126086921E-02
(PID.TID 0000.0001) %MON ke_max                       =   4.7606669900042E-03
(PID.TID 0000.0001) %MON ke_mean                      =   4.3947567137271E-05
(PID.TID 0000.0001) %MON ke_volint                    =   8.9926898604688E+16
(PID.TID 0000.0001) %MON ke_volmean                   =   6.6899234140599E-06
(PID.TID 0000.0001) %MON ke_vol                       =   1.3442141716554E+22
(PID.TID 0000.0001) %MON surf_Corr_theta_mean         =   3.4282315485868E-08
(PID.TID 0000.0001) %MON surf_Corr_salt_mean          =  -1.1827351553631E-09
(PID.TID 0000.0001) // =======================================================
(PID.TID 0000.0001) // End MONITOR dynamic field statistics
(PID.TID 0000.0001) // =======================================================
time,SST,SSS,fu,fv,Q,E-P,i0,i1,a,b =   2.7648E+06  6.4124E-02  0.0000E+00 -2.2914E-02 -3.3484E-02  1.3556E+02 -2.0964E-09     1     2  6.0000E-01  4.0000E-01
time,fu0,fu1,fu =   2.7648E+06 -3.5633E-02 -1.4435E-02 -2.2914E-02  6.0000E-01  4.0000E-01
(PID.TID 0000.0001) %GM: Global mean of phiHydLow =  0.44069153128112531E+00
 cg2d: Sum(rhs),rhsMax =   1.98539101825546E-15  4.51285066395069E-02
(PID.TID 0000.0001)                    cg2d_init_res =    3.66269335173461E-01
(PID.TID 0000.0001)                       cg2d_iters =   132
(PID.TID 0000.0001)                         cg2d_res =    9.94996461455291E-10
(PID.TID 0000.0001) // =======================================================
(PID.TID 0000.0001) // Begin MONITOR dynamic field statistics
(PID.TID 0000.0001) // =======================================================
(PID.TID 0000.0001) %MON time_tsnumber                =                    17
(PID.TID 0000.0001) %MON time_secondsf                =   2.9376000000000E+06
(PID.TID 0000.0001) %MON dynstat_eta_max              =   7.5812200731646E+02
(PID.TID 0000.0001) %MON dynstat_eta_min              =  -6.9765627275868E+02
(PID.TID 0000.0001) %MON dynstat_eta_mean             =   6.9169179656044E-15
(PID.TID 0000.0001) %MON dynstat_eta_sd               =   7.9891509089678E+01
(PID.TID 0000.0001) %MON dynstat_eta_del2             =   7.2875045173262E+00
(PID.TID 0000.0001) %MON dynstat_uvel_max             =   9.3887601451405E-02
(PID.TID 0000.0001) %MON dynstat_uvel_min             =  -6.0340759020806E-02
(PID.TID 0000.0001) %MON dynstat_uvel_mean            =   5.4870985517731E-05
(PID.TID 0000.0001) %MON dynstat_uvel_sd              =   3.2397084835363E-03
(PID.TID 0000.0001) %MON dynstat_uvel_del2            =   2.8958125611395E-04
(PID.TID 0000.0001) %MON dynstat_vvel_max             =   6.7265590662650E-02
(PID.TID 0000.0001) %MON dynstat_vvel_min             =  -6.7550958419167E-02
(PID.TID 0000.0001) %MON dynstat_vvel_mean            =   4.4773222733187E-08
(PID.TID 0000.0001) %MON dynstat_vvel_sd              =   2.3671036517078E-03
(PID.TID 0000.0001) %MON dynstat_vvel_del2            =   2.2830376977675E-04
(PID.TID 0000.0001) %MON dynstat_wvel_max             =   1.7405190917758E-01
(PID.TID 0000.0001) %MON dynstat_wvel_min             =  -1.7700046218295E-01
(PID.TID 0000.0001) %MON dynstat_wvel_mean            =   1.0097243305325E-06
(PID.TID 0000.0001) %MON dynstat_wvel_sd              =   1.2493004713435E-02
(PID.TID 0000.0001) %MON dynstat_wvel_del2            =   5.1699965271010E-03
(PID.TID 0000.0001) %MON dynstat_theta_max            =   1.5188932319693E+01
(PID.TID 0000.0001) %MON dynstat_theta_min            =   1.3942458041031E+00
(PID.TID 0000.0001) %MON dynstat_theta_mean           =   3.6853271344940E+00
(PID.TID 0000.0001) %MON dynstat_theta_sd             =   8.5912285038170E-01
(PID.TID 0000.0001) %MON dynstat_theta_del2           =   1.2787922482983E-02
(PID.TID 0000.0001) %MON dynstat_salt_max             =   3.4799610377628E+01
(PID.TID 0000.0001) %MON dynstat_salt_min             =   3.4428600603724E+01
(PID.TID 0000.0001) %MON dynstat_salt_mean            =   3.4700000000054E+01
(PID.TID 0000.0001) %MON dynstat_salt_sd              =   5.1113024193788E-03
(PID.TID 0000.0001) %MON dynstat_salt_del2            =   3.7849248253584E-04
(PID.TID 0000.0001) %MON advcfl_uvel_max              =   6.1309277407563E-02
(PID.TID 0000.0001) %MON advcfl_vvel_max              =   2.6248135667445E-02
(PID.TID 0000.0001) %MON advcfl_wvel_max              =   3.1502094264450E-02
(PID.TID 0000.0001) %MON advcfl_W_hf_max              =   3.1502094264450E-02
(PID.TID 0000.0001) %MON ke_max                       =   5.0379245783752E-03
(PID.TID 0000.0001) %MON ke_mean                      =   4.7601535221106E-05
(PID.TID 0000.0001) %MON ke_volint                    =   9.7705036153189E+16
(PID.TID 0000.0001) %MON ke_volmean                   =   7.2685616781486E-06
(PID.TID 0000.0001) %MON ke_vol                       =   1.3442141716554E+22
(PID.TID 0000.0001) %MON surf_Corr_theta_mean         =  -1.2726305284323E-07
(PID.TID 0000.0001) %MON surf_Corr_salt_mean          =  -4.9459365259819E-09
(PID.TID 0000.0001) // =======================================================
(PID.TID 0000.0001) // End MONITOR dynamic field statistics
(PID.TID 0000.0001) // =======================================================
time,SST,SSS,fu,fv,Q,E-P,i0,i1,a,b =   2.9376E+06 -3.5249E-02  0.0000E+00 -2.1501E-02 -3.0843E-02  1.3808E+02 -2.0964E-09     1     2  6.6667E-01  3.3333E-01
time,fu0,fu1,fu =   2.9376E+06 -3.5633E-02 -1.4435E-02 -2.1501E-02  6.6667E-01  3.3333E-01
(PID.TID 0000.0001) %GM: Global mean of phiHydLow =  0.46764729632073165E+00
 cg2d: Sum(rhs),rhsMax =   1.40621021771370E-16  4.70521670149220E-02
(PID.TID 0000.0001)                    cg2d_init_res =    3.84201900040208E-01
(PID.TID 0000.0001)                       cg2d_iters =   132
(PID.TID 0000.0001)                         cg2d_res =    8.33845689307121E-10
(PID.TID 0000.0001) // =======================================================
(PID.TID 0000.0001) // Begin MONITOR dynamic field statistics
(PID.TID 0000.0001) // =======================================================
(PID.TID 0000.0001) %MON time_tsnumber                =                    18
(PID.TID 0000.0001) %MON time_secondsf                =   3.1104000000000E+06
(PID.TID 0000.0001) %MON dynstat_eta_max              =   7.3902431185686E+02
(PID.TID 0000.0001) %MON dynstat_eta_min              =  -6.9371304266822E+02
(PID.TID 0000.0001) %MON dynstat_eta_mean             =   3.6489339983546E-14
(PID.TID 0000.0001) %MON dynstat_eta_sd               =   8.1299284668507E+01
(PID.TID 0000.0001) %MON dynstat_eta_del2             =   7.5028869184719E+00
(PID.TID 0000.0001) %MON dynstat_uvel_max             =   9.3492609710127E-02
(PID.TID 0000.0001) %MON dynstat_uvel_min             =  -6.3318810871663E-02
(PID.TID 0000.0001) %MON dynstat_uvel_mean            =   5.7970932196642E-05
(PID.TID 0000.0001) %MON dynstat_uvel_sd              =   3.2823419987168E-03
(PID.TID 0000.0001) %MON dynstat_uvel_del2            =   3.0503837678202E-04
(PID.TID 0000.0001) %MON dynstat_vvel_max             =   7.3123726344983E-02
(PID.TID 0000.0001) %MON dynstat_vvel_min             =  -7.1600675545934E-02
(PID.TID 0000.0001) %MON dynstat_vvel_mean            =   1.6301082155916E-07
(PID.TID 0000.0001) %MON dynstat_vvel_sd              =   2.5634331805110E-03
(PID.TID 0000.0001) %MON dynstat_vvel_del2            =   2.4688879241575E-04
(PID.TID 0000.0001) %MON dynstat_wvel_max             =   1.9311557925634E-01
(PID.TID 0000.0001) %MON dynstat_wvel_min             =  -1.8890652579515E-01
(PID.TID 0000.0001) %MON dynstat_wvel_mean            =   3.8472905794036E-07
(PID.TID 0000.0001) %MON dynstat_wvel_sd              =   1.3563287099975E-02
(PID.TID 0000.0001) %MON dynstat_wvel_del2            =   5.6212490061278E-03
(PID.TID 0000.0001) %MON dynstat_theta_max            =   1.5681105050072E+01
(PID.TID 0000.0001) %MON dynstat_theta_min            =   1.2856955140336E+00
(PID.TID 0000.0001) %MON dynstat_theta_mean           =   3.6890664705690E+00
(PID.TID 0000.0001) %MON dynstat_theta_sd             =   8.9570021593795E-01
(PID.TID 0000.0001) %MON dynstat_theta_del2           =   1.3419199103886E-02
(PID.TID 0000.0001) %MON dynstat_salt_max             =   3.4805109651278E+01
(PID.TID 0000.0001) %MON dynstat_salt_min             =   3.4412498743261E+01
(PID.TID 0000.0001) %MON dynstat_salt_mean            =   3.4700000000063E+01
(PID.TID 0000.0001) %MON dynstat_salt_sd              =   5.4038269460595E-03
(PID.TID 0000.0001) %MON dynstat_salt_del2            =   4.0067757205266E-04
(PID.TID 0000.0001) %MON advcfl_uvel_max              =   6.3697007304826E-02
(PID.TID 0000.0001) %MON advcfl_vvel_max              =   2.8413534530512E-02
(PID.TID 0000.0001) %MON advcfl_wvel_max              =   3.3398753392622E-02
(PID.TID 0000.0001) %MON advcfl_W_hf_max              =   3.3398753392622E-02
(PID.TID 0000.0001) %MON ke_max                       =   5.2747000943854E-03
(PID.TID 0000.0001) %MON ke_mean                      =   5.1099707391787E-05
(PID.TID 0000.0001) %MON ke_volint                    =   1.0523513841825E+17
(PID.TID 0000.0001) %MON ke_volmean                   =   7.8287478764381E-06
(PID.TID 0000.0001) %MON ke_vol                       =   1.3442141716554E+22
(PID.TID 0000.0001) %MON surf_Corr_theta_mean         =  -2.7153977578093E-07
(PID.TID 0000.0001) %MON surf_Corr_salt_mean          =  -8.2206397092516E-09
(PID.TID 0000.0001) // =======================================================
(PID.TID 0000.0001) // End MONITOR dynamic field statistics
(PID.TID 0000.0001) // =======================================================
time,SST,SSS,fu,fv,Q,E-P,i0,i1,a,b =   3.1104E+06 -1.3462E-01  0.0000E+00 -2.0088E-02 -2.8201E-02  1.4061E+02 -2.0964E-09     1     2  7.3333E-01  2.6667E-01
time,fu0,fu1,fu =   3.1104E+06 -3.5633E-02 -1.4435E-02 -2.0088E-02  7.3333E-01  2.6667E-01
(PID.TID 0000.0001) %GM: Global mean of phiHydLow =  0.49424950774460796E+00
 cg2d: Sum(rhs),rhsMax =  -8.25923530956008E-15  4.88624159693183E-02
(PID.TID 0000.0001)                    cg2d_init_res =    3.46886191262997E-01
(PID.TID 0000.0001)                       cg2d_iters =   130
(PID.TID 0000.0001)                         cg2d_res =    8.68793446745354E-10
(PID.TID 0000.0001) // =======================================================
(PID.TID 0000.0001) // Begin MONITOR dynamic field statistics
(PID.TID 0000.0001) // =======================================================
(PID.TID 0000.0001) %MON time_tsnumber                =                    19
(PID.TID 0000.0001) %MON time_secondsf                =   3.2832000000000E+06
(PID.TID 0000.0001) %MON dynstat_eta_max              =   7.2133847177210E+02
(PID.TID 0000.0001) %MON dynstat_eta_min              =  -6.8561613931544E+02
(PID.TID 0000.0001) %MON dynstat_eta_mean             =   3.1518409999785E-14
(PID.TID 0000.0001) %MON dynstat_eta_sd               =   8.3650457609713E+01
(PID.TID 0000.0001) %MON dynstat_eta_del2             =   7.7278071430344E+00
(PID.TID 0000.0001) %MON dynstat_uvel_max             =   9.2112906107680E-02
(PID.TID 0000.0001) %MON dynstat_uvel_min             =  -6.6145493760579E-02
(PID.TID 0000.0001) %MON dynstat_uvel_mean            =   6.1040969007394E-05
(PID.TID 0000.0001) %MON dynstat_uvel_sd              =   3.3100521134148E-03
(PID.TID 0000.0001) %MON dynstat_uvel_del2            =   3.2045870351025E-04
(PID.TID 0000.0001) %MON dynstat_vvel_max             =   7.8779537956082E-02
(PID.TID 0000.0001) %MON dynstat_vvel_min             =  -7.5257711715229E-02
(PID.TID 0000.0001) %MON dynstat_vvel_mean            =   3.4058449186465E-07
(PID.TID 0000.0001) %MON dynstat_vvel_sd              =   2.7539882174528E-03
(PID.TID 0000.0001) %MON dynstat_vvel_del2            =   2.6561430470112E-04
(PID.TID 0000.0001) %MON dynstat_wvel_max             =   2.1279875212181E-01
(PID.TID 0000.0001) %MON dynstat_wvel_min             =  -2.0017162014327E-01
(PID.TID 0000.0001) %MON dynstat_wvel_mean            =  -1.7731655660966E-07
(PID.TID 0000.0001) %MON dynstat_wvel_sd              =   1.4636530304198E-02
(PID.TID 0000.0001) %MON dynstat_wvel_del2            =   6.0812201409388E-03
(PID.TID 0000.0001) %MON dynstat_theta_max            =   1.6156654269847E+01
(PID.TID 0000.0001) %MON dynstat_theta_min            =   1.1796415352676E+00
(PID.TID 0000.0001) %MON dynstat_theta_mean           =   3.6926954310433E+00
(PID.TID 0000.0001) %MON dynstat_theta_sd             =   9.3106946079725E-01
(PID.TID 0000.0001) %MON dynstat_theta_del2           =   1.4058880794842E-02
(PID.TID 0000.0001) %MON dynstat_salt_max             =   3.4810574018568E+01
(PID.TID 0000.0001) %MON dynstat_salt_min             =   3.4396367227194E+01
(PID.TID 0000.0001) %MON dynstat_salt_mean            =   3.4700000000070E+01
(PID.TID 0000.0001) %MON dynstat_salt_sd              =   5.6954824161653E-03
(PID.TID 0000.0001) %MON dynstat_salt_del2            =   4.2282588265356E-04
(PID.TID 0000.0001) %MON advcfl_uvel_max              =   6.5633599921470E-02
(PID.TID 0000.0001) %MON advcfl_vvel_max              =   3.0611201505960E-02
(PID.TID 0000.0001) %MON advcfl_wvel_max              =   3.5084964415325E-02
(PID.TID 0000.0001) %MON advcfl_W_hf_max              =   3.5084964415325E-02
(PID.TID 0000.0001) %MON ke_max                       =   5.4686270085134E-03
(PID.TID 0000.0001) %MON ke_mean                      =   5.4411399381335E-05
(PID.TID 0000.0001) %MON ke_volint                    =   1.1245726825911E+17
(PID.TID 0000.0001) %MON ke_volmean                   =   8.3660231107831E-06
(PID.TID 0000.0001) %MON ke_vol                       =   1.3442141716554E+22
(PID.TID 0000.0001) %MON surf_Corr_theta_mean         =  -4.0264389052450E-07
(PID.TID 0000.0001) %MON surf_Corr_salt_mean          =  -1.0844502668093E-08
(PID.TID 0000.0001) // =======================================================
(PID.TID 0000.0001) // End MONITOR dynamic field statistics
(PID.TID 0000.0001) // =======================================================
time,SST,SSS,fu,fv,Q,E-P,i0,i1,a,b =   3.2832E+06 -2.3399E-01  0.0000E+00 -1.8674E-02 -2.5560E-02  1.4314E+02 -2.0964E-09     1     2  8.0000E-01  2.0000E-01
time,fu0,fu1,fu =   3.2832E+06 -3.5633E-02 -1.4435E-02 -1.8674E-02  8.0000E-01  2.0000E-01
(PID.TID 0000.0001) %GM: Global mean of phiHydLow =  0.52047683478813389E+00
 cg2d: Sum(rhs),rhsMax =   1.61481071569991E-15  5.05513370460996E-02
(PID.TID 0000.0001)                    cg2d_init_res =    3.40888898969243E-01
(PID.TID 0000.0001)                       cg2d_iters =   131
(PID.TID 0000.0001)                         cg2d_res =    9.13788410309440E-10
(PID.TID 0000.0001) // =======================================================
(PID.TID 0000.0001) // Begin MONITOR dynamic field statistics
(PID.TID 0000.0001) // =======================================================
(PID.TID 0000.0001) %MON time_tsnumber                =                    20
(PID.TID 0000.0001) %MON time_secondsf                =   3.4560000000000E+06
(PID.TID 0000.0001) %MON dynstat_eta_max              =   7.0488169251180E+02
(PID.TID 0000.0001) %MON dynstat_eta_min              =  -6.7311531441283E+02
(PID.TID 0000.0001) %MON dynstat_eta_mean             =   2.4361675799246E-14
(PID.TID 0000.0001) %MON dynstat_eta_sd               =   8.6813676977518E+01
(PID.TID 0000.0001) %MON dynstat_eta_del2             =   7.9556687712586E+00
(PID.TID 0000.0001) %MON dynstat_uvel_max             =   8.9766494259137E-02
(PID.TID 0000.0001) %MON dynstat_uvel_min             =  -6.8809838537503E-02
(PID.TID 0000.0001) %MON dynstat_uvel_mean            =   6.4070019931623E-05
(PID.TID 0000.0001) %MON dynstat_uvel_sd              =   3.3252692076266E-03
(PID.TID 0000.0001) %MON dynstat_uvel_del2            =   3.3601542950757E-04
(PID.TID 0000.0001) %MON dynstat_vvel_max             =   8.4011375105076E-02
(PID.TID 0000.0001) %MON dynstat_vvel_min             =  -7.9084871671393E-02
(PID.TID 0000.0001) %MON dynstat_vvel_mean            =   5.7441140423467E-07
(PID.TID 0000.0001) %MON dynstat_vvel_sd              =   2.9360933637321E-03
(PID.TID 0000.0001) %MON dynstat_vvel_del2            =   2.8433869426096E-04
(PID.TID 0000.0001) %MON dynstat_wvel_max             =   2.3301513018729E-01
(PID.TID 0000.0001) %MON dynstat_wvel_min             =  -2.1070443277363E-01
(PID.TID 0000.0001) %MON dynstat_wvel_mean            =  -6.1491279976201E-07
(PID.TID 0000.0001) %MON dynstat_wvel_sd              =   1.5706707134379E-02
(PID.TID 0000.0001) %MON dynstat_wvel_del2            =   6.5483633326298E-03
(PID.TID 0000.0001) %MON dynstat_theta_max            =   1.6616059696877E+01
(PID.TID 0000.0001) %MON dynstat_theta_min            =   1.0760532584612E+00
(PID.TID 0000.0001) %MON dynstat_theta_mean           =   3.6962180777641E+00
(PID.TID 0000.0001) %MON dynstat_theta_sd             =   9.6527503263738E-01
(PID.TID 0000.0001) %MON dynstat_theta_del2           =   1.4716223523698E-02
(PID.TID 0000.0001) %MON dynstat_salt_max             =   3.4816005710428E+01
(PID.TID 0000.0001) %MON dynstat_salt_min             =   3.4380207016559E+01
(PID.TID 0000.0001) %MON dynstat_salt_mean            =   3.4700000000075E+01
(PID.TID 0000.0001) %MON dynstat_salt_sd              =   5.9860574211120E-03
(PID.TID 0000.0001) %MON dynstat_salt_del2            =   4.4548084453817E-04
(PID.TID 0000.0001) %MON advcfl_uvel_max              =   6.7101651601427E-02
(PID.TID 0000.0001) %MON advcfl_vvel_max              =   3.2644125604899E-02
(PID.TID 0000.0001) %MON advcfl_wvel_max              =   3.6541306084627E-02
(PID.TID 0000.0001) %MON advcfl_W_hf_max              =   3.6541306084627E-02
(PID.TID 0000.0001) %MON ke_max                       =   5.6184264361522E-03
(PID.TID 0000.0001) %MON ke_mean                      =   5.7510781611860E-05
(PID.TID 0000.0001) %MON ke_volint                    =   1.1932016098642E+17
(PID.TID 0000.0001) %MON ke_volmean                   =   8.8765736519114E-06
(PID.TID 0000.0001) %MON ke_vol                       =   1.3442141716554E+22
(PID.TID 0000.0001) %MON surf_Corr_theta_mean         =  -5.2693985189911E-07
(PID.TID 0000.0001) %MON surf_Corr_salt_mean          =  -1.2825509955045E-08
(PID.TID 0000.0001) // =======================================================
(PID.TID 0000.0001) // End MONITOR dynamic field statistics
(PID.TID 0000.0001) // =======================================================
(PID.TID 0000.0001)   Seconds in section "ALL                    [THE_MODEL_MAIN]":
(PID.TID 0000.0001)           User time:  4.99
(PID.TID 0000.0001)         System time:  1.34000003
(PID.TID 0000.0001)     Wall clock time:  28.857141
(PID.TID 0000.0001)          No. starts: 1
(PID.TID 0000.0001)           No. stops: 1
(PID.TID 0000.0001)   Seconds in section "INITIALISE_FIXED       [THE_MODEL_MAIN]":
(PID.TID 0000.0001)           User time:  0.109999998
(PID.TID 0000.0001)         System time:  0.0299999993
(PID.TID 0000.0001)     Wall clock time:  0.375913978
(PID.TID 0000.0001)          No. starts: 1
(PID.TID 0000.0001)           No. stops: 1
(PID.TID 0000.0001)   Seconds in section "THE_MAIN_LOOP          [THE_MODEL_MAIN]":
(PID.TID 0000.0001)           User time:  4.84000004
(PID.TID 0000.0001)         System time:  0.70000002
(PID.TID 0000.0001)     Wall clock time:  16.481475
(PID.TID 0000.0001)          No. starts: 1
(PID.TID 0000.0001)           No. stops: 1
(PID.TID 0000.0001)   Seconds in section "INITIALISE_VARIA    [THE_MAIN_LOOP]":
(PID.TID 0000.0001)           User time:  0.0600000098
(PID.TID 0000.0001)         System time:  0.0200000014
(PID.TID 0000.0001)     Wall clock time:  0.194249034
(PID.TID 0000.0001)          No. starts: 1
(PID.TID 0000.0001)           No. stops: 1
(PID.TID 0000.0001)   Seconds in section "WRITE_STATE         [THE_MAIN_LOOP]":
(PID.TID 0000.0001)           User time:  0.0699999928
(PID.TID 0000.0001)         System time:  0.
(PID.TID 0000.0001)     Wall clock time:  0.264869928
(PID.TID 0000.0001)          No. starts: 1
(PID.TID 0000.0001)           No. stops: 1
(PID.TID 0000.0001)   Seconds in section "MONITOR             [THE_MAIN_LOOP]":
(PID.TID 0000.0001)           User time:  0.0300000012
(PID.TID 0000.0001)         System time:  0.
(PID.TID 0000.0001)     Wall clock time:  0.0315049887
(PID.TID 0000.0001)          No. starts: 1
(PID.TID 0000.0001)           No. stops: 1
(PID.TID 0000.0001)   Seconds in section "MAIN LOOP           [THE_MAIN_LOOP]":
(PID.TID 0000.0001)           User time:  4.68000004
(PID.TID 0000.0001)         System time:  0.680000018
(PID.TID 0000.0001)     Wall clock time:  15.9903539
(PID.TID 0000.0001)          No. starts: 1
(PID.TID 0000.0001)           No. stops: 1
(PID.TID 0000.0001)   Seconds in section "FORWARD_STEP        [THE_MAIN_LOOP]":
(PID.TID 0000.0001)           User time:  4.67000028
(PID.TID 0000.0001)         System time:  0.680000018
(PID.TID 0000.0001)     Wall clock time:  15.9844948
(PID.TID 0000.0001)          No. starts: 20
(PID.TID 0000.0001)           No. stops: 20
(PID.TID 0000.0001)   Seconds in section "UPDATE_ETAH        [FORWARD_STEP]":
(PID.TID 0000.0001)           User time:  0.
(PID.TID 0000.0001)         System time:  0.
(PID.TID 0000.0001)     Wall clock time:  0.00618755817
(PID.TID 0000.0001)          No. starts: 20
(PID.TID 0000.0001)           No. stops: 20
(PID.TID 0000.0001)   Seconds in section "CALC_SURF_DR      [FORWARD_STEP]":
(PID.TID 0000.0001)           User time:  0.0199999809
(PID.TID 0000.0001)         System time:  0.
(PID.TID 0000.0001)     Wall clock time:  0.0238479376
(PID.TID 0000.0001)          No. starts: 20
(PID.TID 0000.0001)           No. stops: 20
(PID.TID 0000.0001)   Seconds in section "EXTERNAL_FIELDS_LOAD[FORWARD_STEP]":
(PID.TID 0000.0001)           User time:  0.029999733
(PID.TID 0000.0001)         System time:  0.0100000203
(PID.TID 0000.0001)     Wall clock time:  0.196376085
(PID.TID 0000.0001)          No. starts: 20
(PID.TID 0000.0001)           No. stops: 20
(PID.TID 0000.0001)   Seconds in section "THERMODYNAMICS      [FORWARD_STEP]":
(PID.TID 0000.0001)           User time:  1.42000085
(PID.TID 0000.0001)         System time:  0.209999997
(PID.TID 0000.0001)     Wall clock time:  8.4233228
(PID.TID 0000.0001)          No. starts: 20
(PID.TID 0000.0001)           No. stops: 20
(PID.TID 0000.0001)   Seconds in section "BLOCKING_EXCHANGES  [FORWARD_STEP]":
(PID.TID 0000.0001)           User time:  0.0399997234
(PID.TID 0000.0001)         System time:  0.
(PID.TID 0000.0001)     Wall clock time:  0.108910918
(PID.TID 0000.0001)          No. starts: 40
(PID.TID 0000.0001)           No. stops: 40
(PID.TID 0000.0001)   Seconds in section "DYNAMICS            [FORWARD_STEP]":
(PID.TID 0000.0001)           User time:  1.67999908
(PID.TID 0000.0001)         System time:  0.040000014
(PID.TID 0000.0001)     Wall clock time:  2.68513989
(PID.TID 0000.0001)          No. starts: 20
(PID.TID 0000.0001)           No. stops: 20
(PID.TID 0000.0001)   Seconds in section "UPDATE_SURF_DR     [FORWARD_STEP]":
(PID.TID 0000.0001)           User time:  0.
(PID.TID 0000.0001)         System time:  0.
(PID.TID 0000.0001)     Wall clock time:  0.0215228796
(PID.TID 0000.0001)          No. starts: 20
(PID.TID 0000.0001)           No. stops: 20
(PID.TID 0000.0001)   Seconds in section "UPDATE_CG2D        [FORWARD_STEP]":
(PID.TID 0000.0001)           User time:  0.
(PID.TID 0000.0001)         System time:  0.
(PID.TID 0000.0001)     Wall clock time:  0.
(PID.TID 0000.0001)          No. starts: 1
(PID.TID 0000.0001)           No. stops: 0
(PID.TID 0000.0001)   Seconds in section "SOLVE_FOR_PRESSURE  [FORWARD_STEP]":
(PID.TID 0000.0001)           User time:  0.640001148
(PID.TID 0000.0001)         System time:  0.
(PID.TID 0000.0001)     Wall clock time:  1.091645
(PID.TID 0000.0001)          No. starts: 20
(PID.TID 0000.0001)           No. stops: 20
(PID.TID 0000.0001)   Seconds in section "THE_CORRECTION_STEP [FORWARD_STEP]":
(PID.TID 0000.0001)           User time:  0.399999946
(PID.TID 0000.0001)         System time:  0.00999999046
(PID.TID 0000.0001)     Wall clock time:  0.649988651
(PID.TID 0000.0001)          No. starts: 20
(PID.TID 0000.0001)           No. stops: 20
(PID.TID 0000.0001)   Seconds in section "MONITOR             [FORWARD_STEP]":
(PID.TID 0000.0001)           User time:  0.350000143
(PID.TID 0000.0001)         System time:  0.
(PID.TID 0000.0001)     Wall clock time:  0.42851615
(PID.TID 0000.0001)          No. starts: 20
(PID.TID 0000.0001)           No. stops: 20
(PID.TID 0000.0001)   Seconds in section "DO_THE_MODEL_IO     [FORWARD_STEP]":
(PID.TID 0000.0001)           User time:  0.0399999619
(PID.TID 0000.0001)         System time:  0.390000015
(PID.TID 0000.0001)     Wall clock time:  2.13193798
(PID.TID 0000.0001)          No. starts: 20
(PID.TID 0000.0001)           No. stops: 20
(PID.TID 0000.0001)   Seconds in section "WRITE_CHECKPOINT    [FORWARD_STEP]":
(PID.TID 0000.0001)           User time:  0.
(PID.TID 0000.0001)         System time:  0.
(PID.TID 0000.0001)     Wall clock time:  0.00590717793
(PID.TID 0000.0001)          No. starts: 20
(PID.TID 0000.0001)           No. stops: 20
(PID.TID 0000.0001)   Seconds in section "WRITE_CHECKPOINT       [THE_MODEL_MAIN]":
(PID.TID 0000.0001)           User time:  0.029999733
(PID.TID 0000.0001)         System time:  0.610000014
(PID.TID 0000.0001)     Wall clock time:  11.9992321
(PID.TID 0000.0001)          No. starts: 1
(PID.TID 0000.0001)           No. stops: 1
(PID.TID 0000.0001) // ======================================================
(PID.TID 0000.0001) // Tile <-> Tile communication statistics
(PID.TID 0000.0001) // ======================================================
(PID.TID 0000.0001) // o Tile number: 000001
(PID.TID 0000.0001) //         No. X exchanges =              0
(PID.TID 0000.0001) //            Max. X spins =              0
(PID.TID 0000.0001) //            Min. X spins =     1000000000
(PID.TID 0000.0001) //          Total. X spins =              0
(PID.TID 0000.0001) //            Avg. X spins =       0.00E+00
(PID.TID 0000.0001) //         No. Y exchanges =              0
(PID.TID 0000.0001) //            Max. Y spins =              0
(PID.TID 0000.0001) //            Min. Y spins =     1000000000
(PID.TID 0000.0001) //          Total. Y spins =              0
(PID.TID 0000.0001) //            Avg. Y spins =       0.00E+00
(PID.TID 0000.0001) // o Thread number: 000001
(PID.TID 0000.0001) //            No. barriers =          39522
(PID.TID 0000.0001) //      Max. barrier spins =              1
(PID.TID 0000.0001) //      Min. barrier spins =              1
(PID.TID 0000.0001) //     Total barrier spins =          39522
(PID.TID 0000.0001) //      Avg. barrier spins =       1.00E+00
