(PID.TID 0000.0001) 
(PID.TID 0000.0001) // ======================================================
(PID.TID 0000.0001) //                      MITgcm UV
(PID.TID 0000.0001) //                      =========
(PID.TID 0000.0001) // ======================================================
(PID.TID 0000.0001) // execution environment starting up...
(PID.TID 0000.0001) 
(PID.TID 0000.0001) // MITgcmUV version:  checkpoint57b_post
(PID.TID 0000.0001) // Build user:        jmc
(PID.TID 0000.0001) // Build host:        faulks
(PID.TID 0000.0001) // Build date:        Tue Jan 18 20:41:12 EST 2005
(PID.TID 0000.0001) 
(PID.TID 0000.0001) // =======================================================
(PID.TID 0000.0001) // Execution Environment parameter file "eedata"
(PID.TID 0000.0001) // =======================================================
(PID.TID 0000.0001) ># Example "eedata" file
(PID.TID 0000.0001) ># Lines beginning "#" are comments
(PID.TID 0000.0001) ># nTx - No. threads per process in X
(PID.TID 0000.0001) ># nTy - No. threads per process in Y
(PID.TID 0000.0001) > &EEPARMS
(PID.TID 0000.0001) > nTx=1,nTy=1
(PID.TID 0000.0001) > &
(PID.TID 0000.0001) ># Note: Some systems use & as the
(PID.TID 0000.0001) ># namelist terminator. Other systems
(PID.TID 0000.0001) ># use a / character (as shown here).
(PID.TID 0000.0001) ># BUT some compilers do not understand "/"
(PID.TID 0000.0001) 
(PID.TID 0000.0001) // =======================================================
(PID.TID 0000.0001) // Computational Grid Specification ( see files "SIZE.h" )
(PID.TID 0000.0001) //                                  ( and "eedata"       )
(PID.TID 0000.0001) // =======================================================
(PID.TID 0000.0001)      nPx =    1 ; /* No. processes in X */
(PID.TID 0000.0001)      nPy =    1 ; /* No. processes in Y */
(PID.TID 0000.0001)      nSx =    1 ; /* No. tiles in X per process */
(PID.TID 0000.0001)      nSy =    2 ; /* No. tiles in Y per process */
(PID.TID 0000.0001)      sNx =   90 ; /* Tile size in X */
(PID.TID 0000.0001)      sNy =   20 ; /* Tile size in Y */
(PID.TID 0000.0001)      OLx =    2 ; /* Tile overlap distance in X */
(PID.TID 0000.0001)      OLy =    2 ; /* Tile overlap distance in Y */
(PID.TID 0000.0001)      nTx =    1 ; /* No. threads in X per process */
(PID.TID 0000.0001)      nTy =    1 ; /* No. threads in Y per process */
(PID.TID 0000.0001)       Nr =   15 ; /* No. levels in the vertical   */
(PID.TID 0000.0001)       nX =   90 ; /* Total domain size in X ( = nPx*nSx*sNx ) */
(PID.TID 0000.0001)       nY =   40 ; /* Total domain size in Y ( = nPy*nSy*sNy ) */
(PID.TID 0000.0001)   nTiles =    2 ; /* Total no. tiles per process ( = nSx*nSy ) */
(PID.TID 0000.0001)   nProcs =    1 ; /* Total no. processes ( = nPx*nPy ) */
(PID.TID 0000.0001) nThreads =    1 ; /* Total no. threads per process ( = nTx*nTy ) */
(PID.TID 0000.0001) usingMPI =    F ; /* Flag used to control whether MPI is in use */
(PID.TID 0000.0001)                   /*  note: To execute a program with MPI calls */
(PID.TID 0000.0001)                   /*  it must be launched appropriately e.g     */
(PID.TID 0000.0001)                   /*  "mpirun -np 64 ......"                    */
(PID.TID 0000.0001) useCoupler=   F ; /* Flag used to control communications with */
(PID.TID 0000.0001)                   /*  other model components, through a coupler */
(PID.TID 0000.0001) 
(PID.TID 0000.0001) // ======================================================
(PID.TID 0000.0001) // Mapping of tiles to threads
(PID.TID 0000.0001) // ======================================================
(PID.TID 0000.0001) // -o- Thread   1, tiles (   1:   1,   1:   2)
(PID.TID 0000.0001) 
(PID.TID 0000.0001) // ======================================================
(PID.TID 0000.0001) // Tile <-> Tile connectvity table
(PID.TID 0000.0001) // ======================================================
(PID.TID 0000.0001) // Tile number: 000001 (process no. = 000001)
(PID.TID 0000.0001) //        WEST: Tile = 000001, Process = 000001, Comm = put
(PID.TID 0000.0001) //                bi = 000001, bj = 000001
(PID.TID 0000.0001) //        EAST: Tile = 000001, Process = 000001, Comm = put
(PID.TID 0000.0001) //                bi = 000001, bj = 000001
(PID.TID 0000.0001) //       SOUTH: Tile = 000002, Process = 000001, Comm = put
(PID.TID 0000.0001) //                bi = 000001, bj = 000002
(PID.TID 0000.0001) //       NORTH: Tile = 000002, Process = 000001, Comm = put
(PID.TID 0000.0001) //                bi = 000001, bj = 000002
(PID.TID 0000.0001) // Tile number: 000002 (process no. = 000001)
(PID.TID 0000.0001) //        WEST: Tile = 000002, Process = 000001, Comm = put
(PID.TID 0000.0001) //                bi = 000001, bj = 000002
(PID.TID 0000.0001) //        EAST: Tile = 000002, Process = 000001, Comm = put
(PID.TID 0000.0001) //                bi = 000001, bj = 000002
(PID.TID 0000.0001) //       SOUTH: Tile = 000001, Process = 000001, Comm = put
(PID.TID 0000.0001) //                bi = 000001, bj = 000001
(PID.TID 0000.0001) //       NORTH: Tile = 000001, Process = 000001, Comm = put
(PID.TID 0000.0001) //                bi = 000001, bj = 000001
(PID.TID 0000.0001) 
(PID.TID 0000.0001) // =======================================================
(PID.TID 0000.0001) // Model parameter file "data"
(PID.TID 0000.0001) // =======================================================
(PID.TID 0000.0001) ># ====================
(PID.TID 0000.0001) ># | Model parameters |
(PID.TID 0000.0001) ># ====================
(PID.TID 0000.0001) >#
(PID.TID 0000.0001) ># Continuous equation parameters
(PID.TID 0000.0001) > &PARM01
(PID.TID 0000.0001) > tRef=15*20.,
(PID.TID 0000.0001) > sRef=15*35.,
(PID.TID 0000.0001) > viscAh =3.E5,
(PID.TID 0000.0001) > no_slip_sides=.TRUE.,
(PID.TID 0000.0001) > viscAr =1.721611620915750e5,
(PID.TID 0000.0001) >#viscAz =1.67E-3,
(PID.TID 0000.0001) > no_slip_bottom=.FALSE.,
(PID.TID 0000.0001) > diffKhT=1.E3,
(PID.TID 0000.0001) > diffKrT=5.154525811125000e3,
(PID.TID 0000.0001) >#diffKzT=0.5E-4,
(PID.TID 0000.0001) > diffKhS=1.E3,
(PID.TID 0000.0001) > diffKrS=5.154525811125000e3,
(PID.TID 0000.0001) >#diffKzS=0.5E-4,
(PID.TID 0000.0001) > implicitDiffusion=.TRUE.,
(PID.TID 0000.0001) > ivdc_kappa=1.030905162225000e9,
(PID.TID 0000.0001) >#ivdc_kappa=10.0,
(PID.TID 0000.0001) > gravity=9.81,
(PID.TID 0000.0001) > rhonil=1035.,
(PID.TID 0000.0001) > rhoConstFresh=999.8,
(PID.TID 0000.0001) > buoyancyRelation='OCEANICP',
(PID.TID 0000.0001) > integr_GeoPot=1,
(PID.TID 0000.0001) > eosType='JMD95P',
(PID.TID 0000.0001) > useNHMTerms=.TRUE.,
(PID.TID 0000.0001) > rigidLid=.FALSE.,
(PID.TID 0000.0001) > implicitFreeSurface=.TRUE.,
(PID.TID 0000.0001) > exactConserv=.TRUE.,
(PID.TID 0000.0001) > nonlinFreeSurf=4,
(PID.TID 0000.0001) > hFacInf=0.2,
(PID.TID 0000.0001) > hFacSup=2.0,
(PID.TID 0000.0001) >#useRealFreshWaterFlux=.TRUE.,
(PID.TID 0000.0001) > readBinaryPrec=64,
(PID.TID 0000.0001) > writeBinaryPrec=64,
(PID.TID 0000.0001) > cosPower=0.5,
(PID.TID 0000.0001) > &
(PID.TID 0000.0001) >
(PID.TID 0000.0001) ># Elliptic solver parameters
(PID.TID 0000.0001) > &PARM02
(PID.TID 0000.0001) > cg2dMaxIters=200,
(PID.TID 0000.0001) > cg2dTargetResidual=1.E-9,
(PID.TID 0000.0001) > &
(PID.TID 0000.0001) >
(PID.TID 0000.0001) ># Time stepping parameters
(PID.TID 0000.0001) > &PARM03
(PID.TID 0000.0001) > startTime =           0.,
(PID.TID 0000.0001) > endTime   =     3456000.,
(PID.TID 0000.0001) ># after 100 years of intergration, one gets a reasonable flow field
(PID.TID 0000.0001) >#endTime   = 3110400000.,
(PID.TID 0000.0001) > deltaTmom      =   1200.0,
(PID.TID 0000.0001) > deltaTtracer   = 172800.0,
(PID.TID 0000.0001) > deltaTfreesurf = 172800.0,
(PID.TID 0000.0001) > deltaTClock    = 172800.0,
(PID.TID 0000.0001) > pChkptFreq  = 3110400000.,
(PID.TID 0000.0001) > dumpFreq    = 3110400000.,
(PID.TID 0000.0001) > taveFreq    = 3110400000.,
(PID.TID 0000.0001) > monitorFreq =   1.,
(PID.TID 0000.0001) > periodicExternalForcing=.TRUE.,
(PID.TID 0000.0001) > externForcingPeriod=2592000.,
(PID.TID 0000.0001) > externForcingCycle=31104000.,
(PID.TID 0000.0001) > tauThetaClimRelax=5184000.0,
(PID.TID 0000.0001) > abEps=0.1,
(PID.TID 0000.0001) > &
(PID.TID 0000.0001) >
(PID.TID 0000.0001) ># Gridding parameters
(PID.TID 0000.0001) > &PARM04
(PID.TID 0000.0001) > usingCartesianGrid=.FALSE.,
(PID.TID 0000.0001) > usingSphericalPolarGrid=.TRUE.,
(PID.TID 0000.0001) > dXspacing=4.,
(PID.TID 0000.0001) > dYspacing=4.,
(PID.TID 0000.0001) > Ro_SeaLevel=53023122.566084,
(PID.TID 0000.0001) > groundAtK1=.TRUE.,
(PID.TID 0000.0001) > delR=7103300.720021, 6570548.440790, 6041670.010249,
(PID.TID 0000.0001) >      5516436.666057, 4994602.034410, 4475903.435290,
(PID.TID 0000.0001) >      3960063.245801, 3446790.312651, 2935781.405664,
(PID.TID 0000.0001) >      2426722.705046, 1919291.315988, 1413156.804970,
(PID.TID 0000.0001) >      1008846.750166,  705919.025481,  504089.693499,
(PID.TID 0000.0001) > phiMin=-80.,
(PID.TID 0000.0001) > &
(PID.TID 0000.0001) >
(PID.TID 0000.0001) ># Input datasets
(PID.TID 0000.0001) > &PARM05
(PID.TID 0000.0001) > topoFile       ='topog.bin',
(PID.TID 0000.0001) > pLoadFile      ='deltageopotjmd95.bin',
(PID.TID 0000.0001) > hydrogThetaFile='lev_t.bin',
(PID.TID 0000.0001) > hydrogSaltFile ='lev_s.bin',
(PID.TID 0000.0001) > zonalWindFile  ='trenberth_taux.bin',
(PID.TID 0000.0001) > meridWindFile  ='trenberth_tauy.bin',
(PID.TID 0000.0001) > thetaClimFile  ='lev_sst.bin',
(PID.TID 0000.0001) >#saltClimFile   ='lev_sss.bin',
(PID.TID 0000.0001) > surfQFile      ='shi_qnet.bin',
(PID.TID 0000.0001) > EmPmRFile      ='shi_empmr.bin',
(PID.TID 0000.0001) > &
(PID.TID 0000.0001) 
(PID.TID 0000.0001) S/R INI_PARMS ; starts to read PARM01
(PID.TID 0000.0001) S/R INI_PARMS ; read PARM01 : OK
(PID.TID 0000.0001) S/R INI_PARMS ; starts to read PARM02
(PID.TID 0000.0001) S/R INI_PARMS ; read PARM02 : OK
(PID.TID 0000.0001) S/R INI_PARMS ; starts to read PARM03
(PID.TID 0000.0001) S/R INI_PARMS ; read PARM03 : OK
(PID.TID 0000.0001) S/R INI_PARMS ; starts to read PARM04
(PID.TID 0000.0001) S/R INI_PARMS ; read PARM04 : OK
(PID.TID 0000.0001) S/R INI_PARMS ; starts to read PARM05
(PID.TID 0000.0001) S/R INI_PARMS ; read PARM05 : OK
(PID.TID 0000.0001)  PACKAGES_BOOT: opening data.pkg
(PID.TID 0000.0001)  OPEN_COPY_DATA_FILE: opening file data.pkg
(PID.TID 0000.0001) // =======================================================
(PID.TID 0000.0001) // Parameter file "data.pkg"
(PID.TID 0000.0001) // =======================================================
(PID.TID 0000.0001) ># Packages
(PID.TID 0000.0001) > &PACKAGES
(PID.TID 0000.0001) > &
(PID.TID 0000.0001) 
(PID.TID 0000.0001)  PACKAGES_BOOT: finished reading data.pkg
(PID.TID 0000.0001) %MON XC_max                       =   3.5800000000000E+02
(PID.TID 0000.0001) %MON XC_min                       =   2.0000000000000E+00
(PID.TID 0000.0001) %MON XC_mean                      =   1.8000000000000E+02
(PID.TID 0000.0001) %MON XC_sd                        =   1.0391663325314E+02
(PID.TID 0000.0001) %MON XG_max                       =   3.5600000000000E+02
(PID.TID 0000.0001) %MON XG_min                       =   4.0000000000000E+00
(PID.TID 0000.0001) %MON XG_mean                      =   1.8000000000000E+02
(PID.TID 0000.0001) %MON XG_sd                        =   1.0276186062932E+02
(PID.TID 0000.0001) %MON DXC_max                      =   4.4443898815675E+05
(PID.TID 0000.0001) %MON DXC_min                      =   9.2460385861875E+04
(PID.TID 0000.0001) %MON DXC_mean                     =   3.1372497618153E+05
(PID.TID 0000.0001) %MON DXC_sd                       =   1.1216447457560E+05
(PID.TID 0000.0001) %MON DXF_max                      =   4.4443898815675E+05
(PID.TID 0000.0001) %MON DXF_min                      =   9.2460385861875E+04
(PID.TID 0000.0001) %MON DXF_mean                     =   3.1372497618153E+05
(PID.TID 0000.0001) %MON DXF_sd                       =   1.1216447457560E+05
(PID.TID 0000.0001) %MON DXG_max                      =   4.4470989340816E+05
(PID.TID 0000.0001) %MON DXG_min                      =   7.7223062580781E+04
(PID.TID 0000.0001) %MON DXG_mean                     =   3.1353386340261E+05
(PID.TID 0000.0001) %MON DXG_sd                       =   1.1256651772502E+05
(PID.TID 0000.0001) %MON DXV_max                      =   4.4470989340816E+05
(PID.TID 0000.0001) %MON DXV_min                      =   7.7223062580781E+04
(PID.TID 0000.0001) %MON DXV_mean                     =   3.1353386340261E+05
(PID.TID 0000.0001) %MON DXV_sd                       =   1.1256651772502E+05
(PID.TID 0000.0001) %MON YC_max                       =   7.8000000000000E+01
(PID.TID 0000.0001) %MON YC_min                       =  -7.8000000000000E+01
(PID.TID 0000.0001) %MON YC_mean                      =   0.0000000000000E+00
(PID.TID 0000.0001) %MON YC_sd                        =   4.6173585522461E+01
(PID.TID 0000.0001) %MON YG_max                       =   7.6000000000000E+01
(PID.TID 0000.0001) %MON YG_min                       =  -8.0000000000000E+01
(PID.TID 0000.0001) %MON YG_mean                      =  -2.0512820512821E+00
(PID.TID 0000.0001) %MON YG_sd                        =   4.6760682979564E+01
(PID.TID 0000.0001) %MON DYC_max                      =   4.4470989340816E+05
(PID.TID 0000.0001) %MON DYC_min                      =   4.4470989340816E+05
(PID.TID 0000.0001) %MON DYC_mean                     =   4.4470989340817E+05
(PID.TID 0000.0001) %MON DYC_sd                       =   1.4668330550194E-08
(PID.TID 0000.0001) %MON DYF_max                      =   4.4470989340816E+05
(PID.TID 0000.0001) %MON DYF_min                      =   4.4470989340816E+05
(PID.TID 0000.0001) %MON DYF_mean                     =   4.4470989340817E+05
(PID.TID 0000.0001) %MON DYF_sd                       =   1.4668330550194E-08
(PID.TID 0000.0001) %MON DYG_max                      =   4.4470989340816E+05
(PID.TID 0000.0001) %MON DYG_min                      =   4.4470989340816E+05
(PID.TID 0000.0001) %MON DYG_mean                     =   4.4470989340817E+05
(PID.TID 0000.0001) %MON DYG_sd                       =   1.4668330550194E-08
(PID.TID 0000.0001) %MON DYU_max                      =   4.4470989340816E+05
(PID.TID 0000.0001) %MON DYU_min                      =   4.4470989340816E+05
(PID.TID 0000.0001) %MON DYU_mean                     =   4.4470989340817E+05
(PID.TID 0000.0001) %MON DYU_sd                       =   1.4668330550194E-08
(PID.TID 0000.0001) %MON RA_max                       =   1.9760627980089E+11
(PID.TID 0000.0001) %MON RA_min                       =   4.1109698667290E+10
(PID.TID 0000.0001) %MON RA_mean                      =   1.3948826965196E+11
(PID.TID 0000.0001) %MON RA_sd                        =   4.9870522472901E+10
(PID.TID 0000.0001) %MON RAW_max                      =   1.9760627980089E+11
(PID.TID 0000.0001) %MON RAW_min                      =   4.1109698667290E+10
(PID.TID 0000.0001) %MON RAW_mean                     =   1.3948826965196E+11
(PID.TID 0000.0001) %MON RAW_sd                       =   4.9870522472901E+10
(PID.TID 0000.0001) %MON RAS_max                      =   1.9772672958215E+11
(PID.TID 0000.0001) %MON RAS_min                      =   3.4334886267982E+10
(PID.TID 0000.0001) %MON RAS_mean                     =   1.3940329716694E+11
(PID.TID 0000.0001) %MON RAS_sd                       =   5.0049278732353E+10
(PID.TID 0000.0001) %MON RAZ_max                      =   1.9772672958215E+11
(PID.TID 0000.0001) %MON RAZ_min                      =   3.4334886267982E+10
(PID.TID 0000.0001) %MON RAZ_mean                     =   1.3940329716694E+11
(PID.TID 0000.0001) %MON RAZ_sd                       =   5.0049278732353E+10
(PID.TID 0000.0001)  MDSREADFIELD: opening global file: topog.bin
(PID.TID 0000.0001) // =======================================================
(PID.TID 0000.0001) // Field Model R_low (ini_masks_etc) at iteration          1
(PID.TID 0000.0001) // CMIN =          1.008622348308563E-06
(PID.TID 0000.0001) // CMAX =          1.008622348308563E-06
(PID.TID 0000.0001) // CINT =          0.000000000000000E+00
(PID.TID 0000.0001) // SYMBOLS (CMIN->CMAX): -abcdefghijklmnopqrstuvwxyz+
(PID.TID 0000.0001) //                  0.0: .
(PID.TID 0000.0001) // RANGE I (Lo:Hi:Step):(  -1:  92:   1)
(PID.TID 0000.0001) // RANGE J (Lo:Hi:Step):(  42:  -1:  -1)
(PID.TID 0000.0001) // RANGE K (Lo:Hi:Step):(   1:   1:   1)
(PID.TID 0000.0001) // =======================================================
(PID.TID 0000.0001) // =======================================================
(PID.TID 0000.0001) // END OF FIELD                                          =
(PID.TID 0000.0001) // =======================================================
(PID.TID 0000.0001) 
(PID.TID 0000.0001) // =======================================================
(PID.TID 0000.0001) // Field Model Ro_surf (ini_masks_etc) at iteration          1
(PID.TID 0000.0001) // CMIN =          1.008622348308563E-06
(PID.TID 0000.0001) // CMAX =          5.302312256608400E+07
(PID.TID 0000.0001) // CINT =          1.963819354299370E+06
(PID.TID 0000.0001) // SYMBOLS (CMIN->CMAX): -abcdefghijklmnopqrstuvwxyz+
(PID.TID 0000.0001) //                  0.0: .
(PID.TID 0000.0001) // RANGE I (Lo:Hi:Step):(  -1:  92:   1)
(PID.TID 0000.0001) // RANGE J (Lo:Hi:Step):(  42:  -1:  -1)
(PID.TID 0000.0001) // RANGE K (Lo:Hi:Step):(   1:   1:   1)
(PID.TID 0000.0001) // =======================================================
(PID.TID 0000.0001) K =   1
(PID.TID 0000.0001) //                I=8       I=18      I=28      I=38      I=48      I=58      I=68      I=78      I=88
(PID.TID 0000.0001) // |--J--|*01234567|901234567|901234567|901234567|901234567|901234567|901234567|901234567|901234567|9012
(PID.TID 0000.0001) //     42 --------------------------------------------bbcdnttwwwttttqnnlfddc--abcc-----ccbcltttttba-----
(PID.TID 0000.0001) //     41 ----------------------------------------------------------------------------------------------
(PID.TID 0000.0001) //     40 innllaa-aaaaaaaaaaaaa------------------------------------------------------------------aaainnl
(PID.TID 0000.0001) //     39 gnnllibbaaaaaaaa---aa-----------------------------------------------------bdda--------abffgnnl
(PID.TID 0000.0001) //     38 nllllibbaaaaaaa-----------------------------------------------------------bddca------bccfgnlll
(PID.TID 0000.0001) //     37 nnnga------------------------------------------------------------------aa---bca---bggc--agnnng
(PID.TID 0000.0001) //     36 fgga-----------------------------------------nnaa--------------------aaaaaaabnnn-bllfggffcfgga
(PID.TID 0000.0001) //     35 aaaa---------------------------------aaaa--iinnqqa---atttn-----------aaa----annqqqnglllgddaaaa
(PID.TID 0000.0001) //     34 -------------------------------------affc-tticcfab-wwwttttn------------------anqttqqqtttna----
(PID.TID 0000.0001) //     33 a-------------------------------------ffa+++t+++++++++wwwtqna-----------------aifwwtnttttda---
(PID.TID 0000.0001) //     32 a-------------------------------------ag++++t++++++++++wwttnn----------------aaatwttqltttna---
(PID.TID 0000.0001) //     31 --------------------------------------++++++w++++++++++wwwtqn--------------iw++twwwtiltwwn----
(PID.TID 0000.0001) //     30 -------------------------------------t++++w++w+++++++++++++ww------------at++++twwwlgqtwwq----
(PID.TID 0000.0001) //     29 -----------------------------------gf++++t+++tqt+++++++++++wwt-----------w++w+++wtnqq++wtq----
(PID.TID 0000.0001) //     28 ---------------------------------actn+++++++++++++++++++wwwwwtq---------iw++++++wntww++wqa----
(PID.TID 0000.0001) //     27 ----------------cc--------------aftttlt++++++++w+nnw+++wwwwwwttt---aaac-iw++++++qt+++++t------
(PID.TID 0000.0001) //     26 ----------------cnn-----------afw+++wl+++++++++++qwtn++++++wwtttqg-aa-ii-c++++++tw++++wq------
(PID.TID 0000.0001) //     25 ----------------qttq---lla---atfw+++wl+++ww++qqtnt+++++++++wwtttqnn---iifnac+++wqw++wwqq------
(PID.TID 0000.0001) //     24 --------------cntwwtg-qqqa---ftt-++twn+++++++++++++++++++wwwwwttqnqqqf-afnnddwwwtw++++wt------
(PID.TID 0000.0001) //     23 --------------dttwwtl-ttqd---fff--tqtq++++ttw+++++w++++++wwwwwttqqqqqql----bbqwwwt++++ww------
(PID.TID 0000.0001) //     22 gii-----------wwwqttgnttqq---bb-dlqwwlltwwwwt++++++wt+w++wwwwwwtttqqqqii------dwwwttwwtwwigii-
(PID.TID 0000.0001) //     21 ++wqi--------nwwwwqtiwwwqqb-----dltwwqtttnwwt++++++wqwwwwwwwwwttttqnnill--------twwtqttwww++wq
(PID.TID 0000.0001) //     20 ++wwi-------nwwwwwtqwwwwqww------b-fqqqgiltttt+++++++wwwwwwwwwwtttqttqqn---------ntt+++ttw++ww
(PID.TID 0000.0001) //     19 ww++t-------qwwlittl+++qwwwwd---aba-----iannww++++t++++wwwwwwwwttqtttttt-----------w+++wqtww++
(PID.TID 0000.0001) //     22 gii-----------wwwqttgnttqq---bb-dlqwwlltwwwwt++++++wt+w++wwwwwwtttqqqqii------dwwwttwwtwwigii-
(PID.TID 0000.0001) //     21 ++wqi--------nwwwwqtiwwwqqb-----dltwwqtttnwwt++++++wqwwwwwwwwwttttqnnill--------twwtqttwww++wq
(PID.TID 0000.0001) //     20 ++wwi-------nwwwwwtqwwwwqww------b-fqqqgiltttt+++++++wwwwwwwwwwtttqttqqn---------ntt+++ttw++ww
(PID.TID 0000.0001) //     19 ww++t-------qwwlittl+++qwwwwd---aba-----iannww++++t++++wwwwwwwwttqtttttt-----------w+++wqtww++
(PID.TID 0000.0001) //     18 w+++w-------qtnttfqq+++qwww++w+qfaa---iiblntwwwwtwtq+++wwtwwwwwtqtttttwwa----------w+++wqtw+++
(PID.TID 0000.0001) //     17 w+++w-------q-twwdqt+++l+++++++qf-----iilnninnnltwww++wwwttttttnqttqtwwwq---------tw+++wqtw+++
(PID.TID 0000.0001) //     16 w+++w------gn-wwtnntw++i++++++nf-------flnnfnnndf+++wwqflnttttqntttttwwwqt--------it+++wqtw+++
(PID.TID 0000.0001) //     15 w++wlb----aqq-wwwttnwwwnw+++++f---------lggdllnf++++wwwwwtqtttqqtttttwwqttt------atw+++wqtw++w
(PID.TID 0000.0001) //     14 w++nwn----dwwi+++tqqqtwnw++w+tb---------ttgglttg++++++wwtwttqqqnqttqqqqtttt-----aqtw+++wntw++n
(PID.TID 0000.0001) //     13 wwn++t----nwwl+++qwwtqttliiw++n---------wwggittg++++++++wwwtttqqnqqttqttttl----aqttlwwwtntwwn+
(PID.TID 0000.0001) //     12 tt+++wdaqttwwnwntwwwtntqttww++wt+++a----wwigiilw+++++++++wwqtttqqqqqtttttt-----qwwwwttttnttt++
(PID.TID 0000.0001) //     11 tw+++w++qtwwwnnt++wwtlttttwww++++++++--wwwwng-nw+w+++++++++wwwtqntttqqtttt----n+++++wwtqnqtw++
(PID.TID 0000.0001) //     10 tw++ww+w++wtiqqt++wwtqnnnqttwwww+++++w-wwwwtd-nbiw+++++++++wwwtqnttwwttqtq--ad++++++wwttnqtw++
(PID.TID 0000.0001) //      9 ttwwwww+++llglntwtwtqqqttnnnttwwwwwwwwnwwwwt-fbt+++++++++++wwwtnqttwwwttqf-aad++++++wwwtqnttww
(PID.TID 0000.0001) //      8 tttqqqw++twwttwwwwfblqttttttnqqqttqqqtwtwwticfw++++++wwwwwwwttqnttwwwwwwta-aacttn++wtwwwtntttq
(PID.TID 0000.0001) //      7 ninnwwqqt++wnw++wwtgcqtwwwttwwwwwwwttnttwwntw++++++wwwwtttqtqnnttwww+++wwt-aaaintgfqtqwwwtninn
(PID.TID 0000.0001) //      6 w++++++++++++++++wwwnggwwwwwwwwwwwwwwtqqqqttw++++wwwtqnnqnwtww+++w+w+++wwwtqqqqtilnniwtqtww+++
(PID.TID 0000.0001) //      5 +++++++++++++++++wwwttttwwwwwwwwwwwwwtqqqlnlwwwwtttnnnqtwwww++++++++w+wwwwtqqqgitwwwwww+++++++
(PID.TID 0000.0001) //      4 ++tw++++++wwwqttttqqqttqqlbdnnllqqlnqqqqqnnnlnqlnnntttwwwwww+++++++wwwwwttnb--cqtwwwwww+++++tw
(PID.TID 0000.0001) //      3 ttttilqqqdcc----------------------------cclgnqqqqttwwwwwwwwwtttttwwwwttqqbb--ciqtwwwwwwwwttttt
(PID.TID 0000.0001) //      2 --------------------------------------------bbcdnttwwwttttqnnlfddc--abcc-----ccbcltttttba-----
(PID.TID 0000.0001) //      1 ----------------------------------------------------------------------------------------------
(PID.TID 0000.0001) //      0 innllaa-aaaaaaaaaaaaa------------------------------------------------------------------aaainnl
(PID.TID 0000.0001) //     -1 gnnllibbaaaaaaaa---aa-----------------------------------------------------bdda--------abffgnnl
(PID.TID 0000.0001) // =======================================================
(PID.TID 0000.0001) // END OF FIELD                                          =
(PID.TID 0000.0001) // =======================================================
(PID.TID 0000.0001) 
(PID.TID 0000.0001) // =======================================================
(PID.TID 0000.0001) // Field hFacC at iteration          1
(PID.TID 0000.0001) // CMIN =          1.000000000000000E+00
(PID.TID 0000.0001) // CMAX =          1.000000000000000E+00
(PID.TID 0000.0001) // CINT =          0.000000000000000E+00
(PID.TID 0000.0001) // SYMBOLS (CMIN->CMAX): -abcdefghijklmnopqrstuvwxyz+
(PID.TID 0000.0001) //                  0.0: .
(PID.TID 0000.0001) // RANGE I (Lo:Hi:Step):(  -1:  92:   1)
(PID.TID 0000.0001) // RANGE J (Lo:Hi:Step):(  42:  -1:  -1)
(PID.TID 0000.0001) // RANGE K (Lo:Hi:Step):(   1:   1:   1)
(PID.TID 0000.0001) // =======================================================
(PID.TID 0000.0001) // =======================================================
(PID.TID 0000.0001) // END OF FIELD                                          =
(PID.TID 0000.0001) // =======================================================
(PID.TID 0000.0001) 
(PID.TID 0000.0001) // =======================================================
(PID.TID 0000.0001) // Field hFacW at iteration          1
(PID.TID 0000.0001) // CMIN =          1.000000000000000E+00
(PID.TID 0000.0001) // CMAX =          1.000000000000000E+00
(PID.TID 0000.0001) // CINT =          0.000000000000000E+00
(PID.TID 0000.0001) // SYMBOLS (CMIN->CMAX): -abcdefghijklmnopqrstuvwxyz+
(PID.TID 0000.0001) //                  0.0: .
(PID.TID 0000.0001) // RANGE I (Lo:Hi:Step):(  -1:  92:   1)
(PID.TID 0000.0001) // RANGE J (Lo:Hi:Step):(  42:  -1:  -1)
(PID.TID 0000.0001) // RANGE K (Lo:Hi:Step):(   1:   1:   1)
(PID.TID 0000.0001) // =======================================================
(PID.TID 0000.0001) // =======================================================
(PID.TID 0000.0001) // END OF FIELD                                          =
(PID.TID 0000.0001) // =======================================================
(PID.TID 0000.0001) 
(PID.TID 0000.0001) // =======================================================
(PID.TID 0000.0001) // Field hFacS at iteration          1
(PID.TID 0000.0001) // CMIN =          1.000000000000000E+00
(PID.TID 0000.0001) // CMAX =          1.000000000000000E+00
(PID.TID 0000.0001) // CINT =          0.000000000000000E+00
(PID.TID 0000.0001) // SYMBOLS (CMIN->CMAX): -abcdefghijklmnopqrstuvwxyz+
(PID.TID 0000.0001) //                  0.0: .
(PID.TID 0000.0001) // RANGE I (Lo:Hi:Step):(  -1:  92:   1)
(PID.TID 0000.0001) // RANGE J (Lo:Hi:Step):(  42:  -1:  -1)
(PID.TID 0000.0001) // RANGE K (Lo:Hi:Step):(   1:   1:   1)
(PID.TID 0000.0001) // =======================================================
(PID.TID 0000.0001) // =======================================================
(PID.TID 0000.0001) // END OF FIELD                                          =
(PID.TID 0000.0001) // =======================================================
(PID.TID 0000.0001) 
(PID.TID 0000.0001) 
(PID.TID 0000.0001) // ===================================
(PID.TID 0000.0001) // GAD parameters :
(PID.TID 0000.0001) // ===================================
(PID.TID 0000.0001) tempAdvScheme =   /* Temp. Horiz.Advection scheme selector */
(PID.TID 0000.0001)                       2
(PID.TID 0000.0001)     ;
(PID.TID 0000.0001) tempVertAdvScheme =   /* Temp. Vert. Advection scheme selector */
(PID.TID 0000.0001)                       2
(PID.TID 0000.0001)     ;
(PID.TID 0000.0001) tempMultiDimAdvec =   /* use Muti-Dim Advec method for Temp */
(PID.TID 0000.0001)                   F
(PID.TID 0000.0001)     ;
(PID.TID 0000.0001) tempAdamsBashforth =   /* use Adams-Bashforth time-stepping for Temp */
(PID.TID 0000.0001)                   T
(PID.TID 0000.0001)     ;
(PID.TID 0000.0001) saltAdvScheme =   /* Salt. Horiz.advection scheme selector */
(PID.TID 0000.0001)                       2
(PID.TID 0000.0001)     ;
(PID.TID 0000.0001) saltVertAdvScheme =   /* Salt. Vert. Advection scheme selector */
(PID.TID 0000.0001)                       2
(PID.TID 0000.0001)     ;
(PID.TID 0000.0001) saltMultiDimAdvec =   /* use Muti-Dim Advec method for Salt */
(PID.TID 0000.0001)                   F
(PID.TID 0000.0001)     ;
(PID.TID 0000.0001) saltAdamsBashforth =   /* use Adams-Bashforth time-stepping for Salt */
(PID.TID 0000.0001)                   T
(PID.TID 0000.0001)     ;
(PID.TID 0000.0001) // ===================================
(PID.TID 0000.0001) %MON fCori_max                    =   1.4226580169407E-04
(PID.TID 0000.0001) %MON fCori_min                    =  -1.4226580169407E-04
(PID.TID 0000.0001) %MON fCori_mean                   =  -2.6213599192538E-19
(PID.TID 0000.0001) %MON fCori_sd                     =   9.6335367303779E-05
(PID.TID 0000.0001) %MON fCoriG_max                   =   1.4112379284621E-04
(PID.TID 0000.0001) %MON fCoriG_min                   =  -1.4323448157692E-04
(PID.TID 0000.0001) %MON fCoriG_mean                  =  -3.6726790147922E-06
(PID.TID 0000.0001) %MON fCoriG_sd                    =   9.7510077443651E-05
(PID.TID 0000.0001) %MON fCoriCos_max                 =   1.4535550371427E-04
(PID.TID 0000.0001) %MON fCoriCos_min                 =   3.0239529651320E-05
(PID.TID 0000.0001) %MON fCoriCos_mean                =   1.0260497651149E-04
(PID.TID 0000.0001) %MON fCoriCos_sd                  =   3.6683828681187E-05
(PID.TID 0000.0001) // CG2D normalisation factor =          0.6002578945994698667540502E-08
(PID.TID 0000.0001) 
(PID.TID 0000.0001) CONFIG_CHECK: OK
(PID.TID 0000.0001) // =======================================================
(PID.TID 0000.0001) // Model configuration
(PID.TID 0000.0001) // =======================================================
(PID.TID 0000.0001) //
(PID.TID 0000.0001) // "Physical" paramters ( PARM01 in namelist )
(PID.TID 0000.0001) //
(PID.TID 0000.0001) buoyancyRelation = OCEANICP
(PID.TID 0000.0001) fluidIsAir  =  /* fluid major constituent is Air */
(PID.TID 0000.0001)                   F
(PID.TID 0000.0001)     ;
(PID.TID 0000.0001) fluidIsWater=  /* fuild major constituent is Water */
(PID.TID 0000.0001)                   T
(PID.TID 0000.0001)     ;
(PID.TID 0000.0001) usingPCoords =  /* use p (or p*) vertical coordinate */
(PID.TID 0000.0001)                   T
(PID.TID 0000.0001)     ;
(PID.TID 0000.0001) usingZCoords =  /* use z (or z*) vertical coordinate */
(PID.TID 0000.0001)                   F
(PID.TID 0000.0001)     ;
(PID.TID 0000.0001) tRef =   /* Reference temperature profile ( oC or oK ) */
(PID.TID 0000.0001)    15 @  2.000000000000000E+01              /* K =  1: 15 */
(PID.TID 0000.0001)     ;
(PID.TID 0000.0001) sRef =   /* Reference salinity profile ( ppt ) */
(PID.TID 0000.0001)    15 @  3.500000000000000E+01              /* K =  1: 15 */
(PID.TID 0000.0001)     ;
(PID.TID 0000.0001) viscAh =   /* Lateral eddy viscosity ( m^2/s ) */
(PID.TID 0000.0001)                 3.000000000000000E+05
(PID.TID 0000.0001)     ;
(PID.TID 0000.0001) viscAhMax =   /* Maximum lateral eddy viscosity ( m^2/s ) */
(PID.TID 0000.0001)                 1.000000000000000E+21
(PID.TID 0000.0001)     ;
(PID.TID 0000.0001) viscAhGrid =   /* Grid dependent lateral eddy viscosity ( non-dim. ) */
(PID.TID 0000.0001)                 0.000000000000000E+00
(PID.TID 0000.0001)     ;
(PID.TID 0000.0001) viscC2leith =   /* Leith harmonic viscosity factor ( non-dom. ) */
(PID.TID 0000.0001)                 0.000000000000000E+00
(PID.TID 0000.0001)     ;
(PID.TID 0000.0001) viscA4 =   /* Lateral biharmonic viscosity ( m^4/s ) */
(PID.TID 0000.0001)                 0.000000000000000E+00
(PID.TID 0000.0001)     ;
(PID.TID 0000.0001) viscA4Max =   /* Maximum biharmonic viscosity ( m^2/s ) */
(PID.TID 0000.0001)                 1.000000000000000E+21
(PID.TID 0000.0001)     ;
(PID.TID 0000.0001) viscA4Grid =   /* Grid dependent biharmonic viscosity ( non-dim. ) */
(PID.TID 0000.0001)                 0.000000000000000E+00
(PID.TID 0000.0001)     ;
(PID.TID 0000.0001) viscC4leith =   /* Leith biharmonic viscosity factor ( non-dom. ) */
(PID.TID 0000.0001)                 0.000000000000000E+00
(PID.TID 0000.0001)     ;
(PID.TID 0000.0001) no_slip_sides =  /* Viscous BCs: No-slip sides */
(PID.TID 0000.0001)                   T
(PID.TID 0000.0001)     ;
(PID.TID 0000.0001) viscAr =   /* Vertical eddy viscosity ( units of r^2/s ) */
(PID.TID 0000.0001)                 1.721611620915750E+05
(PID.TID 0000.0001)     ;
(PID.TID 0000.0001) no_slip_bottom =  /* Viscous BCs: No-slip bottom */
(PID.TID 0000.0001)                   F
(PID.TID 0000.0001)     ;
(PID.TID 0000.0001) diffKhT =   /* Laplacian diffusion of heat laterally ( m^2/s ) */
(PID.TID 0000.0001)                 1.000000000000000E+03
(PID.TID 0000.0001)     ;
(PID.TID 0000.0001) diffK4T =   /* Bihaarmonic diffusion of heat laterally ( m^4/s ) */
(PID.TID 0000.0001)                 0.000000000000000E+00
(PID.TID 0000.0001)     ;
(PID.TID 0000.0001) diffKhS =   /* Laplacian diffusion of salt laterally ( m^2/s ) */
(PID.TID 0000.0001)                 1.000000000000000E+03
(PID.TID 0000.0001)     ;
(PID.TID 0000.0001) diffK4S =   /* Bihaarmonic diffusion of salt laterally ( m^4/s ) */
(PID.TID 0000.0001)                 0.000000000000000E+00
(PID.TID 0000.0001)     ;
(PID.TID 0000.0001) diffKrNrT = /* vertical profile of vertical diffusion of Temp ( m^2/s )*/
(PID.TID 0000.0001)    15 @  5.154525811125000E+03              /* K =  1: 15 */
(PID.TID 0000.0001)     ;
(PID.TID 0000.0001) diffKrNrS = /* vertical profile of vertical diffusion of Salt ( m^2/s )*/
(PID.TID 0000.0001)    15 @  5.154525811125000E+03              /* K =  1: 15 */
(PID.TID 0000.0001)     ;
(PID.TID 0000.0001) diffKrBL79surf =   /* Surface diffusion for Bryan and Lewis 1979 ( m^2/s ) */
(PID.TID 0000.0001)                 0.000000000000000E+00
(PID.TID 0000.0001)     ;
(PID.TID 0000.0001) diffKrBL79deep =   /* Deep diffusion for Bryan and Lewis 1979 ( m^2/s ) */
(PID.TID 0000.0001)                 0.000000000000000E+00
(PID.TID 0000.0001)     ;
(PID.TID 0000.0001) diffKrBL79scl =   /* Depth scale for Bryan and Lewis 1979 ( m ) */
(PID.TID 0000.0001)                 2.000000000000000E+02
(PID.TID 0000.0001)     ;
(PID.TID 0000.0001) diffKrBL79Ho =   /* Turning depth for Bryan and Lewis 1979 ( m ) */
(PID.TID 0000.0001)                -2.000000000000000E+03
(PID.TID 0000.0001)     ;
(PID.TID 0000.0001)  Equation of State : eosType = JMD95P
(PID.TID 0000.0001) tAlpha =   /* Linear EOS thermal expansion coefficient ( 1/degree ) */
(PID.TID 0000.0001)                 1.234567000000000E+05
(PID.TID 0000.0001)     ;
(PID.TID 0000.0001) sBeta =   /* Linear EOS haline contraction coefficient ( 1/ppt ) */
(PID.TID 0000.0001)                 1.234567000000000E+05
(PID.TID 0000.0001)     ;
(PID.TID 0000.0001) rhonil =   /* Reference density ( kg/m^3 ) */
(PID.TID 0000.0001)                 1.035000000000000E+03
(PID.TID 0000.0001)     ;
(PID.TID 0000.0001) rhoConst =   /* Reference density ( kg/m^3 ) */
(PID.TID 0000.0001)                 1.035000000000000E+03
(PID.TID 0000.0001)     ;
(PID.TID 0000.0001) rhoConstFresh =   /* Reference density ( kg/m^3 ) */
(PID.TID 0000.0001)                 9.998000000000000E+02
(PID.TID 0000.0001)     ;
(PID.TID 0000.0001) gravity =   /* Gravitational acceleration ( m/s^2 ) */
(PID.TID 0000.0001)                 9.810000000000000E+00
(PID.TID 0000.0001)     ;
(PID.TID 0000.0001) gBaro =   /* Barotropic gravity ( m/s^2 ) */
(PID.TID 0000.0001)                 9.810000000000000E+00
(PID.TID 0000.0001)     ;
(PID.TID 0000.0001) rotationPeriod =   /* Rotation Period ( s ) */
(PID.TID 0000.0001)                 8.640000000000000E+04
(PID.TID 0000.0001)     ;
(PID.TID 0000.0001) omega =   /* Angular velocity ( rad/s ) */
(PID.TID 0000.0001)                 7.272205216643040E-05
(PID.TID 0000.0001)     ;
(PID.TID 0000.0001) f0 =   /* Reference coriolis parameter ( 1/s ) */
(PID.TID 0000.0001)                 1.000000000000000E-04
(PID.TID 0000.0001)     ;
(PID.TID 0000.0001) beta =   /* Beta ( 1/(m.s) ) */
(PID.TID 0000.0001)                 9.999999999999999E-12
(PID.TID 0000.0001)     ;
(PID.TID 0000.0001) freeSurfFac =   /* Implicit free surface factor */
(PID.TID 0000.0001)                 1.000000000000000E+00
(PID.TID 0000.0001)     ;
(PID.TID 0000.0001) implicitFreeSurface =   /* Implicit free surface on/off flag */
(PID.TID 0000.0001)                   T
(PID.TID 0000.0001)     ;
(PID.TID 0000.0001) rigidLid =   /* Rigid lid on/off flag */
(PID.TID 0000.0001)                   F
(PID.TID 0000.0001)     ;
(PID.TID 0000.0001) implicSurfPress =   /* Surface Pressure implicit factor (0-1)*/
(PID.TID 0000.0001)                 1.000000000000000E+00
(PID.TID 0000.0001)     ;
(PID.TID 0000.0001) implicDiv2Dflow =   /* Barot. Flow Div. implicit factor (0-1)*/
(PID.TID 0000.0001)                 1.000000000000000E+00
(PID.TID 0000.0001)     ;
(PID.TID 0000.0001) exactConserv =   /* Exact Volume Conservation on/off flag*/
(PID.TID 0000.0001)                   T
(PID.TID 0000.0001)     ;
(PID.TID 0000.0001) uniformLin_PhiSurf =   /* use uniform Bo_surf on/off flag*/
(PID.TID 0000.0001)                   T
(PID.TID 0000.0001)     ;
(PID.TID 0000.0001) nonlinFreeSurf =   /* Non-linear Free Surf. options (-1,0,1,2,3)*/
(PID.TID 0000.0001)                       4
(PID.TID 0000.0001)     ;
(PID.TID 0000.0001)      -1,0= Off ; 1,2,3= On, 2=+rescale gU,gV, 3=+update cg2d solv.
(PID.TID 0000.0001) hFacInf =   /* lower threshold for hFac (nonlinFreeSurf only)*/
(PID.TID 0000.0001)                 2.000000000000000E-01
(PID.TID 0000.0001)     ;
(PID.TID 0000.0001) hFacSup =   /* upper threshold for hFac (nonlinFreeSurf only)*/
(PID.TID 0000.0001)                 2.000000000000000E+00
(PID.TID 0000.0001)     ;
(PID.TID 0000.0001) select_rStar =   /* r* Coordinate options (not yet implemented)*/
(PID.TID 0000.0001)                       0
(PID.TID 0000.0001)     ;
(PID.TID 0000.0001) useRealFreshWaterFlux =   /* Real Fresh Water Flux on/off flag*/
(PID.TID 0000.0001)                   F
(PID.TID 0000.0001)     ;
(PID.TID 0000.0001) convertFW2Salt = /* convert F.W. Flux to Salt Flux (-1=use local S)(ppt)*/
(PID.TID 0000.0001)                 3.500000000000000E+01
(PID.TID 0000.0001)     ;
(PID.TID 0000.0001) nonHydrostatic =  /* Non-Hydrostatic on/off flag */
(PID.TID 0000.0001)                   F
(PID.TID 0000.0001)     ;
(PID.TID 0000.0001) momStepping =  /* Momentum equation on/off flag */
(PID.TID 0000.0001)                   T
(PID.TID 0000.0001)     ;
(PID.TID 0000.0001) momAdvection =  /* Momentum advection on/off flag */
(PID.TID 0000.0001)                   T
(PID.TID 0000.0001)     ;
(PID.TID 0000.0001) momViscosity =  /* Momentum viscosity on/off flag */
(PID.TID 0000.0001)                   T
(PID.TID 0000.0001)     ;
(PID.TID 0000.0001) momImplVertAdv =/* Momentum implicit vert. advection on/off*/
(PID.TID 0000.0001)                   F
(PID.TID 0000.0001)     ;
(PID.TID 0000.0001) implicitViscosity = /* Implicit viscosity on/off flag */
(PID.TID 0000.0001)                   F
(PID.TID 0000.0001)     ;
(PID.TID 0000.0001) useCoriolis =  /* Coriolis on/off flag */
(PID.TID 0000.0001)                   T
(PID.TID 0000.0001)     ;
(PID.TID 0000.0001) useCDscheme =  /* CD scheme on/off flag */
(PID.TID 0000.0001)                   F
(PID.TID 0000.0001)     ;
(PID.TID 0000.0001) useJamartWetPoints= /* Coriolis WetPoints method flag */
(PID.TID 0000.0001)                   F
(PID.TID 0000.0001)     ;
(PID.TID 0000.0001) useJamartMomAdv= /* V.I. Non-linear terms Jamart flag */
(PID.TID 0000.0001)                   F
(PID.TID 0000.0001)     ;
(PID.TID 0000.0001) SadournyCoriolis= /* Sadourny Coriolis discr. flag */
(PID.TID 0000.0001)                   F
(PID.TID 0000.0001)     ;
(PID.TID 0000.0001) upwindVorticity= /* Upwind bias vorticity flag */
(PID.TID 0000.0001)                   F
(PID.TID 0000.0001)     ;
(PID.TID 0000.0001) useAbsVorticity= /* Work with f+zeta in Coriolis */
(PID.TID 0000.0001)                   F
(PID.TID 0000.0001)     ;
(PID.TID 0000.0001) highOrderVorticity= /* High order interp. of vort. flag */
(PID.TID 0000.0001)                   F
(PID.TID 0000.0001)     ;
(PID.TID 0000.0001) momForcing =  /* Momentum forcing on/off flag */
(PID.TID 0000.0001)                   T
(PID.TID 0000.0001)     ;
(PID.TID 0000.0001) momPressureForcing =  /* Momentum pressure term on/off flag */
(PID.TID 0000.0001)                   T
(PID.TID 0000.0001)     ;
(PID.TID 0000.0001) staggerTimeStep =   /* Stagger time stepping on/off flag */
(PID.TID 0000.0001)                   F
(PID.TID 0000.0001)     ;
(PID.TID 0000.0001) multiDimAdvection =   /* enable/disable Multi-Dim Advection */
(PID.TID 0000.0001)                   T
(PID.TID 0000.0001)     ;
(PID.TID 0000.0001) useMultiDimAdvec =   /* Multi-Dim Advection is/is-not used */
(PID.TID 0000.0001)                   F
(PID.TID 0000.0001)     ;
(PID.TID 0000.0001) implicitDiffusion =/* Implicit Diffusion on/off flag */
(PID.TID 0000.0001)                   T
(PID.TID 0000.0001)     ;
(PID.TID 0000.0001) tempStepping =  /* Temperature equation on/off flag */
(PID.TID 0000.0001)                   T
(PID.TID 0000.0001)     ;
(PID.TID 0000.0001) tempAdvection=  /* Temperature advection on/off flag */
(PID.TID 0000.0001)                   T
(PID.TID 0000.0001)     ;
(PID.TID 0000.0001) tempImplVertAdv =/* Temp. implicit vert. advection on/off */
(PID.TID 0000.0001)                   F
(PID.TID 0000.0001)     ;
(PID.TID 0000.0001) tempForcing  =  /* Temperature forcing on/off flag */
(PID.TID 0000.0001)                   T
(PID.TID 0000.0001)     ;
(PID.TID 0000.0001) saltStepping =  /* Salinity equation on/off flag */
(PID.TID 0000.0001)                   T
(PID.TID 0000.0001)     ;
(PID.TID 0000.0001) saltAdvection=  /* Salinity advection on/off flag */
(PID.TID 0000.0001)                   T
(PID.TID 0000.0001)     ;
(PID.TID 0000.0001) saltImplVertAdv =/* Sali. implicit vert. advection on/off */
(PID.TID 0000.0001)                   F
(PID.TID 0000.0001)     ;
(PID.TID 0000.0001) saltForcing  =  /* Salinity forcing on/off flag */
(PID.TID 0000.0001)                   T
(PID.TID 0000.0001)     ;
(PID.TID 0000.0001) //
(PID.TID 0000.0001) // Elliptic solver(s) paramters ( PARM02 in namelist )
(PID.TID 0000.0001) //
(PID.TID 0000.0001) cg2dMaxIters =   /* Upper limit on 2d con. grad iterations  */
(PID.TID 0000.0001)                     200
(PID.TID 0000.0001)     ;
(PID.TID 0000.0001) cg2dChkResFreq =   /* 2d con. grad convergence test frequency */
(PID.TID 0000.0001)                       1
(PID.TID 0000.0001)     ;
(PID.TID 0000.0001) cg2dTargetResidual =   /* 2d con. grad target residual  */
(PID.TID 0000.0001)                 1.000000000000000E-09
(PID.TID 0000.0001)     ;
(PID.TID 0000.0001) cg2dTargetResWunit =   /* CG2d target residual [W units] */
(PID.TID 0000.0001)                -1.000000000000000E+00
(PID.TID 0000.0001)     ;
(PID.TID 0000.0001) cg2dPreCondFreq =   /* Freq. for updating cg2d preconditioner */
(PID.TID 0000.0001)                       1
(PID.TID 0000.0001)     ;
(PID.TID 0000.0001) //
(PID.TID 0000.0001) // Time stepping paramters ( PARM03 in namelist )
(PID.TID 0000.0001) //
(PID.TID 0000.0001) nIter0 =   /* Base timestep number  */
(PID.TID 0000.0001)                       0
(PID.TID 0000.0001)     ;
(PID.TID 0000.0001) nTimeSteps =   /* Number of timesteps */
(PID.TID 0000.0001)                      20
(PID.TID 0000.0001)     ;
(PID.TID 0000.0001) deltatTmom =   /* Momentum equation timestep ( s ) */
(PID.TID 0000.0001)                 1.200000000000000E+03
(PID.TID 0000.0001)     ;
(PID.TID 0000.0001) deltaTfreesurf =   /* FreeSurface equation timestep ( s ) */
(PID.TID 0000.0001)                 1.728000000000000E+05
(PID.TID 0000.0001)     ;
(PID.TID 0000.0001) dTtracerLev =   /* Tracer equation timestep ( s ) */
(PID.TID 0000.0001)    15 @  1.728000000000000E+05              /* K =  1: 15 */
(PID.TID 0000.0001)     ;
(PID.TID 0000.0001) deltatTClock  =   /* Model clock timestep ( s ) */
(PID.TID 0000.0001)                 1.728000000000000E+05
(PID.TID 0000.0001)     ;
(PID.TID 0000.0001) cAdjFreq =   /* Convective adjustment interval ( s ) */
(PID.TID 0000.0001)                 0.000000000000000E+00
(PID.TID 0000.0001)     ;
(PID.TID 0000.0001) forcing_In_AB =   /* put T,S Forcing in Adams-Bash. stepping */
(PID.TID 0000.0001)                   T
(PID.TID 0000.0001)     ;
(PID.TID 0000.0001) abeps =   /* Adams-Bashforth stabilizing weight */
(PID.TID 0000.0001)                 1.000000000000000E-01
(PID.TID 0000.0001)     ;
(PID.TID 0000.0001) startTime =   /* Run start time ( s ). */
(PID.TID 0000.0001)                 0.000000000000000E+00
(PID.TID 0000.0001)     ;
(PID.TID 0000.0001) endTime =   /* Integration ending time ( s ). */
(PID.TID 0000.0001)                 3.456000000000000E+06
(PID.TID 0000.0001)     ;
(PID.TID 0000.0001) pChkPtFreq =   /* Permanent restart/checkpoint file interval ( s ). */
(PID.TID 0000.0001)                 3.110400000000000E+09
(PID.TID 0000.0001)     ;
(PID.TID 0000.0001) chkPtFreq =   /* Rolling restart/checkpoint file interval ( s ). */
(PID.TID 0000.0001)                 0.000000000000000E+00
(PID.TID 0000.0001)     ;
(PID.TID 0000.0001) pickup_write_mdsio =   /* Model IO flag. */
(PID.TID 0000.0001)                   T
(PID.TID 0000.0001)     ;
(PID.TID 0000.0001) pickup_read_mdsio =   /* Model IO flag. */
(PID.TID 0000.0001)                   T
(PID.TID 0000.0001)     ;
(PID.TID 0000.0001) pickup_write_immed =   /* Model IO flag. */
(PID.TID 0000.0001)                   F
(PID.TID 0000.0001)     ;
(PID.TID 0000.0001) dumpFreq =   /* Model state write out interval ( s ). */
(PID.TID 0000.0001)                 3.110400000000000E+09
(PID.TID 0000.0001)     ;
(PID.TID 0000.0001) snapshot_mdsio =   /* Model IO flag. */
(PID.TID 0000.0001)                   T
(PID.TID 0000.0001)     ;
(PID.TID 0000.0001) monitorFreq =   /* Monitor output interval ( s ). */
(PID.TID 0000.0001)                 1.000000000000000E+00
(PID.TID 0000.0001)     ;
(PID.TID 0000.0001) monitor_stdio =   /* Model IO flag. */
(PID.TID 0000.0001)                   T
(PID.TID 0000.0001)     ;
(PID.TID 0000.0001) externForcingPeriod =   /* forcing period (s) */
(PID.TID 0000.0001)                 2.592000000000000E+06
(PID.TID 0000.0001)     ;
(PID.TID 0000.0001) externForcingCycle =   /* period of the cyle (s). */
(PID.TID 0000.0001)                 3.110400000000000E+07
(PID.TID 0000.0001)     ;
(PID.TID 0000.0001) tauThetaClimRelax =   /* relaxation time scale (s) */
(PID.TID 0000.0001)                 5.184000000000000E+06
(PID.TID 0000.0001)     ;
(PID.TID 0000.0001) tauSaltClimRelax =   /* relaxation time scale (s) */
(PID.TID 0000.0001)                 0.000000000000000E+00
(PID.TID 0000.0001)     ;
(PID.TID 0000.0001) latBandClimRelax =   /* max. Lat. where relaxation */
(PID.TID 0000.0001)                 1.800000000000000E+02
(PID.TID 0000.0001)     ;
(PID.TID 0000.0001) //
(PID.TID 0000.0001) // Gridding paramters ( PARM04 in namelist )
(PID.TID 0000.0001) //
(PID.TID 0000.0001) usingCartesianGrid =   /* Cartesian coordinates flag ( True / False ) */
(PID.TID 0000.0001)                   F
(PID.TID 0000.0001)     ;
(PID.TID 0000.0001) usingSphericalPolarGrid =   /* Spherical coordinates flag ( True / False ) */
(PID.TID 0000.0001)                   T
(PID.TID 0000.0001)     ;
(PID.TID 0000.0001) usingCylindricalGrid =   /* Spherical coordinates flag ( True / False ) */
(PID.TID 0000.0001)                   F
(PID.TID 0000.0001)     ;
(PID.TID 0000.0001) groundAtK1 =   /* Lower Boundary (ground) at the surface(k=1) ( T / F ) */
(PID.TID 0000.0001)                   T
(PID.TID 0000.0001)     ;
(PID.TID 0000.0001) Ro_SeaLevel =   /* r(1) ( units of r ) */
(PID.TID 0000.0001)                 5.302312256608400E+07
(PID.TID 0000.0001)     ;
(PID.TID 0000.0001) rkFac =   /* minus Vertical index orientation  */
(PID.TID 0000.0001)                 1.000000000000000E+00
(PID.TID 0000.0001)     ;
(PID.TID 0000.0001) horiVertRatio =   /* Ratio on units : Horiz - Vertical */
(PID.TID 0000.0001)                 1.015335000000000E+04
(PID.TID 0000.0001)     ;
(PID.TID 0000.0001) drC =   /* C spacing ( units of r ) */
(PID.TID 0000.0001)                 3.551650360010500E+06,      /* K =  1 */
(PID.TID 0000.0001)                 6.836924580405500E+06,      /* K =  2 */
(PID.TID 0000.0001)                 6.306109225519501E+06,      /* K =  3 */
(PID.TID 0000.0001)                 5.779053338153000E+06,      /* K =  4 */
(PID.TID 0000.0001)                 5.255519350233500E+06,      /* K =  5 */
(PID.TID 0000.0001)                 4.735252734850001E+06,      /* K =  6 */
(PID.TID 0000.0001)                 4.217983340545500E+06,      /* K =  7 */
(PID.TID 0000.0001)                 3.703426779226000E+06,      /* K =  8 */
(PID.TID 0000.0001)                 3.191285859157500E+06,      /* K =  9 */
(PID.TID 0000.0001)                 2.681252055355000E+06,      /* K = 10 */
(PID.TID 0000.0001)                 2.173007010517000E+06,      /* K = 11 */
(PID.TID 0000.0001)                 1.666224060479000E+06,      /* K = 12 */
(PID.TID 0000.0001)                 1.211001777568000E+06,      /* K = 13 */
(PID.TID 0000.0001)                 8.573828878235000E+05,      /* K = 14 */
(PID.TID 0000.0001)                 6.050043594899999E+05       /* K = 15 */
(PID.TID 0000.0001)     ;
(PID.TID 0000.0001) drF =   /* W spacing ( units of r ) */
(PID.TID 0000.0001)                 7.103300720021000E+06,      /* K =  1 */
(PID.TID 0000.0001)                 6.570548440790000E+06,      /* K =  2 */
(PID.TID 0000.0001)                 6.041670010249000E+06,      /* K =  3 */
(PID.TID 0000.0001)                 5.516436666057000E+06,      /* K =  4 */
(PID.TID 0000.0001)                 4.994602034410000E+06,      /* K =  5 */
(PID.TID 0000.0001)                 4.475903435290000E+06,      /* K =  6 */
(PID.TID 0000.0001)                 3.960063245801000E+06,      /* K =  7 */
(PID.TID 0000.0001)                 3.446790312651000E+06,      /* K =  8 */
(PID.TID 0000.0001)                 2.935781405664000E+06,      /* K =  9 */
(PID.TID 0000.0001)                 2.426722705046000E+06,      /* K = 10 */
(PID.TID 0000.0001)                 1.919291315988000E+06,      /* K = 11 */
(PID.TID 0000.0001)                 1.413156804970000E+06,      /* K = 12 */
(PID.TID 0000.0001)                 1.008846750166000E+06,      /* K = 13 */
(PID.TID 0000.0001)                 7.059190254810000E+05,      /* K = 14 */
(PID.TID 0000.0001)                 5.040896934990000E+05       /* K = 15 */
(PID.TID 0000.0001)     ;
(PID.TID 0000.0001) delX =   /* U spacing ( m - cartesian, degrees - spherical ) */
(PID.TID 0000.0001)    90 @  4.000000000000000E+00              /* I =  1: 90 */
(PID.TID 0000.0001)     ;
(PID.TID 0000.0001) delY =   /* V spacing ( m - cartesian, degrees - spherical ) */
(PID.TID 0000.0001)    40 @  4.000000000000000E+00              /* J =  1: 40 */
(PID.TID 0000.0001)     ;
(PID.TID 0000.0001) phiMin =    /* South edge (ignored - cartesian, degrees - spherical ) */
(PID.TID 0000.0001)                -8.000000000000000E+01
(PID.TID 0000.0001)     ;
(PID.TID 0000.0001) thetaMin =    /* West edge ( ignored - cartesian, degrees - spherical ) */
(PID.TID 0000.0001)                 0.000000000000000E+00
(PID.TID 0000.0001)     ;
(PID.TID 0000.0001) rSphere =    /* Radius ( ignored - cartesian, m - spherical ) */
(PID.TID 0000.0001)                 6.370000000000000E+06
(PID.TID 0000.0001)     ;
(PID.TID 0000.0001) xcoord =   /* P-point X coord ( m - cartesian, degrees - spherical ) */
(PID.TID 0000.0001)                 2.000000000000000E+00,      /* I =  1 */
(PID.TID 0000.0001)                 6.000000000000000E+00,      /* I =  2 */
(PID.TID 0000.0001)                 1.000000000000000E+01,      /* I =  3 */
(PID.TID 0000.0001)                 1.400000000000000E+01,      /* I =  4 */
(PID.TID 0000.0001)                 1.800000000000000E+01,      /* I =  5 */
(PID.TID 0000.0001)                 2.200000000000000E+01,      /* I =  6 */
(PID.TID 0000.0001)                 2.600000000000000E+01,      /* I =  7 */
(PID.TID 0000.0001)                 3.000000000000000E+01,      /* I =  8 */
(PID.TID 0000.0001)                 3.400000000000000E+01,      /* I =  9 */
(PID.TID 0000.0001)                 3.800000000000000E+01,      /* I = 10 */
(PID.TID 0000.0001)                 4.200000000000000E+01,      /* I = 11 */
(PID.TID 0000.0001)                 4.600000000000000E+01,      /* I = 12 */
(PID.TID 0000.0001)                 5.000000000000000E+01,      /* I = 13 */
(PID.TID 0000.0001)                 5.400000000000000E+01,      /* I = 14 */
(PID.TID 0000.0001)                 5.800000000000000E+01,      /* I = 15 */
(PID.TID 0000.0001)                 6.200000000000000E+01,      /* I = 16 */
(PID.TID 0000.0001)                 6.600000000000000E+01,      /* I = 17 */
(PID.TID 0000.0001)                 7.000000000000000E+01,      /* I = 18 */
(PID.TID 0000.0001)                 7.400000000000000E+01,      /* I = 19 */
(PID.TID 0000.0001)                 7.800000000000000E+01,      /* I = 20 */
(PID.TID 0000.0001)                 8.200000000000000E+01,      /* I = 21 */
(PID.TID 0000.0001)                 8.600000000000000E+01,      /* I = 22 */
(PID.TID 0000.0001)                 9.000000000000000E+01,      /* I = 23 */
(PID.TID 0000.0001)                 9.400000000000000E+01,      /* I = 24 */
(PID.TID 0000.0001)                 9.800000000000000E+01,      /* I = 25 */
(PID.TID 0000.0001)                 1.020000000000000E+02,      /* I = 26 */
(PID.TID 0000.0001)                 1.060000000000000E+02,      /* I = 27 */
(PID.TID 0000.0001)                 1.100000000000000E+02,      /* I = 28 */
(PID.TID 0000.0001)                 1.140000000000000E+02,      /* I = 29 */
(PID.TID 0000.0001)                 1.180000000000000E+02,      /* I = 30 */
(PID.TID 0000.0001)                 1.220000000000000E+02,      /* I = 31 */
(PID.TID 0000.0001)                 1.260000000000000E+02,      /* I = 32 */
(PID.TID 0000.0001)                 1.300000000000000E+02,      /* I = 33 */
(PID.TID 0000.0001)                 1.340000000000000E+02,      /* I = 34 */
(PID.TID 0000.0001)                 1.380000000000000E+02,      /* I = 35 */
(PID.TID 0000.0001)                 1.420000000000000E+02,      /* I = 36 */
(PID.TID 0000.0001)                 1.460000000000000E+02,      /* I = 37 */
(PID.TID 0000.0001)                 1.500000000000000E+02,      /* I = 38 */
(PID.TID 0000.0001)                 1.540000000000000E+02,      /* I = 39 */
(PID.TID 0000.0001)                 1.580000000000000E+02,      /* I = 40 */
(PID.TID 0000.0001)                 1.620000000000000E+02,      /* I = 41 */
(PID.TID 0000.0001)                 1.660000000000000E+02,      /* I = 42 */
(PID.TID 0000.0001)                 1.700000000000000E+02,      /* I = 43 */
(PID.TID 0000.0001)                 1.740000000000000E+02,      /* I = 44 */
(PID.TID 0000.0001)                 1.780000000000000E+02,      /* I = 45 */
(PID.TID 0000.0001)                 1.820000000000000E+02,      /* I = 46 */
(PID.TID 0000.0001)                 1.860000000000000E+02,      /* I = 47 */
(PID.TID 0000.0001)                 1.900000000000000E+02,      /* I = 48 */
(PID.TID 0000.0001)                 1.940000000000000E+02,      /* I = 49 */
(PID.TID 0000.0001)                 1.980000000000000E+02,      /* I = 50 */
(PID.TID 0000.0001)                 2.020000000000000E+02,      /* I = 51 */
(PID.TID 0000.0001)                 2.060000000000000E+02,      /* I = 52 */
(PID.TID 0000.0001)                 2.100000000000000E+02,      /* I = 53 */
(PID.TID 0000.0001)                 2.140000000000000E+02,      /* I = 54 */
(PID.TID 0000.0001)                 2.180000000000000E+02,      /* I = 55 */
(PID.TID 0000.0001)                 2.220000000000000E+02,      /* I = 56 */
(PID.TID 0000.0001)                 2.260000000000000E+02,      /* I = 57 */
(PID.TID 0000.0001)                 2.300000000000000E+02,      /* I = 58 */
(PID.TID 0000.0001)                 2.340000000000000E+02,      /* I = 59 */
(PID.TID 0000.0001)                 2.380000000000000E+02,      /* I = 60 */
(PID.TID 0000.0001)                 2.420000000000000E+02,      /* I = 61 */
(PID.TID 0000.0001)                 2.460000000000000E+02,      /* I = 62 */
(PID.TID 0000.0001)                 2.500000000000000E+02,      /* I = 63 */
(PID.TID 0000.0001)                 2.540000000000000E+02,      /* I = 64 */
(PID.TID 0000.0001)                 2.580000000000000E+02,      /* I = 65 */
(PID.TID 0000.0001)                 2.620000000000000E+02,      /* I = 66 */
(PID.TID 0000.0001)                 2.660000000000000E+02,      /* I = 67 */
(PID.TID 0000.0001)                 2.700000000000000E+02,      /* I = 68 */
(PID.TID 0000.0001)                 2.740000000000000E+02,      /* I = 69 */
(PID.TID 0000.0001)                 2.780000000000000E+02,      /* I = 70 */
(PID.TID 0000.0001)                 2.820000000000000E+02,      /* I = 71 */
(PID.TID 0000.0001)                 2.860000000000000E+02,      /* I = 72 */
(PID.TID 0000.0001)                 2.900000000000000E+02,      /* I = 73 */
(PID.TID 0000.0001)                 2.940000000000000E+02,      /* I = 74 */
(PID.TID 0000.0001)                 2.980000000000000E+02,      /* I = 75 */
(PID.TID 0000.0001)                 3.020000000000000E+02,      /* I = 76 */
(PID.TID 0000.0001)                 3.060000000000000E+02,      /* I = 77 */
(PID.TID 0000.0001)                 3.100000000000000E+02,      /* I = 78 */
(PID.TID 0000.0001)                 3.140000000000000E+02,      /* I = 79 */
(PID.TID 0000.0001)                 3.180000000000000E+02,      /* I = 80 */
(PID.TID 0000.0001)                 3.220000000000000E+02,      /* I = 81 */
(PID.TID 0000.0001)                 3.260000000000000E+02,      /* I = 82 */
(PID.TID 0000.0001)                 3.300000000000000E+02,      /* I = 83 */
(PID.TID 0000.0001)                 3.340000000000000E+02,      /* I = 84 */
(PID.TID 0000.0001)                 3.380000000000000E+02,      /* I = 85 */
(PID.TID 0000.0001)                 3.420000000000000E+02,      /* I = 86 */
(PID.TID 0000.0001)                 3.460000000000000E+02,      /* I = 87 */
(PID.TID 0000.0001)                 3.500000000000000E+02,      /* I = 88 */
(PID.TID 0000.0001)                 3.540000000000000E+02,      /* I = 89 */
(PID.TID 0000.0001)                 3.580000000000000E+02       /* I = 90 */
(PID.TID 0000.0001)     ;
(PID.TID 0000.0001) ycoord =   /* P-point Y coord ( m - cartesian, degrees - spherical ) */
(PID.TID 0000.0001)                -7.800000000000000E+01,      /* J =  1 */
(PID.TID 0000.0001)                -7.400000000000000E+01,      /* J =  2 */
(PID.TID 0000.0001)                -7.000000000000000E+01,      /* J =  3 */
(PID.TID 0000.0001)                -6.600000000000000E+01,      /* J =  4 */
(PID.TID 0000.0001)                -6.200000000000000E+01,      /* J =  5 */
(PID.TID 0000.0001)                -5.800000000000000E+01,      /* J =  6 */
(PID.TID 0000.0001)                -5.400000000000000E+01,      /* J =  7 */
(PID.TID 0000.0001)                -5.000000000000000E+01,      /* J =  8 */
(PID.TID 0000.0001)                -4.600000000000000E+01,      /* J =  9 */
(PID.TID 0000.0001)                -4.200000000000000E+01,      /* J = 10 */
(PID.TID 0000.0001)                -3.800000000000000E+01,      /* J = 11 */
(PID.TID 0000.0001)                -3.400000000000000E+01,      /* J = 12 */
(PID.TID 0000.0001)                -3.000000000000000E+01,      /* J = 13 */
(PID.TID 0000.0001)                -2.600000000000000E+01,      /* J = 14 */
(PID.TID 0000.0001)                -2.200000000000000E+01,      /* J = 15 */
(PID.TID 0000.0001)                -1.800000000000000E+01,      /* J = 16 */
(PID.TID 0000.0001)                -1.400000000000000E+01,      /* J = 17 */
(PID.TID 0000.0001)                -1.000000000000000E+01,      /* J = 18 */
(PID.TID 0000.0001)                -6.000000000000000E+00,      /* J = 19 */
(PID.TID 0000.0001)                -2.000000000000000E+00,      /* J = 20 */
(PID.TID 0000.0001)                 2.000000000000000E+00,      /* J = 21 */
(PID.TID 0000.0001)                 6.000000000000000E+00,      /* J = 22 */
(PID.TID 0000.0001)                 1.000000000000000E+01,      /* J = 23 */
(PID.TID 0000.0001)                 1.400000000000000E+01,      /* J = 24 */
(PID.TID 0000.0001)                 1.800000000000000E+01,      /* J = 25 */
(PID.TID 0000.0001)                 2.200000000000000E+01,      /* J = 26 */
(PID.TID 0000.0001)                 2.600000000000000E+01,      /* J = 27 */
(PID.TID 0000.0001)                 3.000000000000000E+01,      /* J = 28 */
(PID.TID 0000.0001)                 3.400000000000000E+01,      /* J = 29 */
(PID.TID 0000.0001)                 3.800000000000000E+01,      /* J = 30 */
(PID.TID 0000.0001)                 4.200000000000000E+01,      /* J = 31 */
(PID.TID 0000.0001)                 4.600000000000000E+01,      /* J = 32 */
(PID.TID 0000.0001)                 5.000000000000000E+01,      /* J = 33 */
(PID.TID 0000.0001)                 5.400000000000000E+01,      /* J = 34 */
(PID.TID 0000.0001)                 5.800000000000000E+01,      /* J = 35 */
(PID.TID 0000.0001)                 6.200000000000000E+01,      /* J = 36 */
(PID.TID 0000.0001)                 6.600000000000000E+01,      /* J = 37 */
(PID.TID 0000.0001)                 7.000000000000000E+01,      /* J = 38 */
(PID.TID 0000.0001)                 7.400000000000000E+01,      /* J = 39 */
(PID.TID 0000.0001)                 7.800000000000000E+01       /* J = 40 */
(PID.TID 0000.0001)     ;
(PID.TID 0000.0001) rcoord =   /* P-point R coordinate (  units of r ) */
(PID.TID 0000.0001)                 4.947147220607350E+07,      /* K =  1 */
(PID.TID 0000.0001)                 4.263454762566800E+07,      /* K =  2 */
(PID.TID 0000.0001)                 3.632843840014850E+07,      /* K =  3 */
(PID.TID 0000.0001)                 3.054938506199550E+07,      /* K =  4 */
(PID.TID 0000.0001)                 2.529386571176200E+07,      /* K =  5 */
(PID.TID 0000.0001)                 2.055861297691200E+07,      /* K =  6 */
(PID.TID 0000.0001)                 1.634062963636650E+07,      /* K =  7 */
(PID.TID 0000.0001)                 1.263720285714050E+07,      /* K =  8 */
(PID.TID 0000.0001)                 9.445916997983005E+06,      /* K =  9 */
(PID.TID 0000.0001)                 6.764664942628005E+06,      /* K = 10 */
(PID.TID 0000.0001)                 4.591657932111004E+06,      /* K = 11 */
(PID.TID 0000.0001)                 2.925433871632004E+06,      /* K = 12 */
(PID.TID 0000.0001)                 1.714432094064004E+06,      /* K = 13 */
(PID.TID 0000.0001)                 8.570492062405043E+05,      /* K = 14 */
(PID.TID 0000.0001)                 2.520448467505043E+05       /* K = 15 */
(PID.TID 0000.0001)     ;
(PID.TID 0000.0001) rF =   /* W-Interf. R coordinate (  units of r ) */
(PID.TID 0000.0001)                 5.302312256608400E+07,      /* K =  1 */
(PID.TID 0000.0001)                 4.591982184606300E+07,      /* K =  2 */
(PID.TID 0000.0001)                 3.934927340527300E+07,      /* K =  3 */
(PID.TID 0000.0001)                 3.330760339502400E+07,      /* K =  4 */
(PID.TID 0000.0001)                 2.779116672896700E+07,      /* K =  5 */
(PID.TID 0000.0001)                 2.279656469455700E+07,      /* K =  6 */
(PID.TID 0000.0001)                 1.832066125926699E+07,      /* K =  7 */
(PID.TID 0000.0001)                 1.436059801346599E+07,      /* K =  8 */
(PID.TID 0000.0001)                 1.091380770081500E+07,      /* K =  9 */
(PID.TID 0000.0001)                 7.978026295150995E+06,      /* K = 10 */
(PID.TID 0000.0001)                 5.551303590104995E+06,      /* K = 11 */
(PID.TID 0000.0001)                 3.632012274116995E+06,      /* K = 12 */
(PID.TID 0000.0001)                 2.218855469146995E+06,      /* K = 13 */
(PID.TID 0000.0001)                 1.210008718980995E+06,      /* K = 14 */
(PID.TID 0000.0001)                 5.040896934999955E+05,      /* K = 15 */
(PID.TID 0000.0001)                 9.955256246030331E-07       /* K = 16 */
(PID.TID 0000.0001)     ;
(PID.TID 0000.0001) dxF =  /* dxF(:,1,:,1) ( m - cartesian, degrees - spherical ) */
(PID.TID 0000.0001)    90 @  9.246038586187513E+04              /* I =  1: 90 */
(PID.TID 0000.0001)     ;
(PID.TID 0000.0001) dxF =  /* dxF(1,:,1,:) ( m - cartesian, degrees - spherical ) */
(PID.TID 0000.0001)                 9.246038586187513E+04,      /* J =  1 */
(PID.TID 0000.0001)                 1.225786591246834E+05,      /* J =  2 */
(PID.TID 0000.0001)                 1.520997414818001E+05,      /* J =  3 */
(PID.TID 0000.0001)                 1.808798091874300E+05,      /* J =  4 */
(PID.TID 0000.0001)                 2.087786486446736E+05,      /* J =  5 */
(PID.TID 0000.0001)                 2.356603395120766E+05,      /* J =  6 */
(PID.TID 0000.0001)                 2.613939168938713E+05,      /* J =  7 */
(PID.TID 0000.0001)                 2.858540093877838E+05,      /* J =  8 */
(PID.TID 0000.0001)                 3.089214498819035E+05,      /* J =  9 */
(PID.TID 0000.0001)                 3.304838561248741E+05,      /* J = 10 */
(PID.TID 0000.0001)                 3.504361782409254E+05,      /* J = 11 */
(PID.TID 0000.0001)                 3.686812105223083E+05,      /* J = 12 */
(PID.TID 0000.0001)                 3.851300650057322E+05,      /* J = 13 */
(PID.TID 0000.0001)                 3.997026045255871E+05,      /* J = 14 */
(PID.TID 0000.0001)                 4.123278331341585E+05,      /* J = 15 */
(PID.TID 0000.0001)                 4.229442419867491E+05,      /* J = 16 */
(PID.TID 0000.0001)                 4.315001090065869E+05,      /* J = 17 */
(PID.TID 0000.0001)                 4.379537508695839E+05,      /* J = 18 */
(PID.TID 0000.0001)                 4.422737260813013E+05,      /* J = 19 */
(PID.TID 0000.0001)     2 @  4.444389881567501E+05,             /* J = 20: 21 */
(PID.TID 0000.0001)                 4.422737260813013E+05,      /* J = 22 */
(PID.TID 0000.0001)                 4.379537508695839E+05,      /* J = 23 */
(PID.TID 0000.0001)                 4.315001090065869E+05,      /* J = 24 */
(PID.TID 0000.0001)                 4.229442419867491E+05,      /* J = 25 */
(PID.TID 0000.0001)                 4.123278331341585E+05,      /* J = 26 */
(PID.TID 0000.0001)                 3.997026045255871E+05,      /* J = 27 */
(PID.TID 0000.0001)                 3.851300650057322E+05,      /* J = 28 */
(PID.TID 0000.0001)                 3.686812105223083E+05,      /* J = 29 */
(PID.TID 0000.0001)                 3.504361782409254E+05,      /* J = 30 */
(PID.TID 0000.0001)                 3.304838561248741E+05,      /* J = 31 */
(PID.TID 0000.0001)                 3.089214498819035E+05,      /* J = 32 */
(PID.TID 0000.0001)                 2.858540093877838E+05,      /* J = 33 */
(PID.TID 0000.0001)                 2.613939168938713E+05,      /* J = 34 */
(PID.TID 0000.0001)                 2.356603395120766E+05,      /* J = 35 */
(PID.TID 0000.0001)                 2.087786486446736E+05,      /* J = 36 */
(PID.TID 0000.0001)                 1.808798091874300E+05,      /* J = 37 */
(PID.TID 0000.0001)                 1.520997414818001E+05,      /* J = 38 */
(PID.TID 0000.0001)                 1.225786591246834E+05,      /* J = 39 */
(PID.TID 0000.0001)                 9.246038586187513E+04       /* J = 40 */
(PID.TID 0000.0001)     ;
(PID.TID 0000.0001) dyF =  /* dyF(:,1,:,1) ( m - cartesian, degrees - spherical ) */
(PID.TID 0000.0001)    90 @  4.447098934081552E+05              /* I =  1: 90 */
(PID.TID 0000.0001)     ;
(PID.TID 0000.0001) dyF =  /* dyF(1,:,1,:) ( m - cartesian, degrees - spherical ) */
(PID.TID 0000.0001)    40 @  4.447098934081552E+05              /* J =  1: 40 */
(PID.TID 0000.0001)     ;
(PID.TID 0000.0001) dxG =  /* dxG(:,1,:,1) ( m - cartesian, degrees - spherical ) */
(PID.TID 0000.0001)    90 @  7.722306258078101E+04              /* I =  1: 90 */
(PID.TID 0000.0001)     ;
(PID.TID 0000.0001) dxG =  /* dxG(1,:,1,:) ( m - cartesian, degrees - spherical ) */
(PID.TID 0000.0001)                 7.722306258078101E+04,      /* J =  1 */
(PID.TID 0000.0001)                 1.075850604052271E+05,      /* J =  2 */
(PID.TID 0000.0001)                 1.374229146297914E+05,      /* J =  3 */
(PID.TID 0000.0001)                 1.665912582279823E+05,      /* J =  4 */
(PID.TID 0000.0001)                 1.949479859617814E+05,      /* J =  5 */
(PID.TID 0000.0001)                 2.223549467040776E+05,      /* J =  6 */
(PID.TID 0000.0001)                 2.486786164970726E+05,      /* J =  7 */
(PID.TID 0000.0001)                 2.737907490675810E+05,      /* J =  8 */
(PID.TID 0000.0001)                 2.975690006299820E+05,      /* J =  9 */
(PID.TID 0000.0001)                 3.198975259328452E+05,      /* J = 10 */
(PID.TID 0000.0001)                 3.406675426453503E+05,      /* J = 11 */
(PID.TID 0000.0001)                 3.597778613338689E+05,      /* J = 12 */
(PID.TID 0000.0001)                 3.771353784467131E+05,      /* J = 13 */
(PID.TID 0000.0001)                 3.926555299052806E+05,      /* J = 14 */
(PID.TID 0000.0001)                 4.062627030917454E+05,      /* J = 15 */
(PID.TID 0000.0001)                 4.178906052261313E+05,      /* J = 16 */
(PID.TID 0000.0001)                 4.274825863380723E+05,      /* J = 17 */
(PID.TID 0000.0001)                 4.349919152597734E+05,      /* J = 18 */
(PID.TID 0000.0001)                 4.403820072955634E+05,      /* J = 19 */
(PID.TID 0000.0001)                 4.436266024588540E+05,      /* J = 20 */
(PID.TID 0000.0001)                 4.447098934081552E+05,      /* J = 21 */
(PID.TID 0000.0001)                 4.436266024588540E+05,      /* J = 22 */
(PID.TID 0000.0001)                 4.403820072955634E+05,      /* J = 23 */
(PID.TID 0000.0001)                 4.349919152597734E+05,      /* J = 24 */
(PID.TID 0000.0001)                 4.274825863380723E+05,      /* J = 25 */
(PID.TID 0000.0001)                 4.178906052261313E+05,      /* J = 26 */
(PID.TID 0000.0001)                 4.062627030917454E+05,      /* J = 27 */
(PID.TID 0000.0001)                 3.926555299052806E+05,      /* J = 28 */
(PID.TID 0000.0001)                 3.771353784467131E+05,      /* J = 29 */
(PID.TID 0000.0001)                 3.597778613338689E+05,      /* J = 30 */
(PID.TID 0000.0001)                 3.406675426453503E+05,      /* J = 31 */
(PID.TID 0000.0001)                 3.198975259328452E+05,      /* J = 32 */
(PID.TID 0000.0001)                 2.975690006299820E+05,      /* J = 33 */
(PID.TID 0000.0001)                 2.737907490675810E+05,      /* J = 34 */
(PID.TID 0000.0001)                 2.486786164970726E+05,      /* J = 35 */
(PID.TID 0000.0001)                 2.223549467040776E+05,      /* J = 36 */
(PID.TID 0000.0001)                 1.949479859617814E+05,      /* J = 37 */
(PID.TID 0000.0001)                 1.665912582279823E+05,      /* J = 38 */
(PID.TID 0000.0001)                 1.374229146297914E+05,      /* J = 39 */
(PID.TID 0000.0001)                 1.075850604052271E+05       /* J = 40 */
(PID.TID 0000.0001)     ;
(PID.TID 0000.0001) dyG =  /* dyG(:,1,:,1) ( m - cartesian, degrees - spherical ) */
(PID.TID 0000.0001)    90 @  4.447098934081552E+05              /* I =  1: 90 */
(PID.TID 0000.0001)     ;
(PID.TID 0000.0001) dyG =  /* dyG(1,:,1,:) ( m - cartesian, degrees - spherical ) */
(PID.TID 0000.0001)    40 @  4.447098934081552E+05              /* J =  1: 40 */
(PID.TID 0000.0001)     ;
(PID.TID 0000.0001) dxC =  /* dxC(:,1,:,1) ( m - cartesian, degrees - spherical ) */
(PID.TID 0000.0001)    90 @  9.246038586187513E+04              /* I =  1: 90 */
(PID.TID 0000.0001)     ;
(PID.TID 0000.0001) dxC =  /* dxC(1,:,1,:) ( m - cartesian, degrees - spherical ) */
(PID.TID 0000.0001)                 9.246038586187513E+04,      /* J =  1 */
(PID.TID 0000.0001)                 1.225786591246834E+05,      /* J =  2 */
(PID.TID 0000.0001)                 1.520997414818001E+05,      /* J =  3 */
(PID.TID 0000.0001)                 1.808798091874300E+05,      /* J =  4 */
(PID.TID 0000.0001)                 2.087786486446736E+05,      /* J =  5 */
(PID.TID 0000.0001)                 2.356603395120766E+05,      /* J =  6 */
(PID.TID 0000.0001)                 2.613939168938713E+05,      /* J =  7 */
(PID.TID 0000.0001)                 2.858540093877838E+05,      /* J =  8 */
(PID.TID 0000.0001)                 3.089214498819035E+05,      /* J =  9 */
(PID.TID 0000.0001)                 3.304838561248741E+05,      /* J = 10 */
(PID.TID 0000.0001)                 3.504361782409254E+05,      /* J = 11 */
(PID.TID 0000.0001)                 3.686812105223083E+05,      /* J = 12 */
(PID.TID 0000.0001)                 3.851300650057322E+05,      /* J = 13 */
(PID.TID 0000.0001)                 3.997026045255871E+05,      /* J = 14 */
(PID.TID 0000.0001)                 4.123278331341585E+05,      /* J = 15 */
(PID.TID 0000.0001)                 4.229442419867491E+05,      /* J = 16 */
(PID.TID 0000.0001)                 4.315001090065869E+05,      /* J = 17 */
(PID.TID 0000.0001)                 4.379537508695839E+05,      /* J = 18 */
(PID.TID 0000.0001)                 4.422737260813013E+05,      /* J = 19 */
(PID.TID 0000.0001)     2 @  4.444389881567501E+05,             /* J = 20: 21 */
(PID.TID 0000.0001)                 4.422737260813013E+05,      /* J = 22 */
(PID.TID 0000.0001)                 4.379537508695839E+05,      /* J = 23 */
(PID.TID 0000.0001)                 4.315001090065869E+05,      /* J = 24 */
(PID.TID 0000.0001)                 4.229442419867491E+05,      /* J = 25 */
(PID.TID 0000.0001)                 4.123278331341585E+05,      /* J = 26 */
(PID.TID 0000.0001)                 3.997026045255871E+05,      /* J = 27 */
(PID.TID 0000.0001)                 3.851300650057322E+05,      /* J = 28 */
(PID.TID 0000.0001)                 3.686812105223083E+05,      /* J = 29 */
(PID.TID 0000.0001)                 3.504361782409254E+05,      /* J = 30 */
(PID.TID 0000.0001)                 3.304838561248741E+05,      /* J = 31 */
(PID.TID 0000.0001)                 3.089214498819035E+05,      /* J = 32 */
(PID.TID 0000.0001)                 2.858540093877838E+05,      /* J = 33 */
(PID.TID 0000.0001)                 2.613939168938713E+05,      /* J = 34 */
(PID.TID 0000.0001)                 2.356603395120766E+05,      /* J = 35 */
(PID.TID 0000.0001)                 2.087786486446736E+05,      /* J = 36 */
(PID.TID 0000.0001)                 1.808798091874300E+05,      /* J = 37 */
(PID.TID 0000.0001)                 1.520997414818001E+05,      /* J = 38 */
(PID.TID 0000.0001)                 1.225786591246834E+05,      /* J = 39 */
(PID.TID 0000.0001)                 9.246038586187513E+04       /* J = 40 */
(PID.TID 0000.0001)     ;
(PID.TID 0000.0001) dyC =  /* dyC(:,1,:,1) ( m - cartesian, degrees - spherical ) */
(PID.TID 0000.0001)    90 @  4.447098934081552E+05              /* I =  1: 90 */
(PID.TID 0000.0001)     ;
(PID.TID 0000.0001) dyC =  /* dyC(1,:,1,:) ( m - cartesian, degrees - spherical ) */
(PID.TID 0000.0001)    40 @  4.447098934081552E+05              /* J =  1: 40 */
(PID.TID 0000.0001)     ;
(PID.TID 0000.0001) dxV =  /* dxV(:,1,:,1) ( m - cartesian, degrees - spherical ) */
(PID.TID 0000.0001)    90 @  7.722306258078101E+04              /* I =  1: 90 */
(PID.TID 0000.0001)     ;
(PID.TID 0000.0001) dxV =  /* dxV(1,:,1,:) ( m - cartesian, degrees - spherical ) */
(PID.TID 0000.0001)                 7.722306258078101E+04,      /* J =  1 */
(PID.TID 0000.0001)                 1.075850604052271E+05,      /* J =  2 */
(PID.TID 0000.0001)                 1.374229146297914E+05,      /* J =  3 */
(PID.TID 0000.0001)                 1.665912582279823E+05,      /* J =  4 */
(PID.TID 0000.0001)                 1.949479859617814E+05,      /* J =  5 */
(PID.TID 0000.0001)                 2.223549467040776E+05,      /* J =  6 */
(PID.TID 0000.0001)                 2.486786164970726E+05,      /* J =  7 */
(PID.TID 0000.0001)                 2.737907490675810E+05,      /* J =  8 */
(PID.TID 0000.0001)                 2.975690006299820E+05,      /* J =  9 */
(PID.TID 0000.0001)                 3.198975259328452E+05,      /* J = 10 */
(PID.TID 0000.0001)                 3.406675426453503E+05,      /* J = 11 */
(PID.TID 0000.0001)                 3.597778613338689E+05,      /* J = 12 */
(PID.TID 0000.0001)                 3.771353784467131E+05,      /* J = 13 */
(PID.TID 0000.0001)                 3.926555299052806E+05,      /* J = 14 */
(PID.TID 0000.0001)                 4.062627030917454E+05,      /* J = 15 */
(PID.TID 0000.0001)                 4.178906052261313E+05,      /* J = 16 */
(PID.TID 0000.0001)                 4.274825863380723E+05,      /* J = 17 */
(PID.TID 0000.0001)                 4.349919152597734E+05,      /* J = 18 */
(PID.TID 0000.0001)                 4.403820072955634E+05,      /* J = 19 */
(PID.TID 0000.0001)                 4.436266024588540E+05,      /* J = 20 */
(PID.TID 0000.0001)                 4.447098934081552E+05,      /* J = 21 */
(PID.TID 0000.0001)                 4.436266024588540E+05,      /* J = 22 */
(PID.TID 0000.0001)                 4.403820072955634E+05,      /* J = 23 */
(PID.TID 0000.0001)                 4.349919152597734E+05,      /* J = 24 */
(PID.TID 0000.0001)                 4.274825863380723E+05,      /* J = 25 */
(PID.TID 0000.0001)                 4.178906052261313E+05,      /* J = 26 */
(PID.TID 0000.0001)                 4.062627030917454E+05,      /* J = 27 */
(PID.TID 0000.0001)                 3.926555299052806E+05,      /* J = 28 */
(PID.TID 0000.0001)                 3.771353784467131E+05,      /* J = 29 */
(PID.TID 0000.0001)                 3.597778613338689E+05,      /* J = 30 */
(PID.TID 0000.0001)                 3.406675426453503E+05,      /* J = 31 */
(PID.TID 0000.0001)                 3.198975259328452E+05,      /* J = 32 */
(PID.TID 0000.0001)                 2.975690006299820E+05,      /* J = 33 */
(PID.TID 0000.0001)                 2.737907490675810E+05,      /* J = 34 */
(PID.TID 0000.0001)                 2.486786164970726E+05,      /* J = 35 */
(PID.TID 0000.0001)                 2.223549467040776E+05,      /* J = 36 */
(PID.TID 0000.0001)                 1.949479859617814E+05,      /* J = 37 */
(PID.TID 0000.0001)                 1.665912582279823E+05,      /* J = 38 */
(PID.TID 0000.0001)                 1.374229146297914E+05,      /* J = 39 */
(PID.TID 0000.0001)                 1.075850604052271E+05       /* J = 40 */
(PID.TID 0000.0001)     ;
(PID.TID 0000.0001) dyU =  /* dyU(:,1,:,1) ( m - cartesian, degrees - spherical ) */
(PID.TID 0000.0001)    90 @  4.447098934081552E+05              /* I =  1: 90 */
(PID.TID 0000.0001)     ;
(PID.TID 0000.0001) dyU =  /* dyU(1,:,1,:) ( m - cartesian, degrees - spherical ) */
(PID.TID 0000.0001)    40 @  4.447098934081552E+05              /* J =  1: 40 */
(PID.TID 0000.0001)     ;
(PID.TID 0000.0001) rA =  /* rA(:,1,:,1) ( m - cartesian, degrees - spherical ) */
(PID.TID 0000.0001)    90 @  4.110969866729054E+10              /* I =  1: 90 */
(PID.TID 0000.0001)     ;
(PID.TID 0000.0001) rA =  /* rA(1,:,1,:) ( m - cartesian, degrees - spherical ) */
(PID.TID 0000.0001)                 4.110969866729054E+10,      /* J =  1 */
(PID.TID 0000.0001)                 5.450087291636668E+10,      /* J =  2 */
(PID.TID 0000.0001)                 6.762652439100243E+10,      /* J =  3 */
(PID.TID 0000.0001)                 8.042270623659999E+10,      /* J =  4 */
(PID.TID 0000.0001)                 9.282707674147508E+10,      /* J =  5 */
(PID.TID 0000.0001)                 1.047792030594103E+11,      /* J =  6 */
(PID.TID 0000.0001)                 1.162208556324092E+11,      /* J =  7 */
(PID.TID 0000.0001)                 1.270962918792467E+11,      /* J =  8 */
(PID.TID 0000.0001)                 1.373525277677230E+11,      /* J =  9 */
(PID.TID 0000.0001)                 1.469395959475425E+11,      /* J = 10 */
(PID.TID 0000.0001)                 1.558107891862221E+11,      /* J = 11 */
(PID.TID 0000.0001)                 1.639228879220325E+11,      /* J = 12 */
(PID.TID 0000.0001)                 1.712363708253575E+11,      /* J = 13 */
(PID.TID 0000.0001)                 1.777156073426414E+11,      /* J = 14 */
(PID.TID 0000.0001)                 1.833290312848624E+11,      /* J = 15 */
(PID.TID 0000.0001)                 1.880492946148330E+11,      /* J = 16 */
(PID.TID 0000.0001)                 1.918534006840893E+11,      /* J = 17 */
(PID.TID 0000.0001)                 1.947228162702492E+11,      /* J = 18 */
(PID.TID 0000.0001)                 1.966435618690094E+11,      /* J = 19 */
(PID.TID 0000.0001)                 1.976062798008855E+11,      /* J = 20 */
(PID.TID 0000.0001)                 1.976062798008856E+11,      /* J = 21 */
(PID.TID 0000.0001)                 1.966435618690094E+11,      /* J = 22 */
(PID.TID 0000.0001)                 1.947228162702492E+11,      /* J = 23 */
(PID.TID 0000.0001)                 1.918534006840893E+11,      /* J = 24 */
(PID.TID 0000.0001)                 1.880492946148330E+11,      /* J = 25 */
(PID.TID 0000.0001)                 1.833290312848623E+11,      /* J = 26 */
(PID.TID 0000.0001)                 1.777156073426414E+11,      /* J = 27 */
(PID.TID 0000.0001)                 1.712363708253574E+11,      /* J = 28 */
(PID.TID 0000.0001)                 1.639228879220325E+11,      /* J = 29 */
(PID.TID 0000.0001)                 1.558107891862220E+11,      /* J = 30 */
(PID.TID 0000.0001)                 1.469395959475424E+11,      /* J = 31 */
(PID.TID 0000.0001)                 1.373525277677230E+11,      /* J = 32 */
(PID.TID 0000.0001)                 1.270962918792467E+11,      /* J = 33 */
(PID.TID 0000.0001)                 1.162208556324095E+11,      /* J = 34 */
(PID.TID 0000.0001)                 1.047792030594104E+11,      /* J = 35 */
(PID.TID 0000.0001)                 9.282707674147527E+10,      /* J = 36 */
(PID.TID 0000.0001)                 8.042270623660011E+10,      /* J = 37 */
(PID.TID 0000.0001)                 6.762652439100233E+10,      /* J = 38 */
(PID.TID 0000.0001)                 5.450087291636658E+10,      /* J = 39 */
(PID.TID 0000.0001)                 4.110969866729044E+10       /* J = 40 */
(PID.TID 0000.0001)     ;
(PID.TID 0000.0001) rAw =  /* rAw(:,1,:,1) ( m - cartesian, degrees - spherical ) */
(PID.TID 0000.0001)    90 @  4.110969866729054E+10              /* I =  1: 90 */
(PID.TID 0000.0001)     ;
(PID.TID 0000.0001) rAw =  /* rAw(1,:,1,:) ( m - cartesian, degrees - spherical ) */
(PID.TID 0000.0001)                 4.110969866729054E+10,      /* J =  1 */
(PID.TID 0000.0001)                 5.450087291636668E+10,      /* J =  2 */
(PID.TID 0000.0001)                 6.762652439100243E+10,      /* J =  3 */
(PID.TID 0000.0001)                 8.042270623659999E+10,      /* J =  4 */
(PID.TID 0000.0001)                 9.282707674147508E+10,      /* J =  5 */
(PID.TID 0000.0001)                 1.047792030594103E+11,      /* J =  6 */
(PID.TID 0000.0001)                 1.162208556324092E+11,      /* J =  7 */
(PID.TID 0000.0001)                 1.270962918792467E+11,      /* J =  8 */
(PID.TID 0000.0001)                 1.373525277677230E+11,      /* J =  9 */
(PID.TID 0000.0001)                 1.469395959475425E+11,      /* J = 10 */
(PID.TID 0000.0001)                 1.558107891862221E+11,      /* J = 11 */
(PID.TID 0000.0001)                 1.639228879220325E+11,      /* J = 12 */
(PID.TID 0000.0001)                 1.712363708253575E+11,      /* J = 13 */
(PID.TID 0000.0001)                 1.777156073426414E+11,      /* J = 14 */
(PID.TID 0000.0001)                 1.833290312848624E+11,      /* J = 15 */
(PID.TID 0000.0001)                 1.880492946148330E+11,      /* J = 16 */
(PID.TID 0000.0001)                 1.918534006840893E+11,      /* J = 17 */
(PID.TID 0000.0001)                 1.947228162702492E+11,      /* J = 18 */
(PID.TID 0000.0001)                 1.966435618690094E+11,      /* J = 19 */
(PID.TID 0000.0001)                 1.976062798008855E+11,      /* J = 20 */
(PID.TID 0000.0001)                 1.976062798008856E+11,      /* J = 21 */
(PID.TID 0000.0001)                 1.966435618690094E+11,      /* J = 22 */
(PID.TID 0000.0001)                 1.947228162702492E+11,      /* J = 23 */
(PID.TID 0000.0001)                 1.918534006840893E+11,      /* J = 24 */
(PID.TID 0000.0001)                 1.880492946148330E+11,      /* J = 25 */
(PID.TID 0000.0001)                 1.833290312848623E+11,      /* J = 26 */
(PID.TID 0000.0001)                 1.777156073426414E+11,      /* J = 27 */
(PID.TID 0000.0001)                 1.712363708253574E+11,      /* J = 28 */
(PID.TID 0000.0001)                 1.639228879220325E+11,      /* J = 29 */
(PID.TID 0000.0001)                 1.558107891862220E+11,      /* J = 30 */
(PID.TID 0000.0001)                 1.469395959475424E+11,      /* J = 31 */
(PID.TID 0000.0001)                 1.373525277677230E+11,      /* J = 32 */
(PID.TID 0000.0001)                 1.270962918792467E+11,      /* J = 33 */
(PID.TID 0000.0001)                 1.162208556324095E+11,      /* J = 34 */
(PID.TID 0000.0001)                 1.047792030594104E+11,      /* J = 35 */
(PID.TID 0000.0001)                 9.282707674147527E+10,      /* J = 36 */
(PID.TID 0000.0001)                 8.042270623660011E+10,      /* J = 37 */
(PID.TID 0000.0001)                 6.762652439100233E+10,      /* J = 38 */
(PID.TID 0000.0001)                 5.450087291636658E+10,      /* J = 39 */
(PID.TID 0000.0001)                 4.110969866729044E+10       /* J = 40 */
(PID.TID 0000.0001)     ;
(PID.TID 0000.0001) rAs =  /* rAs(:,1,:,1) ( m - cartesian, degrees - spherical ) */
(PID.TID 0000.0001)    90 @  3.433488626798236E+10              /* I =  1: 90 */
(PID.TID 0000.0001)     ;
(PID.TID 0000.0001) rAs =  /* rAs(1,:,1,:) ( m - cartesian, degrees - spherical ) */
(PID.TID 0000.0001)                 3.433488626798236E+10,      /* J =  1 */
(PID.TID 0000.0001)                 4.783442523123635E+10,      /* J =  2 */
(PID.TID 0000.0001)                 6.110091968306405E+10,      /* J =  3 */
(PID.TID 0000.0001)                 7.406973659603827E+10,      /* J =  4 */
(PID.TID 0000.0001)                 8.667769319778091E+10,      /* J =  5 */
(PID.TID 0000.0001)                 9.886336479107472E+10,      /* J =  6 */
(PID.TID 0000.0001)                 1.105673840088174E+11,      /* J =  7 */
(PID.TID 0000.0001)                 1.217327300458637E+11,      /* J =  8 */
(PID.TID 0000.0001)                 1.323050064586579E+11,      /* J =  9 */
(PID.TID 0000.0001)                 1.422327061792379E+11,      /* J = 10 */
(PID.TID 0000.0001)                 1.514674624524945E+11,      /* J = 11 */
(PID.TID 0000.0001)                 1.599642844741385E+11,      /* J = 12 */
(PID.TID 0000.0001)                 1.676817765813787E+11,      /* J = 13 */
(PID.TID 0000.0001)                 1.745823399284268E+11,      /* J = 14 */
(PID.TID 0000.0001)                 1.806323556642997E+11,      /* J = 15 */
(PID.TID 0000.0001)                 1.858023487204767E+11,      /* J = 16 */
(PID.TID 0000.0001)                 1.900671314104744E+11,      /* J = 17 */
(PID.TID 0000.0001)                 1.934059261417216E+11,      /* J = 18 */
(PID.TID 0000.0001)                 1.958024666419019E+11,      /* J = 19 */
(PID.TID 0000.0001)                 1.972450772065981E+11,      /* J = 20 */
(PID.TID 0000.0001)                 1.977267295821495E+11,      /* J = 21 */
(PID.TID 0000.0001)                 1.972450772065981E+11,      /* J = 22 */
(PID.TID 0000.0001)                 1.958024666419019E+11,      /* J = 23 */
(PID.TID 0000.0001)                 1.934059261417216E+11,      /* J = 24 */
(PID.TID 0000.0001)                 1.900671314104744E+11,      /* J = 25 */
(PID.TID 0000.0001)                 1.858023487204767E+11,      /* J = 26 */
(PID.TID 0000.0001)                 1.806323556642997E+11,      /* J = 27 */
(PID.TID 0000.0001)                 1.745823399284267E+11,      /* J = 28 */
(PID.TID 0000.0001)                 1.676817765813788E+11,      /* J = 29 */
(PID.TID 0000.0001)                 1.599642844741386E+11,      /* J = 30 */
(PID.TID 0000.0001)                 1.514674624524945E+11,      /* J = 31 */
(PID.TID 0000.0001)                 1.422327061792377E+11,      /* J = 32 */
(PID.TID 0000.0001)                 1.323050064586577E+11,      /* J = 33 */
(PID.TID 0000.0001)                 1.217327300458638E+11,      /* J = 34 */
(PID.TID 0000.0001)                 1.105673840088174E+11,      /* J = 35 */
(PID.TID 0000.0001)                 9.886336479107451E+10,      /* J = 36 */
(PID.TID 0000.0001)                 8.667769319778070E+10,      /* J = 37 */
(PID.TID 0000.0001)                 7.406973659603806E+10,      /* J = 38 */
(PID.TID 0000.0001)                 6.110091968306404E+10,      /* J = 39 */
(PID.TID 0000.0001)                 4.783442523123634E+10       /* J = 40 */
(PID.TID 0000.0001)     ;
(PID.TID 0000.0001) 
(PID.TID 0000.0001)  MDSREADFIELD: opening global file: lev_t.bin
(PID.TID 0000.0001) // =======================================================
(PID.TID 0000.0001) // Field Initial Temperature at iteration          1
(PID.TID 0000.0001) // CMIN =         -8.538625820175458E-01
(PID.TID 0000.0001) // CMAX =          2.012045717433744E+00
(PID.TID 0000.0001) // CINT =          1.061447518315292E-01
(PID.TID 0000.0001) // SYMBOLS (CMIN->CMAX): -abcdefghijklmnopqrstuvwxyz+
(PID.TID 0000.0001) //                  0.0: .
(PID.TID 0000.0001) // RANGE I (Lo:Hi:Step):(   1:  90:   1)
(PID.TID 0000.0001) // RANGE J (Lo:Hi:Step):(  40:   1:  -1)
(PID.TID 0000.0001) // RANGE K (Lo:Hi:Step):(   1:   1:   1)
(PID.TID 0000.0001) // =======================================================
(PID.TID 0000.0001) K =   1
(PID.TID 0000.0001)                I=10      I=20      I=30      I=40      I=50      I=60      I=70      I=80      I=90
(PID.TID 0000.0001) |--J--|123456789|123456789|123456789|123456789|123456789|123456789|123456789|123456789|123456789|
(PID.TID 0000.0001)     40 ..........................................................................................
(PID.TID 0000.0001)     39 ..........................................................................................
(PID.TID 0000.0001)     38 ..........................................................................................
(PID.TID 0000.0001)     37 ..........................................................................................
(PID.TID 0000.0001)     36 ..........................................................................................
(PID.TID 0000.0001)     35 ..........................................................................................
(PID.TID 0000.0001)     34 ..........................................................................................
(PID.TID 0000.0001)     33 .......................................rrr.rrrrrrsss......................................
(PID.TID 0000.0001)     32 ......................................rrrr.rrrrssssss.....................................
(PID.TID 0000.0001)     31 ....................................rrrrrr.rrrrssssss......................yy.............
(PID.TID 0000.0001)     30 ....................................rrrr.rr.rrsssssssssss................yyyy.............
(PID.TID 0000.0001)     29 ...................................rrrr.rrr...rssrsrrssss...............yy.yyy.....++.....
(PID.TID 0000.0001)     28 ...................................rrrrrrrrrrrrrrrrrrr..................yyyxxx.....++.....
(PID.TID 0000.0001)     27 .....................................rrrrrrrr.r...rrr...................yyxxxx..zzzz+.....
(PID.TID 0000.0001)     26 ...............................tss..rrrrrrrrrrr....rrrrrr...............yyyxxx..zzzz......
(PID.TID 0000.0001)     25 ...............................stt..rrr..rq.....qrrrrqqqq.................www...zz........
(PID.TID 0000.0001)     24 ...............................tt...rrrrrqqqqqqqqqqqqqq.........................zzzz......
(PID.TID 0000.0001)     23 ....................................rrrr...qqqqq.qrrqrr.........................yzzz......
(PID.TID 0000.0001)     22 ...........................................qppppp..r.rr...................................
(PID.TID 0000.0001)     21 ...........................................pppppp.......................................yz
(PID.TID 0000.0001)     20 ............................................ppppppp...............................llp...zz
(PID.TID 0000.0001)     19 zz................qqq.......................pppp.pppp.............................lll.....
(PID.TID 0000.0001)     18 zz................qqq....oo.o.....................qpq.............................lll....z
(PID.TID 0000.0001)     17 zz................qqq.ooooooo.....................qp..............................lll....z
(PID.TID 0000.0001)     16 ++.................qq.oooooo...................nno................................llm....+
(PID.TID 0000.0001)     15 +......................noooo..................nnno................................llm....+
(PID.TID 0000.0001)     14 +...........nnn........nn.o...................nnnooo..............................mmm....+
(PID.TID 0000.0001)     13 .oo.........nnn...........oo..................nnnnnnoo....................................
(PID.TID 0000.0001)     12 nmm.......................nn..mmm.............ooooooooo...................................
(PID.TID 0000.0001)     11 oon.ll........ii...........mmmmmmmm...........n.noooooooo....................ggfgg........
(PID.TID 0000.0001)     10 on..l.hi......ii..............lmmmm.............mnnoooooo...................hhgggg........
(PID.TID 0000.0001)      9 .....ggg......................................nmmmmnnnnnn...................hhgggg........
(PID.TID 0000.0001)      8 .....fe......................................mmmmmm............................ff.........
(PID.TID 0000.0001)      7 .......bb...cc.............................llmmmm.................iii.....................
(PID.TID 0000.0001)      6 -aaaaabbbbbbccc............................lllm.............hhi.i.iii....................-
(PID.TID 0000.0001)      5 ---aaaaaaaaabbb...........................................hhhhhhhh.h.................-----
(PID.TID 0000.0001)      4 ..-aaaaa..................................................hhhhhhh....................----a
(PID.TID 0000.0001)      3 ..........................................................................................
(PID.TID 0000.0001)      2 ..........................................................................................
(PID.TID 0000.0001)      1 ..........................................................................................
(PID.TID 0000.0001) // =======================================================
(PID.TID 0000.0001) // END OF FIELD                                          =
(PID.TID 0000.0001) // =======================================================
(PID.TID 0000.0001) 
(PID.TID 0000.0001)  MDSREADFIELD: opening global file: lev_s.bin
(PID.TID 0000.0001) // =======================================================
(PID.TID 0000.0001) // Field Initial Salinity at iteration          1
(PID.TID 0000.0001) // CMIN =          3.464784170881562E+01
(PID.TID 0000.0001) // CMAX =          3.490372370636981E+01
(PID.TID 0000.0001) // CINT =          9.477111020525586E-03
(PID.TID 0000.0001) // SYMBOLS (CMIN->CMAX): -abcdefghijklmnopqrstuvwxyz+
(PID.TID 0000.0001) //                  0.0: .
(PID.TID 0000.0001) // RANGE I (Lo:Hi:Step):(   1:  90:   1)
(PID.TID 0000.0001) // RANGE J (Lo:Hi:Step):(  40:   1:  -1)
(PID.TID 0000.0001) // RANGE K (Lo:Hi:Step):(   1:   1:   1)
(PID.TID 0000.0001) // =======================================================
(PID.TID 0000.0001) K =   1
(PID.TID 0000.0001)                I=10      I=20      I=30      I=40      I=50      I=60      I=70      I=80      I=90
(PID.TID 0000.0001) |--J--|123456789|123456789|123456789|123456789|123456789|123456789|123456789|123456789|123456789|
(PID.TID 0000.0001)     40 ..........................................................................................
(PID.TID 0000.0001)     39 ..........................................................................................
(PID.TID 0000.0001)     38 ..........................................................................................
(PID.TID 0000.0001)     37 ..........................................................................................
(PID.TID 0000.0001)     36 ..........................................................................................
(PID.TID 0000.0001)     35 ..........................................................................................
(PID.TID 0000.0001)     34 ..........................................................................................
(PID.TID 0000.0001)     33 .......................................ddd.ddeeeeddd......................................
(PID.TID 0000.0001)     32 ......................................dddd.dddddddddd.....................................
(PID.TID 0000.0001)     31 ....................................edddde.eeedddddde......................+z.............
(PID.TID 0000.0001)     30 ....................................eefe.ee.eddddddddddee................+++z.............
(PID.TID 0000.0001)     29 ...................................ddee.dee...dddddeddddd...............++.zyy.....yz.....
(PID.TID 0000.0001)     28 ...................................cceebdeeeeeeddddded..................zzzyxx.....zz.....
(PID.TID 0000.0001)     27 .....................................deddeedd.e...dde...................zyyxxx..zzyzz.....
(PID.TID 0000.0001)     26 ...............................ddd..feeeeeeedef....eeeeee...............yzywww..z+zz......
(PID.TID 0000.0001)     25 ...............................ddc..edd..fe.....eeffffeee.................wwv...++........
(PID.TID 0000.0001)     24 ...............................dd...ddeffffeffefeeffeee.........................yyyz......
(PID.TID 0000.0001)     23 ....................................eded...effff.dffeee.........................yyzz......
(PID.TID 0000.0001)     22 ...........................................efffff..e.ee...................................
(PID.TID 0000.0001)     21 ...........................................fffgff.......................................yx
(PID.TID 0000.0001)     20 ............................................fghgffg...............................hin...xx
(PID.TID 0000.0001)     19 xy................ggf.......................fggg.ffff.............................iii.....
(PID.TID 0000.0001)     18 yy................cdd....gh.h.....................fff.............................ihh....y
(PID.TID 0000.0001)     17 yy................ddf.gggghhh.....................ff..............................ijj....y
(PID.TID 0000.0001)     16 yy.................fh.gggggi...................gff................................hii....y
(PID.TID 0000.0001)     15 y......................fgggh..................gggg................................gii....y
(PID.TID 0000.0001)     14 y...........ggg........gg.g...................gggggg..............................ijj....y
(PID.TID 0000.0001)     13 .ii.........ggg...........gg..................gggggfgg....................................
(PID.TID 0000.0001)     12 hhh.......................gg..ggg.............gggggfggg...................................
(PID.TID 0000.0001)     11 ggg.gf........dd...........hggggggg...........f.fggffffgg....................ccbcc........
(PID.TID 0000.0001)     10 gg..f.de......dd..............hgggg.............gfgggfggg...................edcccb........
(PID.TID 0000.0001)      9 .....ccd......................................fffffgggffg...................ccccbb........
(PID.TID 0000.0001)      8 .....cc......................................ffffff............................bb.........
(PID.TID 0000.0001)      7 .......bb...bb.............................efffff.................fff.....................
(PID.TID 0000.0001)      6 ---aaaaaaaabbbb............................efff.............fff.f.fff....................-
(PID.TID 0000.0001)      5 ---aaabaaaaaaaa...........................................ffgfffgf.f.................-----
(PID.TID 0000.0001)      4 ..-aabba..................................................fffffff....................-----
(PID.TID 0000.0001)      3 ..........................................................................................
(PID.TID 0000.0001)      2 ..........................................................................................
(PID.TID 0000.0001)      1 ..........................................................................................
(PID.TID 0000.0001) // =======================================================
(PID.TID 0000.0001) // END OF FIELD                                          =
(PID.TID 0000.0001) // =======================================================
(PID.TID 0000.0001) 
(PID.TID 0000.0001) Start initial hydrostatic pressure computation
(PID.TID 0000.0001) Pressure is predetermined for buoyancyRelation OCEANICP
(PID.TID 0000.0001) 
(PID.TID 0000.0001)  MDSREADFIELD: opening global file: trenberth_taux.bin
(PID.TID 0000.0001)  MDSREADFIELD: opening global file: trenberth_tauy.bin
(PID.TID 0000.0001)  MDSREADFIELD: opening global file: shi_qnet.bin
(PID.TID 0000.0001)  MDSREADFIELD: opening global file: shi_empmr.bin
(PID.TID 0000.0001)  MDSREADFIELD: opening global file: lev_sst.bin
(PID.TID 0000.0001)  MDSREADFIELD: opening global file: deltageopotjmd95.bin
(PID.TID 0000.0001) // =======================================================
(PID.TID 0000.0001) // Model current state
(PID.TID 0000.0001) // =======================================================
(PID.TID 0000.0001) 
(PID.TID 0000.0001) // =======================================================
(PID.TID 0000.0001) // Begin MONITOR dynamic field statistics
(PID.TID 0000.0001) // =======================================================
(PID.TID 0000.0001) %MON time_tsnumber                =                     0
(PID.TID 0000.0001) %MON time_secondsf                =   0.0000000000000E+00
(PID.TID 0000.0001) %MON dynstat_eta_max              =   0.0000000000000E+00
(PID.TID 0000.0001) %MON dynstat_eta_min              =   0.0000000000000E+00
(PID.TID 0000.0001) %MON dynstat_eta_mean             =   0.0000000000000E+00
(PID.TID 0000.0001) %MON dynstat_eta_sd               =   0.0000000000000E+00
(PID.TID 0000.0001) %MON dynstat_eta_del2             =   0.0000000000000E+00
(PID.TID 0000.0001) %MON dynstat_uvel_max             =   0.0000000000000E+00
(PID.TID 0000.0001) %MON dynstat_uvel_min             =   0.0000000000000E+00
(PID.TID 0000.0001) %MON dynstat_uvel_mean            =   0.0000000000000E+00
(PID.TID 0000.0001) %MON dynstat_uvel_sd              =   0.0000000000000E+00
(PID.TID 0000.0001) %MON dynstat_uvel_del2            =   0.0000000000000E+00
(PID.TID 0000.0001) %MON dynstat_vvel_max             =   0.0000000000000E+00
(PID.TID 0000.0001) %MON dynstat_vvel_min             =   0.0000000000000E+00
(PID.TID 0000.0001) %MON dynstat_vvel_mean            =   0.0000000000000E+00
(PID.TID 0000.0001) %MON dynstat_vvel_sd              =   0.0000000000000E+00
(PID.TID 0000.0001) %MON dynstat_vvel_del2            =   0.0000000000000E+00
(PID.TID 0000.0001) %MON dynstat_wvel_max             =   0.0000000000000E+00
(PID.TID 0000.0001) %MON dynstat_wvel_min             =   0.0000000000000E+00
(PID.TID 0000.0001) %MON dynstat_wvel_mean            =   0.0000000000000E+00
(PID.TID 0000.0001) %MON dynstat_wvel_sd              =   0.0000000000000E+00
(PID.TID 0000.0001) %MON dynstat_wvel_del2            =   0.0000000000000E+00
(PID.TID 0000.0001) %MON dynstat_theta_max            =   2.9733511003948E+01
(PID.TID 0000.0001) %MON dynstat_theta_min            =  -2.6263839329562E+00
(PID.TID 0000.0001) %MON dynstat_theta_mean           =   3.6018664655656E+00
(PID.TID 0000.0001) %MON dynstat_theta_sd             =   4.4018845380981E+00
(PID.TID 0000.0001) %MON dynstat_theta_del2           =   1.5429255071065E-01
(PID.TID 0000.0001) %MON dynstat_salt_max             =   3.7475629659304E+01
(PID.TID 0000.0001) %MON dynstat_salt_min             =   2.9752769471420E+01
(PID.TID 0000.0001) %MON dynstat_salt_mean            =   3.4718001015839E+01
(PID.TID 0000.0001) %MON dynstat_salt_sd              =   2.9462524950605E-01
(PID.TID 0000.0001) %MON dynstat_salt_del2            =   2.6846692931047E-02
(PID.TID 0000.0001) %MON advcfl_uvel_max              =   0.0000000000000E+00
(PID.TID 0000.0001) %MON advcfl_vvel_max              =   0.0000000000000E+00
(PID.TID 0000.0001) %MON advcfl_wvel_max              =   0.0000000000000E+00
(PID.TID 0000.0001) %MON advcfl_W_hf_max              =   0.0000000000000E+00
(PID.TID 0000.0001) %MON pe_b_mean                    =   0.0000000000000E+00
(PID.TID 0000.0001) %MON ke_max                       =   0.0000000000000E+00
(PID.TID 0000.0001) %MON ke_mean                      =   0.0000000000000E+00
(PID.TID 0000.0001) %MON ke_vol                       =   1.3442141716554E+22
(PID.TID 0000.0001) %MON vort_r_min                   =   0.0000000000000E+00
(PID.TID 0000.0001) %MON vort_r_max                   =   0.0000000000000E+00
(PID.TID 0000.0001) %MON vort_a_mean                  =  -2.4531015880774E-05
(PID.TID 0000.0001) %MON vort_a_sd                    =   7.3436042941019E-05
(PID.TID 0000.0001) %MON vort_p_mean                  =  -2.9390264918857E-05
(PID.TID 0000.0001) %MON vort_p_sd                    =   1.0331963168452E-04
(PID.TID 0000.0001) %MON surfExpan_theta_mean         =   0.0000000000000E+00
(PID.TID 0000.0001) %MON surfExpan_salt_mean          =   0.0000000000000E+00
(PID.TID 0000.0001) // =======================================================
(PID.TID 0000.0001) // End MONITOR dynamic field statistics
(PID.TID 0000.0001) // =======================================================
 S/R EXTERNAL_FIELDS_LOAD: Reading new data  0. 0
(PID.TID 0000.0001)  MDSREADFIELD: opening global file: trenberth_taux.bin
(PID.TID 0000.0001)  MDSREADFIELD: opening global file: trenberth_taux.bin
(PID.TID 0000.0001)  MDSREADFIELD: opening global file: trenberth_tauy.bin
(PID.TID 0000.0001)  MDSREADFIELD: opening global file: trenberth_tauy.bin
(PID.TID 0000.0001)  MDSREADFIELD: opening global file: shi_qnet.bin
(PID.TID 0000.0001)  MDSREADFIELD: opening global file: shi_qnet.bin
(PID.TID 0000.0001)  MDSREADFIELD: opening global file: shi_empmr.bin
(PID.TID 0000.0001)  MDSREADFIELD: opening global file: shi_empmr.bin
(PID.TID 0000.0001)  MDSREADFIELD: opening global file: lev_sst.bin
(PID.TID 0000.0001)  MDSREADFIELD: opening global file: lev_sst.bin
(PID.TID 0000.0001)  MDSREADFIELD: opening global file: deltageopotjmd95.bin
(PID.TID 0000.0001)  MDSREADFIELD: opening global file: deltageopotjmd95.bin
time,SST,SSS,fu,fv,Q,E-P,i0,i1,a,b =   0.0000E+00  2.4948E+01  0.0000E+00 -1.0804E-02  2.9462E-02 -8.6505E+01 -5.1109E-09    12     1  5.3333E-01  4.6667E-01
time,fu0,fu1,fu =   0.0000E+00 -1.3840E-02 -8.1474E-03 -1.0804E-02  5.3333E-01  4.6667E-01
 cg2d: Sum(rhs),rhsMax =  -1.06858966120171E-15  1.71163425510701E+02
(PID.TID 0000.0001)                    cg2d_init_res =    9.36692322438539E+00
(PID.TID 0000.0001)                       cg2d_iters =   107
(PID.TID 0000.0001)                         cg2d_res =    9.63027430230429E-10
(PID.TID 0000.0001) // =======================================================
(PID.TID 0000.0001) // Begin MONITOR dynamic field statistics
(PID.TID 0000.0001) // =======================================================
(PID.TID 0000.0001) %MON time_tsnumber                =                     1
(PID.TID 0000.0001) %MON time_secondsf                =   1.7280000000000E+05
(PID.TID 0000.0001) %MON dynstat_eta_max              =   4.1657054247862E+04
(PID.TID 0000.0001) %MON dynstat_eta_min              =  -8.8276366926492E+04
(PID.TID 0000.0001) %MON dynstat_eta_mean             =  -1.5357512087151E-12
(PID.TID 0000.0001) %MON dynstat_eta_sd               =   3.6901404654730E+04
(PID.TID 0000.0001) %MON dynstat_eta_del2             =   2.3562066746139E+04
(PID.TID 0000.0001) %MON dynstat_uvel_max             =   3.5125570520590E-02
(PID.TID 0000.0001) %MON dynstat_uvel_min             =  -3.5357333914090E-02
(PID.TID 0000.0001) %MON dynstat_uvel_mean            =  -8.4137015636217E-04
(PID.TID 0000.0001) %MON dynstat_uvel_sd              =   2.2142796997946E-03
(PID.TID 0000.0001) %MON dynstat_uvel_del2            =   7.7406181280615E-04
(PID.TID 0000.0001) %MON dynstat_vvel_max             =   3.5007899096567E-02
(PID.TID 0000.0001) %MON dynstat_vvel_min             =  -2.4495986172964E-02
(PID.TID 0000.0001) %MON dynstat_vvel_mean            =   1.0871904643115E-03
(PID.TID 0000.0001) %MON dynstat_vvel_sd              =   2.2888120494056E-03
(PID.TID 0000.0001) %MON dynstat_vvel_del2            =   7.6102694666389E-04
(PID.TID 0000.0001) %MON dynstat_wvel_max             =   5.0250209032149E-01
(PID.TID 0000.0001) %MON dynstat_wvel_min             =  -6.2689411258330E-01
(PID.TID 0000.0001) %MON dynstat_wvel_mean            =  -6.6717820356569E-03
(PID.TID 0000.0001) %MON dynstat_wvel_sd              =   1.5353629408820E-01
(PID.TID 0000.0001) %MON dynstat_wvel_del2            =   6.1610655097649E-02
(PID.TID 0000.0001) %MON dynstat_theta_max            =   2.9713265304180E+01
(PID.TID 0000.0001) %MON dynstat_theta_min            =  -2.6183664565810E+00
(PID.TID 0000.0001) %MON dynstat_theta_mean           =   3.6019910573993E+00
(PID.TID 0000.0001) %MON dynstat_theta_sd             =   4.4015315967486E+00
(PID.TID 0000.0001) %MON dynstat_theta_del2           =   1.5479567598383E-01
(PID.TID 0000.0001) %MON dynstat_salt_max             =   3.7478618521905E+01
(PID.TID 0000.0001) %MON dynstat_salt_min             =   2.9762213911218E+01
(PID.TID 0000.0001) %MON dynstat_salt_mean            =   3.4718001015839E+01
(PID.TID 0000.0001) %MON dynstat_salt_sd              =   2.9451022507209E-01
(PID.TID 0000.0001) %MON dynstat_salt_del2            =   2.6959492538962E-02
(PID.TID 0000.0001) %MON advcfl_uvel_max              =   2.1969108758923E-02
(PID.TID 0000.0001) %MON advcfl_vvel_max              =   1.3602946670527E-02
(PID.TID 0000.0001) %MON advcfl_wvel_max              =   4.1333496051732E-02
(PID.TID 0000.0001) %MON advcfl_W_hf_max              =   4.1333496051731E-02
(PID.TID 0000.0001) %MON pe_b_mean                    =  -6.4368928338364E-03
(PID.TID 0000.0001) %MON ke_max                       =   5.7558563512406E-04
(PID.TID 0000.0001) %MON ke_mean                      =   5.4208973968002E-06
(PID.TID 0000.0001) %MON ke_vol                       =   1.3442141716554E+22
(PID.TID 0000.0001) %MON vort_r_min                   =  -1.1938183909510E-07
(PID.TID 0000.0001) %MON vort_r_max                   =   1.5594949449136E-07
(PID.TID 0000.0001) %MON vort_a_mean                  =  -2.4531015891592E-05
(PID.TID 0000.0001) %MON vort_a_sd                    =   7.3435845880135E-05
(PID.TID 0000.0001) %MON vort_p_mean                  =  -2.9390264931818E-05
(PID.TID 0000.0001) %MON vort_p_sd                    =   1.0331909362915E-04
(PID.TID 0000.0001) %MON surfExpan_theta_mean         =   6.7339828297791E-02
(PID.TID 0000.0001) %MON surfExpan_salt_mean          =  -2.2621691899972E-04
(PID.TID 0000.0001) // =======================================================
(PID.TID 0000.0001) // End MONITOR dynamic field statistics
(PID.TID 0000.0001) // =======================================================
time,SST,SSS,fu,fv,Q,E-P,i0,i1,a,b =   1.7280E+05  2.5087E+01  0.0000E+00 -1.0425E-02  2.8680E-02 -8.7292E+01 -5.1109E-09    12     1  6.0000E-01  4.0000E-01
time,fu0,fu1,fu =   1.7280E+05 -1.3840E-02 -8.1474E-03 -1.0425E-02  6.0000E-01  4.0000E-01
 cg2d: Sum(rhs),rhsMax =   2.04003480774873E-15  1.74491050128397E+02
(PID.TID 0000.0001)                    cg2d_init_res =    2.47708251814602E-01
(PID.TID 0000.0001)                       cg2d_iters =   100
(PID.TID 0000.0001)                         cg2d_res =    8.69463897332346E-10
(PID.TID 0000.0001) // =======================================================
(PID.TID 0000.0001) // Begin MONITOR dynamic field statistics
(PID.TID 0000.0001) // =======================================================
(PID.TID 0000.0001) %MON time_tsnumber                =                     2
(PID.TID 0000.0001) %MON time_secondsf                =   3.4560000000000E+05
(PID.TID 0000.0001) %MON dynstat_eta_max              =   4.8800885451683E+04
(PID.TID 0000.0001) %MON dynstat_eta_min              =  -8.9519103267940E+04
(PID.TID 0000.0001) %MON dynstat_eta_mean             =   0.0000000000000E+00
(PID.TID 0000.0001) %MON dynstat_eta_sd               =   3.9643958942461E+04
(PID.TID 0000.0001) %MON dynstat_eta_del2             =   2.4287467782550E+04
(PID.TID 0000.0001) %MON dynstat_uvel_max             =   6.3634001837209E-02
(PID.TID 0000.0001) %MON dynstat_uvel_min             =  -4.0770290811275E-02
(PID.TID 0000.0001) %MON dynstat_uvel_mean            =  -1.1816096659138E-03
(PID.TID 0000.0001) %MON dynstat_uvel_sd              =   2.2777904989430E-03
(PID.TID 0000.0001) %MON dynstat_uvel_del2            =   8.3222277279290E-04
(PID.TID 0000.0001) %MON dynstat_vvel_max             =   5.2234906396762E-02
(PID.TID 0000.0001) %MON dynstat_vvel_min             =  -3.0675599149304E-02
(PID.TID 0000.0001) %MON dynstat_vvel_mean            =   1.5483551430092E-03
(PID.TID 0000.0001) %MON dynstat_vvel_sd              =   2.9966033014778E-03
(PID.TID 0000.0001) %MON dynstat_vvel_del2            =   9.0390612271295E-04
(PID.TID 0000.0001) %MON dynstat_wvel_max             =   6.3728869166293E-01
(PID.TID 0000.0001) %MON dynstat_wvel_min             =  -7.8830947903449E-01
(PID.TID 0000.0001) %MON dynstat_wvel_mean            =  -3.3033109002126E-03
(PID.TID 0000.0001) %MON dynstat_wvel_sd              =   8.9420018279300E-02
(PID.TID 0000.0001) %MON dynstat_wvel_del2            =   4.6781531729732E-02
(PID.TID 0000.0001) %MON dynstat_theta_max            =   2.9688317804809E+01
(PID.TID 0000.0001) %MON dynstat_theta_min            =  -2.6127583275514E+00
(PID.TID 0000.0001) %MON dynstat_theta_mean           =   3.6019450094693E+00
(PID.TID 0000.0001) %MON dynstat_theta_sd             =   4.4012662195726E+00
(PID.TID 0000.0001) %MON dynstat_theta_del2           =   1.5406689412191E-01
(PID.TID 0000.0001) %MON dynstat_salt_max             =   3.7481694673917E+01
(PID.TID 0000.0001) %MON dynstat_salt_min             =   2.9765580138603E+01
(PID.TID 0000.0001) %MON dynstat_salt_mean            =   3.4718001573786E+01
(PID.TID 0000.0001) %MON dynstat_salt_sd              =   2.9441685784095E-01
(PID.TID 0000.0001) %MON dynstat_salt_del2            =   2.7040206810268E-02
(PID.TID 0000.0001) %MON advcfl_uvel_max              =   3.3744380940882E-02
(PID.TID 0000.0001) %MON advcfl_vvel_max              =   2.0296809131422E-02
(PID.TID 0000.0001) %MON advcfl_wvel_max              =   5.3361533856158E-02
(PID.TID 0000.0001) %MON advcfl_W_hf_max              =   5.3361533856158E-02
(PID.TID 0000.0001) %MON pe_b_mean                    =  -7.1800599538238E-03
(PID.TID 0000.0001) %MON ke_max                       =   1.7108386072513E-03
(PID.TID 0000.0001) %MON ke_mean                      =   8.0817914725128E-06
(PID.TID 0000.0001) %MON ke_vol                       =   1.3442141716554E+22
(PID.TID 0000.0001) %MON vort_r_min                   =  -1.7583665387326E-07
(PID.TID 0000.0001) %MON vort_r_max                   =   1.8567060982646E-07
(PID.TID 0000.0001) %MON vort_a_mean                  =  -2.4531016005854E-05
(PID.TID 0000.0001) %MON vort_a_sd                    =   7.3435759247918E-05
(PID.TID 0000.0001) %MON vort_p_mean                  =  -2.9399877548461E-05
(PID.TID 0000.0001) %MON vort_p_sd                    =   1.0336783838992E-04
(PID.TID 0000.0001) %MON surfExpan_theta_mean         =   3.6681744603646E-02
(PID.TID 0000.0001) %MON surfExpan_salt_mean          =  -9.6950610672113E-05
(PID.TID 0000.0001) // =======================================================
(PID.TID 0000.0001) // End MONITOR dynamic field statistics
(PID.TID 0000.0001) // =======================================================
time,SST,SSS,fu,fv,Q,E-P,i0,i1,a,b =   3.4560E+05  2.5227E+01  0.0000E+00 -1.0045E-02  2.7897E-02 -8.8079E+01 -5.1109E-09    12     1  6.6667E-01  3.3333E-01
time,fu0,fu1,fu =   3.4560E+05 -1.3840E-02 -8.1474E-03 -1.0045E-02  6.6667E-01  3.3333E-01
 cg2d: Sum(rhs),rhsMax =  -1.33226762955019E-15  1.72945931122570E+02
(PID.TID 0000.0001)                    cg2d_init_res =    1.06014953806108E-01
(PID.TID 0000.0001)                       cg2d_iters =    99
(PID.TID 0000.0001)                         cg2d_res =    8.15178257136947E-10
(PID.TID 0000.0001) // =======================================================
(PID.TID 0000.0001) // Begin MONITOR dynamic field statistics
(PID.TID 0000.0001) // =======================================================
(PID.TID 0000.0001) %MON time_tsnumber                =                     3
(PID.TID 0000.0001) %MON time_secondsf                =   5.1840000000000E+05
(PID.TID 0000.0001) %MON dynstat_eta_max              =   5.1297596094536E+04
(PID.TID 0000.0001) %MON dynstat_eta_min              =  -9.1295459277227E+04
(PID.TID 0000.0001) %MON dynstat_eta_mean             =  -4.8266466559617E-12
(PID.TID 0000.0001) %MON dynstat_eta_sd               =   3.9696770276978E+04
(PID.TID 0000.0001) %MON dynstat_eta_del2             =   2.3981509011562E+04
(PID.TID 0000.0001) %MON dynstat_uvel_max             =   7.1974341706756E-02
(PID.TID 0000.0001) %MON dynstat_uvel_min             =  -5.1968556095497E-02
(PID.TID 0000.0001) %MON dynstat_uvel_mean            =  -1.1614086888245E-03
(PID.TID 0000.0001) %MON dynstat_uvel_sd              =   2.7063555231913E-03
(PID.TID 0000.0001) %MON dynstat_uvel_del2            =   1.1074014189491E-03
(PID.TID 0000.0001) %MON dynstat_vvel_max             =   5.4077287455517E-02
(PID.TID 0000.0001) %MON dynstat_vvel_min             =  -4.5486544133521E-02
(PID.TID 0000.0001) %MON dynstat_vvel_mean            =   1.5247160880464E-03
(PID.TID 0000.0001) %MON dynstat_vvel_sd              =   4.1663361150905E-03
(PID.TID 0000.0001) %MON dynstat_vvel_del2            =   1.2424148905348E-03
(PID.TID 0000.0001) %MON dynstat_wvel_max             =   8.8862454219656E-01
(PID.TID 0000.0001) %MON dynstat_wvel_min             =  -1.0818412023476E+00
(PID.TID 0000.0001) %MON dynstat_wvel_mean            =  -1.5498389792616E-03
(PID.TID 0000.0001) %MON dynstat_wvel_sd              =   1.2224221180564E-01
(PID.TID 0000.0001) %MON dynstat_wvel_del2            =   6.2569732073599E-02
(PID.TID 0000.0001) %MON dynstat_theta_max            =   2.9675051451633E+01
(PID.TID 0000.0001) %MON dynstat_theta_min            =  -2.6038579281500E+00
(PID.TID 0000.0001) %MON dynstat_theta_mean           =   3.6021604300180E+00
(PID.TID 0000.0001) %MON dynstat_theta_sd             =   4.4012819006897E+00
(PID.TID 0000.0001) %MON dynstat_theta_del2           =   1.5212462181663E-01
(PID.TID 0000.0001) %MON dynstat_salt_max             =   3.7435160944134E+01
(PID.TID 0000.0001) %MON dynstat_salt_min             =   2.9770563581341E+01
(PID.TID 0000.0001) %MON dynstat_salt_mean            =   3.4718001226688E+01
(PID.TID 0000.0001) %MON dynstat_salt_sd              =   2.9442255053708E-01
(PID.TID 0000.0001) %MON dynstat_salt_del2            =   2.6913038671072E-02
(PID.TID 0000.0001) %MON advcfl_uvel_max              =   4.2013703142423E-02
(PID.TID 0000.0001) %MON advcfl_vvel_max              =   2.1012699314375E-02
(PID.TID 0000.0001) %MON advcfl_wvel_max              =   6.7819187235153E-02
(PID.TID 0000.0001) %MON advcfl_W_hf_max              =   6.7819187235153E-02
(PID.TID 0000.0001) %MON pe_b_mean                    =  -8.1525628836271E-03
(PID.TID 0000.0001) %MON ke_max                       =   2.0313693430968E-03
(PID.TID 0000.0001) %MON ke_mean                      =   1.2750677697987E-05
(PID.TID 0000.0001) %MON ke_vol                       =   1.3442141716554E+22
(PID.TID 0000.0001) %MON vort_r_min                   =  -2.0971452288325E-07
(PID.TID 0000.0001) %MON vort_r_max                   =   2.3822997751853E-07
(PID.TID 0000.0001) %MON vort_a_mean                  =  -2.4531016156360E-05
(PID.TID 0000.0001) %MON vort_a_sd                    =   7.3435757775263E-05
(PID.TID 0000.0001) %MON vort_p_mean                  =  -2.9400606300679E-05
(PID.TID 0000.0001) %MON vort_p_sd                    =   1.0337416737871E-04
(PID.TID 0000.0001) %MON surfExpan_theta_mean         =   1.7624238245023E-02
(PID.TID 0000.0001) %MON surfExpan_salt_mean          =  -2.8926157760784E-04
(PID.TID 0000.0001) // =======================================================
(PID.TID 0000.0001) // End MONITOR dynamic field statistics
(PID.TID 0000.0001) // =======================================================
time,SST,SSS,fu,fv,Q,E-P,i0,i1,a,b =   5.1840E+05  2.5366E+01  0.0000E+00 -9.6655E-03  2.7114E-02 -8.8865E+01 -5.1109E-09    12     1  7.3333E-01  2.6667E-01
time,fu0,fu1,fu =   5.1840E+05 -1.3840E-02 -8.1474E-03 -9.6655E-03  7.3333E-01  2.6667E-01
 cg2d: Sum(rhs),rhsMax =   9.15933995315754E-16  1.72905620506250E+02
(PID.TID 0000.0001)                    cg2d_init_res =    8.88323600675198E-03
(PID.TID 0000.0001)                       cg2d_iters =    91
(PID.TID 0000.0001)                         cg2d_res =    9.15912190931805E-10
(PID.TID 0000.0001) // =======================================================
(PID.TID 0000.0001) // Begin MONITOR dynamic field statistics
(PID.TID 0000.0001) // =======================================================
(PID.TID 0000.0001) %MON time_tsnumber                =                     4
(PID.TID 0000.0001) %MON time_secondsf                =   6.9120000000000E+05
(PID.TID 0000.0001) %MON dynstat_eta_max              =   5.1013669238347E+04
(PID.TID 0000.0001) %MON dynstat_eta_min              =  -9.2901613710500E+04
(PID.TID 0000.0001) %MON dynstat_eta_mean             =   3.0715024174302E-12
(PID.TID 0000.0001) %MON dynstat_eta_sd               =   4.0207165642733E+04
(PID.TID 0000.0001) %MON dynstat_eta_del2             =   2.3955142724577E+04
(PID.TID 0000.0001) %MON dynstat_uvel_max             =   6.1609450718201E-02
(PID.TID 0000.0001) %MON dynstat_uvel_min             =  -7.8156767153649E-02
(PID.TID 0000.0001) %MON dynstat_uvel_mean            =  -8.8769546381929E-04
(PID.TID 0000.0001) %MON dynstat_uvel_sd              =   3.1026042117329E-03
(PID.TID 0000.0001) %MON dynstat_uvel_del2            =   1.3422795011798E-03
(PID.TID 0000.0001) %MON dynstat_vvel_max             =   5.0830161763294E-02
(PID.TID 0000.0001) %MON dynstat_vvel_min             =  -5.9423759556913E-02
(PID.TID 0000.0001) %MON dynstat_vvel_mean            =   1.2053469042913E-03
(PID.TID 0000.0001) %MON dynstat_vvel_sd              =   5.2716606571475E-03
(PID.TID 0000.0001) %MON dynstat_vvel_del2            =   1.5552158388223E-03
(PID.TID 0000.0001) %MON dynstat_wvel_max             =   1.1534444334346E+00
(PID.TID 0000.0001) %MON dynstat_wvel_min             =  -1.3278288330987E+00
(PID.TID 0000.0001) %MON dynstat_wvel_mean            =  -9.7457660745775E-04
(PID.TID 0000.0001) %MON dynstat_wvel_sd              =   1.4928687545455E-01
(PID.TID 0000.0001) %MON dynstat_wvel_del2            =   7.3883504039519E-02
(PID.TID 0000.0001) %MON dynstat_theta_max            =   2.9664831915469E+01
(PID.TID 0000.0001) %MON dynstat_theta_min            =  -2.5955295728677E+00
(PID.TID 0000.0001) %MON dynstat_theta_mean           =   3.6023453975681E+00
(PID.TID 0000.0001) %MON dynstat_theta_sd             =   4.4013280690379E+00
(PID.TID 0000.0001) %MON dynstat_theta_del2           =   1.4997265774337E-01
(PID.TID 0000.0001) %MON dynstat_salt_max             =   3.7435137774161E+01
(PID.TID 0000.0001) %MON dynstat_salt_min             =   2.9775143563911E+01
(PID.TID 0000.0001) %MON dynstat_salt_mean            =   3.4718001734933E+01
(PID.TID 0000.0001) %MON dynstat_salt_sd              =   2.9441625378716E-01
(PID.TID 0000.0001) %MON dynstat_salt_del2            =   2.6758708214579E-02
(PID.TID 0000.0001) %MON advcfl_uvel_max              =   4.9443930325411E-02
(PID.TID 0000.0001) %MON advcfl_vvel_max              =   2.3090166878771E-02
(PID.TID 0000.0001) %MON advcfl_wvel_max              =   8.2187504604562E-02
(PID.TID 0000.0001) %MON advcfl_W_hf_max              =   8.2187504604562E-02
(PID.TID 0000.0001) %MON pe_b_mean                    =  -8.3976387883557E-03
(PID.TID 0000.0001) %MON ke_max                       =   2.4116635839909E-03
(PID.TID 0000.0001) %MON ke_mean                      =   1.7824354847270E-05
(PID.TID 0000.0001) %MON ke_vol                       =   1.3442141716554E+22
(PID.TID 0000.0001) %MON vort_r_min                   =  -2.2419184362316E-07
(PID.TID 0000.0001) %MON vort_r_max                   =   2.8406104578604E-07
(PID.TID 0000.0001) %MON vort_a_mean                  =  -2.4531016293400E-05
(PID.TID 0000.0001) %MON vort_a_sd                    =   7.3435817992504E-05
(PID.TID 0000.0001) %MON vort_p_mean                  =  -2.9400708514224E-05
(PID.TID 0000.0001) %MON vort_p_sd                    =   1.0337649613391E-04
(PID.TID 0000.0001) %MON surfExpan_theta_mean         =   1.0062351754389E-02
(PID.TID 0000.0001) %MON surfExpan_salt_mean          =  -2.3718679371201E-04
(PID.TID 0000.0001) // =======================================================
(PID.TID 0000.0001) // End MONITOR dynamic field statistics
(PID.TID 0000.0001) // =======================================================
time,SST,SSS,fu,fv,Q,E-P,i0,i1,a,b =   6.9120E+05  2.5505E+01  0.0000E+00 -9.2860E-03  2.6332E-02 -8.9652E+01 -5.1109E-09    12     1  8.0000E-01  2.0000E-01
time,fu0,fu1,fu =   6.9120E+05 -1.3840E-02 -8.1474E-03 -9.2860E-03  8.0000E-01  2.0000E-01
 cg2d: Sum(rhs),rhsMax =   2.22044604925031E-16  1.72918688151779E+02
(PID.TID 0000.0001)                    cg2d_init_res =    4.68680662120545E-03
(PID.TID 0000.0001)                       cg2d_iters =    94
(PID.TID 0000.0001)                         cg2d_res =    9.71861085145029E-10
(PID.TID 0000.0001) // =======================================================
(PID.TID 0000.0001) // Begin MONITOR dynamic field statistics
(PID.TID 0000.0001) // =======================================================
(PID.TID 0000.0001) %MON time_tsnumber                =                     5
(PID.TID 0000.0001) %MON time_secondsf                =   8.6400000000000E+05
(PID.TID 0000.0001) %MON dynstat_eta_max              =   5.8773265929172E+04
(PID.TID 0000.0001) %MON dynstat_eta_min              =  -9.4342778424799E+04
(PID.TID 0000.0001) %MON dynstat_eta_mean             =   8.7757211926576E-13
(PID.TID 0000.0001) %MON dynstat_eta_sd               =   4.0653010601909E+04
(PID.TID 0000.0001) %MON dynstat_eta_del2             =   2.3953583552304E+04
(PID.TID 0000.0001) %MON dynstat_uvel_max             =   5.9543741290497E-02
(PID.TID 0000.0001) %MON dynstat_uvel_min             =  -9.1774781464271E-02
(PID.TID 0000.0001) %MON dynstat_uvel_mean            =  -4.7330448007179E-04
(PID.TID 0000.0001) %MON dynstat_uvel_sd              =   3.5781742490423E-03
(PID.TID 0000.0001) %MON dynstat_uvel_del2            =   1.5504530643950E-03
(PID.TID 0000.0001) %MON dynstat_vvel_max             =   6.0695127620981E-02
(PID.TID 0000.0001) %MON dynstat_vvel_min             =  -7.2172496875253E-02
(PID.TID 0000.0001) %MON dynstat_vvel_mean            =   7.4645318590914E-04
(PID.TID 0000.0001) %MON dynstat_vvel_sd              =   6.3128254226081E-03
(PID.TID 0000.0001) %MON dynstat_vvel_del2            =   1.8433813940819E-03
(PID.TID 0000.0001) %MON dynstat_wvel_max             =   1.4020031947399E+00
(PID.TID 0000.0001) %MON dynstat_wvel_min             =  -1.5220720141168E+00
(PID.TID 0000.0001) %MON dynstat_wvel_mean            =  -6.8519275019637E-04
(PID.TID 0000.0001) %MON dynstat_wvel_sd              =   1.7381308264107E-01
(PID.TID 0000.0001) %MON dynstat_wvel_del2            =   8.3626760865351E-02
(PID.TID 0000.0001) %MON dynstat_theta_max            =   2.9661584828092E+01
(PID.TID 0000.0001) %MON dynstat_theta_min            =  -2.5873153163842E+00
(PID.TID 0000.0001) %MON dynstat_theta_mean           =   3.6024982630192E+00
(PID.TID 0000.0001) %MON dynstat_theta_sd             =   4.4013883503210E+00
(PID.TID 0000.0001) %MON dynstat_theta_del2           =   1.4774208977677E-01
(PID.TID 0000.0001) %MON dynstat_salt_max             =   3.7435038904239E+01
(PID.TID 0000.0001) %MON dynstat_salt_min             =   2.9777804482138E+01
(PID.TID 0000.0001) %MON dynstat_salt_mean            =   3.4718001594751E+01
(PID.TID 0000.0001) %MON dynstat_salt_sd              =   2.9441805888558E-01
(PID.TID 0000.0001) %MON dynstat_salt_del2            =   2.6634288443967E-02
(PID.TID 0000.0001) %MON advcfl_uvel_max              =   5.3867357173889E-02
(PID.TID 0000.0001) %MON advcfl_vvel_max              =   2.8043917270348E-02
(PID.TID 0000.0001) %MON advcfl_wvel_max              =   9.5633397116075E-02
(PID.TID 0000.0001) %MON advcfl_W_hf_max              =   9.5633397116075E-02
(PID.TID 0000.0001) %MON pe_b_mean                    =  -8.4402715706066E-03
(PID.TID 0000.0001) %MON ke_max                       =   3.6258186599290E-03
(PID.TID 0000.0001) %MON ke_mean                      =   2.4012655699250E-05
(PID.TID 0000.0001) %MON ke_vol                       =   1.3442141716554E+22
(PID.TID 0000.0001) %MON vort_r_min                   =  -2.5879667942763E-07
(PID.TID 0000.0001) %MON vort_r_max                   =   3.0034924566235E-07
(PID.TID 0000.0001) %MON vort_a_mean                  =  -2.4531016372283E-05
(PID.TID 0000.0001) %MON vort_a_sd                    =   7.3435913020686E-05
(PID.TID 0000.0001) %MON vort_p_mean                  =  -2.9400840467782E-05
(PID.TID 0000.0001) %MON vort_p_sd                    =   1.0337802945390E-04
(PID.TID 0000.0001) %MON surfExpan_theta_mean         =   6.0157007249984E-03
(PID.TID 0000.0001) %MON surfExpan_salt_mean          =  -1.1548534830252E-04
(PID.TID 0000.0001) // =======================================================
(PID.TID 0000.0001) // End MONITOR dynamic field statistics
(PID.TID 0000.0001) // =======================================================
time,SST,SSS,fu,fv,Q,E-P,i0,i1,a,b =   8.6400E+05  2.5645E+01  0.0000E+00 -8.9065E-03  2.5549E-02 -9.0439E+01 -5.1109E-09    12     1  8.6667E-01  1.3333E-01
time,fu0,fu1,fu =   8.6400E+05 -1.3840E-02 -8.1474E-03 -8.9065E-03  8.6667E-01  1.3333E-01
 cg2d: Sum(rhs),rhsMax =  -2.49800180540660E-15  1.72928023652381E+02
(PID.TID 0000.0001)                    cg2d_init_res =    3.45139525072487E-03
(PID.TID 0000.0001)                       cg2d_iters =    91
(PID.TID 0000.0001)                         cg2d_res =    9.78819813440214E-10
(PID.TID 0000.0001) // =======================================================
(PID.TID 0000.0001) // Begin MONITOR dynamic field statistics
(PID.TID 0000.0001) // =======================================================
(PID.TID 0000.0001) %MON time_tsnumber                =                     6
(PID.TID 0000.0001) %MON time_secondsf                =   1.0368000000000E+06
(PID.TID 0000.0001) %MON dynstat_eta_max              =   6.2209257078888E+04
(PID.TID 0000.0001) %MON dynstat_eta_min              =  -9.5072820907862E+04
(PID.TID 0000.0001) %MON dynstat_eta_mean             =  -8.7757211926576E-12
(PID.TID 0000.0001) %MON dynstat_eta_sd               =   4.0801315585467E+04
(PID.TID 0000.0001) %MON dynstat_eta_del2             =   2.3953933612736E+04
(PID.TID 0000.0001) %MON dynstat_uvel_max             =   7.3968237632696E-02
(PID.TID 0000.0001) %MON dynstat_uvel_min             =  -9.0171988332158E-02
(PID.TID 0000.0001) %MON dynstat_uvel_mean            =  -3.8963500976715E-05
(PID.TID 0000.0001) %MON dynstat_uvel_sd              =   4.2141434878631E-03
(PID.TID 0000.0001) %MON dynstat_uvel_del2            =   1.7359277936051E-03
(PID.TID 0000.0001) %MON dynstat_vvel_max             =   6.9116491964771E-02
(PID.TID 0000.0001) %MON dynstat_vvel_min             =  -8.3440814670583E-02
(PID.TID 0000.0001) %MON dynstat_vvel_mean            =   2.7833759437935E-04
(PID.TID 0000.0001) %MON dynstat_vvel_sd              =   7.2913717782376E-03
(PID.TID 0000.0001) %MON dynstat_vvel_del2            =   2.1078934215961E-03
(PID.TID 0000.0001) %MON dynstat_wvel_max             =   1.6176784598567E+00
(PID.TID 0000.0001) %MON dynstat_wvel_min             =  -1.6533398141122E+00
(PID.TID 0000.0001) %MON dynstat_wvel_mean            =  -3.9197983208820E-04
(PID.TID 0000.0001) %MON dynstat_wvel_sd              =   1.9514667897811E-01
(PID.TID 0000.0001) %MON dynstat_wvel_del2            =   9.1433751847477E-02
(PID.TID 0000.0001) %MON dynstat_theta_max            =   2.9706282898219E+01
(PID.TID 0000.0001) %MON dynstat_theta_min            =  -2.5961459513328E+00
(PID.TID 0000.0001) %MON dynstat_theta_mean           =   3.6026389662761E+00
(PID.TID 0000.0001) %MON dynstat_theta_sd             =   4.4014686044052E+00
(PID.TID 0000.0001) %MON dynstat_theta_del2           =   1.4563318511344E-01
(PID.TID 0000.0001) %MON dynstat_salt_max             =   3.7434857877895E+01
(PID.TID 0000.0001) %MON dynstat_salt_min             =   2.9778878986392E+01
(PID.TID 0000.0001) %MON dynstat_salt_mean            =   3.4718001268956E+01
(PID.TID 0000.0001) %MON dynstat_salt_sd              =   2.9441940443449E-01
(PID.TID 0000.0001) %MON dynstat_salt_del2            =   2.6516191931263E-02
(PID.TID 0000.0001) %MON advcfl_uvel_max              =   5.3800901477349E-02
(PID.TID 0000.0001) %MON advcfl_vvel_max              =   3.2422424121434E-02
(PID.TID 0000.0001) %MON advcfl_wvel_max              =   1.0549016094920E-01
(PID.TID 0000.0001) %MON advcfl_W_hf_max              =   1.0549016094920E-01
(PID.TID 0000.0001) %MON pe_b_mean                    =  -8.5183258053972E-03
(PID.TID 0000.0001) %MON ke_max                       =   3.8298313784952E-03
(PID.TID 0000.0001) %MON ke_mean                      =   3.1908177563935E-05
(PID.TID 0000.0001) %MON ke_vol                       =   1.3442141716554E+22
(PID.TID 0000.0001) %MON vort_r_min                   =  -2.9329770309703E-07
(PID.TID 0000.0001) %MON vort_r_max                   =   3.0148636455595E-07
(PID.TID 0000.0001) %MON vort_a_mean                  =  -2.4531016356478E-05
(PID.TID 0000.0001) %MON vort_a_sd                    =   7.3436014131671E-05
(PID.TID 0000.0001) %MON vort_p_mean                  =  -2.9400918684045E-05
(PID.TID 0000.0001) %MON vort_p_sd                    =   1.0337864358318E-04
(PID.TID 0000.0001) %MON surfExpan_theta_mean         =   2.1317180259503E-03
(PID.TID 0000.0001) %MON surfExpan_salt_mean          =  -6.0617865035150E-05
(PID.TID 0000.0001) // =======================================================
(PID.TID 0000.0001) // End MONITOR dynamic field statistics
(PID.TID 0000.0001) // =======================================================
time,SST,SSS,fu,fv,Q,E-P,i0,i1,a,b =   1.0368E+06  2.5784E+01  0.0000E+00 -8.5269E-03  2.4767E-02 -9.1226E+01 -5.1109E-09    12     1  9.3333E-01  6.6667E-02
time,fu0,fu1,fu =   1.0368E+06 -1.3840E-02 -8.1474E-03 -8.5269E-03  9.3333E-01  6.6667E-02
 cg2d: Sum(rhs),rhsMax =   8.32667268468867E-16  1.72940041906763E+02
(PID.TID 0000.0001)                    cg2d_init_res =    3.58750303093187E-03
(PID.TID 0000.0001)                       cg2d_iters =    91
(PID.TID 0000.0001)                         cg2d_res =    9.19980930952864E-10
(PID.TID 0000.0001) // =======================================================
(PID.TID 0000.0001) // Begin MONITOR dynamic field statistics
(PID.TID 0000.0001) // =======================================================
(PID.TID 0000.0001) %MON time_tsnumber                =                     7
(PID.TID 0000.0001) %MON time_secondsf                =   1.2096000000000E+06
(PID.TID 0000.0001) %MON dynstat_eta_max              =   6.1155409838882E+04
(PID.TID 0000.0001) %MON dynstat_eta_min              =  -9.5059592235463E+04
(PID.TID 0000.0001) %MON dynstat_eta_mean             =   3.5102884770630E-12
(PID.TID 0000.0001) %MON dynstat_eta_sd               =   4.0659431103783E+04
(PID.TID 0000.0001) %MON dynstat_eta_del2             =   2.3955577357591E+04
(PID.TID 0000.0001) %MON dynstat_uvel_max             =   8.8189840499159E-02
(PID.TID 0000.0001) %MON dynstat_uvel_min             =  -7.5475737999462E-02
(PID.TID 0000.0001) %MON dynstat_uvel_mean            =   3.1900370243938E-04
(PID.TID 0000.0001) %MON dynstat_uvel_sd              =   4.9839447032056E-03
(PID.TID 0000.0001) %MON dynstat_uvel_del2            =   1.8998664083006E-03
(PID.TID 0000.0001) %MON dynstat_vvel_max             =   7.6043253489942E-02
(PID.TID 0000.0001) %MON dynstat_vvel_min             =  -9.4863249914318E-02
(PID.TID 0000.0001) %MON dynstat_vvel_mean            =  -9.9611392534090E-05
(PID.TID 0000.0001) %MON dynstat_vvel_sd              =   8.1826611182173E-03
(PID.TID 0000.0001) %MON dynstat_vvel_del2            =   2.3434667777796E-03
(PID.TID 0000.0001) %MON dynstat_wvel_max             =   1.7915102139661E+00
(PID.TID 0000.0001) %MON dynstat_wvel_min             =  -1.7236787614956E+00
(PID.TID 0000.0001) %MON dynstat_wvel_mean            =  -8.5393077994200E-05
(PID.TID 0000.0001) %MON dynstat_wvel_sd              =   2.1276769794792E-01
(PID.TID 0000.0001) %MON dynstat_wvel_del2            =   9.7203106594304E-02
(PID.TID 0000.0001) %MON dynstat_theta_max            =   2.9752525181566E+01
(PID.TID 0000.0001) %MON dynstat_theta_min            =  -2.6766339732878E+00
(PID.TID 0000.0001) %MON dynstat_theta_mean           =   3.6027764357626E+00
(PID.TID 0000.0001) %MON dynstat_theta_sd             =   4.4015744414771E+00
(PID.TID 0000.0001) %MON dynstat_theta_del2           =   1.4394313791589E-01
(PID.TID 0000.0001) %MON dynstat_salt_max             =   3.7434632090372E+01
(PID.TID 0000.0001) %MON dynstat_salt_min             =   2.9778945336253E+01
(PID.TID 0000.0001) %MON dynstat_salt_mean            =   3.4718001120689E+01
(PID.TID 0000.0001) %MON dynstat_salt_sd              =   2.9442001376058E-01
(PID.TID 0000.0001) %MON dynstat_salt_del2            =   2.6437662404883E-02
(PID.TID 0000.0001) %MON advcfl_uvel_max              =   5.8299766954569E-02
(PID.TID 0000.0001) %MON advcfl_vvel_max              =   3.6860816069476E-02
(PID.TID 0000.0001) %MON advcfl_wvel_max              =   1.1178103375245E-01
(PID.TID 0000.0001) %MON advcfl_W_hf_max              =   1.1178103375245E-01
(PID.TID 0000.0001) %MON pe_b_mean                    =  -8.6506483672761E-03
(PID.TID 0000.0001) %MON ke_max                       =   5.0511134526779E-03
(PID.TID 0000.0001) %MON ke_mean                      =   4.1311915161907E-05
(PID.TID 0000.0001) %MON ke_vol                       =   1.3442141716554E+22
(PID.TID 0000.0001) %MON vort_r_min                   =  -2.7681411579609E-07
(PID.TID 0000.0001) %MON vort_r_max                   =   2.6892635902096E-07
(PID.TID 0000.0001) %MON vort_a_mean                  =  -2.4531016238589E-05
(PID.TID 0000.0001) %MON vort_a_sd                    =   7.3436098291334E-05
(PID.TID 0000.0001) %MON vort_p_mean                  =  -2.9400918826134E-05
(PID.TID 0000.0001) %MON vort_p_sd                    =   1.0337849783721E-04
(PID.TID 0000.0001) %MON surfExpan_theta_mean         =  -1.6209604251608E-03
(PID.TID 0000.0001) %MON surfExpan_salt_mean          =  -5.5063003741656E-05
(PID.TID 0000.0001) // =======================================================
(PID.TID 0000.0001) // End MONITOR dynamic field statistics
(PID.TID 0000.0001) // =======================================================
 S/R EXTERNAL_FIELDS_LOAD: Reading new data  1209600. 7
(PID.TID 0000.0001)  MDSREADFIELD: opening global file: trenberth_taux.bin
(PID.TID 0000.0001)  MDSREADFIELD: opening global file: trenberth_taux.bin
(PID.TID 0000.0001)  MDSREADFIELD: opening global file: trenberth_tauy.bin
(PID.TID 0000.0001)  MDSREADFIELD: opening global file: trenberth_tauy.bin
(PID.TID 0000.0001)  MDSREADFIELD: opening global file: shi_qnet.bin
(PID.TID 0000.0001)  MDSREADFIELD: opening global file: shi_qnet.bin
(PID.TID 0000.0001)  MDSREADFIELD: opening global file: shi_empmr.bin
(PID.TID 0000.0001)  MDSREADFIELD: opening global file: shi_empmr.bin
(PID.TID 0000.0001)  MDSREADFIELD: opening global file: lev_sst.bin
(PID.TID 0000.0001)  MDSREADFIELD: opening global file: lev_sst.bin
(PID.TID 0000.0001)  MDSREADFIELD: opening global file: deltageopotjmd95.bin
(PID.TID 0000.0001)  MDSREADFIELD: opening global file: deltageopotjmd95.bin
time,SST,SSS,fu,fv,Q,E-P,i0,i1,a,b =   1.2096E+06  2.5923E+01  0.0000E+00 -8.1474E-03  2.3984E-02 -9.2012E+01 -5.1109E-09     1     2  0.0000E+00  1.0000E+00
time,fu0,fu1,fu =   1.2096E+06 -8.1474E-03 -4.7952E-03 -8.1474E-03  0.0000E+00  1.0000E+00
 cg2d: Sum(rhs),rhsMax =  -1.60982338570648E-15  1.72953757503770E+02
(PID.TID 0000.0001)                    cg2d_init_res =    3.93574705661563E-03
(PID.TID 0000.0001)                       cg2d_iters =    90
(PID.TID 0000.0001)                         cg2d_res =    8.67537488554882E-10
(PID.TID 0000.0001) // =======================================================
(PID.TID 0000.0001) // Begin MONITOR dynamic field statistics
(PID.TID 0000.0001) // =======================================================
(PID.TID 0000.0001) %MON time_tsnumber                =                     8
(PID.TID 0000.0001) %MON time_secondsf                =   1.3824000000000E+06
(PID.TID 0000.0001) %MON dynstat_eta_max              =   5.6617389095739E+04
(PID.TID 0000.0001) %MON dynstat_eta_min              =  -9.4430025303947E+04
(PID.TID 0000.0001) %MON dynstat_eta_mean             =  -4.3878605963288E-13
(PID.TID 0000.0001) %MON dynstat_eta_sd               =   4.0356611248776E+04
(PID.TID 0000.0001) %MON dynstat_eta_del2             =   2.3957808644835E+04
(PID.TID 0000.0001) %MON dynstat_uvel_max             =   1.0172737431488E-01
(PID.TID 0000.0001) %MON dynstat_uvel_min             =  -6.5374027827278E-02
(PID.TID 0000.0001) %MON dynstat_uvel_mean            =   5.4566297729224E-04
(PID.TID 0000.0001) %MON dynstat_uvel_sd              =   5.8261905408050E-03
(PID.TID 0000.0001) %MON dynstat_uvel_del2            =   2.0399793147421E-03
(PID.TID 0000.0001) %MON dynstat_vvel_max             =   8.1474832348129E-02
(PID.TID 0000.0001) %MON dynstat_vvel_min             =  -1.0475388017415E-01
(PID.TID 0000.0001) %MON dynstat_vvel_mean            =  -3.3374727918136E-04
(PID.TID 0000.0001) %MON dynstat_vvel_sd              =   8.9610189547050E-03
(PID.TID 0000.0001) %MON dynstat_vvel_del2            =   2.5440447230095E-03
(PID.TID 0000.0001) %MON dynstat_wvel_max             =   1.9170801563328E+00
(PID.TID 0000.0001) %MON dynstat_wvel_min             =  -1.7392510561737E+00
(PID.TID 0000.0001) %MON dynstat_wvel_mean            =   1.7826850030109E-04
(PID.TID 0000.0001) %MON dynstat_wvel_sd              =   2.2630218007022E-01
(PID.TID 0000.0001) %MON dynstat_wvel_del2            =   1.0084102057872E-01
(PID.TID 0000.0001) %MON dynstat_theta_max            =   2.9804736286851E+01
(PID.TID 0000.0001) %MON dynstat_theta_min            =  -2.7604594236017E+00
(PID.TID 0000.0001) %MON dynstat_theta_mean           =   3.6029089375712E+00
(PID.TID 0000.0001) %MON dynstat_theta_sd             =   4.4017029756474E+00
(PID.TID 0000.0001) %MON dynstat_theta_del2           =   1.4262763796558E-01
(PID.TID 0000.0001) %MON dynstat_salt_max             =   3.7434376365769E+01
(PID.TID 0000.0001) %MON dynstat_salt_min             =   2.9778314553582E+01
(PID.TID 0000.0001) %MON dynstat_salt_mean            =   3.4718001104354E+01
(PID.TID 0000.0001) %MON dynstat_salt_sd              =   2.9442253808916E-01
(PID.TID 0000.0001) %MON dynstat_salt_del2            =   2.6382091122323E-02
(PID.TID 0000.0001) %MON advcfl_uvel_max              =   6.7249041180821E-02
(PID.TID 0000.0001) %MON advcfl_vvel_max              =   4.0703997735169E-02
(PID.TID 0000.0001) %MON advcfl_wvel_max              =   1.1933299035466E-01
(PID.TID 0000.0001) %MON advcfl_W_hf_max              =   1.1933299035466E-01
(PID.TID 0000.0001) %MON pe_b_mean                    =  -8.7594334002203E-03
(PID.TID 0000.0001) %MON ke_max                       =   6.3510654022116E-03
(PID.TID 0000.0001) %MON ke_mean                      =   5.1550706746416E-05
(PID.TID 0000.0001) %MON ke_vol                       =   1.3442141716554E+22
(PID.TID 0000.0001) %MON vort_r_min                   =  -2.4490676289021E-07
(PID.TID 0000.0001) %MON vort_r_max                   =   2.1345199766167E-07
(PID.TID 0000.0001) %MON vort_a_mean                  =  -2.4531016037795E-05
(PID.TID 0000.0001) %MON vort_a_sd                    =   7.3436152146187E-05
(PID.TID 0000.0001) %MON vort_p_mean                  =  -2.9400853004405E-05
(PID.TID 0000.0001) %MON vort_p_sd                    =   1.0337784304640E-04
(PID.TID 0000.0001) %MON surfExpan_theta_mean         =  -4.3265479494669E-03
(PID.TID 0000.0001) %MON surfExpan_salt_mean          =  -5.6965218865514E-05
(PID.TID 0000.0001) // =======================================================
(PID.TID 0000.0001) // End MONITOR dynamic field statistics
(PID.TID 0000.0001) // =======================================================
time,SST,SSS,fu,fv,Q,E-P,i0,i1,a,b =   1.3824E+06  2.5894E+01  0.0000E+00 -7.9239E-03  2.3829E-02 -9.0919E+01 -5.1109E-09     1     2  6.6667E-02  9.3333E-01
time,fu0,fu1,fu =   1.3824E+06 -8.1474E-03 -4.7952E-03 -7.9239E-03  6.6667E-02  9.3333E-01
 cg2d: Sum(rhs),rhsMax =   3.60822483003176E-16  1.72967908705099E+02
(PID.TID 0000.0001)                    cg2d_init_res =    3.96269977850522E-03
(PID.TID 0000.0001)                       cg2d_iters =    92
(PID.TID 0000.0001)                         cg2d_res =    9.26994540864329E-10
(PID.TID 0000.0001) // =======================================================
(PID.TID 0000.0001) // Begin MONITOR dynamic field statistics
(PID.TID 0000.0001) // =======================================================
(PID.TID 0000.0001) %MON time_tsnumber                =                     9
(PID.TID 0000.0001) %MON time_secondsf                =   1.5552000000000E+06
(PID.TID 0000.0001) %MON dynstat_eta_max              =   5.2268089395124E+04
(PID.TID 0000.0001) %MON dynstat_eta_min              =  -9.3568450787238E+04
(PID.TID 0000.0001) %MON dynstat_eta_mean             =  -7.4593630137590E-12
(PID.TID 0000.0001) %MON dynstat_eta_sd               =   4.0032057719167E+04
(PID.TID 0000.0001) %MON dynstat_eta_del2             =   2.3959225289135E+04
(PID.TID 0000.0001) %MON dynstat_uvel_max             =   1.1448767618591E-01
(PID.TID 0000.0001) %MON dynstat_uvel_min             =  -6.6937229573477E-02
(PID.TID 0000.0001) %MON dynstat_uvel_mean            =   6.2892089408658E-04
(PID.TID 0000.0001) %MON dynstat_uvel_sd              =   6.7070489385948E-03
(PID.TID 0000.0001) %MON dynstat_uvel_del2            =   2.1577252478231E-03
(PID.TID 0000.0001) %MON dynstat_vvel_max             =   8.4913125651908E-02
(PID.TID 0000.0001) %MON dynstat_vvel_min             =  -1.1294488772080E-01
(PID.TID 0000.0001) %MON dynstat_vvel_mean            =  -4.1852421940957E-04
(PID.TID 0000.0001) %MON dynstat_vvel_sd              =   9.6114317187148E-03
(PID.TID 0000.0001) %MON dynstat_vvel_del2            =   2.7078706923546E-03
(PID.TID 0000.0001) %MON dynstat_wvel_max             =   1.9910165096871E+00
(PID.TID 0000.0001) %MON dynstat_wvel_min             =  -1.7055308509198E+00
(PID.TID 0000.0001) %MON dynstat_wvel_mean            =   3.5988342448957E-04
(PID.TID 0000.0001) %MON dynstat_wvel_sd              =   2.3569587426991E-01
(PID.TID 0000.0001) %MON dynstat_wvel_del2            =   1.0250588313029E-01
(PID.TID 0000.0001) %MON dynstat_theta_max            =   2.9845474782475E+01
(PID.TID 0000.0001) %MON dynstat_theta_min            =  -2.8334015768707E+00
(PID.TID 0000.0001) %MON dynstat_theta_mean           =   3.6030340945727E+00
(PID.TID 0000.0001) %MON dynstat_theta_sd             =   4.4018516081157E+00
(PID.TID 0000.0001) %MON dynstat_theta_del2           =   1.4178839672349E-01
(PID.TID 0000.0001) %MON dynstat_salt_max             =   3.7434103475628E+01
(PID.TID 0000.0001) %MON dynstat_salt_min             =   2.9777172588519E+01
(PID.TID 0000.0001) %MON dynstat_salt_mean            =   3.4718001108537E+01
(PID.TID 0000.0001) %MON dynstat_salt_sd              =   2.9442158837349E-01
(PID.TID 0000.0001) %MON dynstat_salt_del2            =   2.6367947274788E-02
(PID.TID 0000.0001) %MON advcfl_uvel_max              =   7.5684509723909E-02
(PID.TID 0000.0001) %MON advcfl_vvel_max              =   4.3886760531864E-02
(PID.TID 0000.0001) %MON advcfl_wvel_max              =   1.2739493498790E-01
(PID.TID 0000.0001) %MON advcfl_W_hf_max              =   1.2739493498790E-01
(PID.TID 0000.0001) %MON pe_b_mean                    =  -8.7720593054605E-03
(PID.TID 0000.0001) %MON ke_max                       =   7.7151374122212E-03
(PID.TID 0000.0001) %MON ke_mean                      =   6.2037972601769E-05
(PID.TID 0000.0001) %MON ke_vol                       =   1.3442141716554E+22
(PID.TID 0000.0001) %MON vort_r_min                   =  -3.2430520243523E-07
(PID.TID 0000.0001) %MON vort_r_max                   =   2.8388624942381E-07
(PID.TID 0000.0001) %MON vort_a_mean                  =  -2.4531015789582E-05
(PID.TID 0000.0001) %MON vort_a_sd                    =   7.3436172394777E-05
(PID.TID 0000.0001) %MON vort_p_mean                  =  -2.9400747418405E-05
(PID.TID 0000.0001) %MON vort_p_sd                    =   1.0337690671741E-04
(PID.TID 0000.0001) %MON surfExpan_theta_mean         =  -5.4609911601842E-03
(PID.TID 0000.0001) %MON surfExpan_salt_mean          =  -5.4002041382144E-05
(PID.TID 0000.0001) // =======================================================
(PID.TID 0000.0001) // End MONITOR dynamic field statistics
(PID.TID 0000.0001) // =======================================================
time,SST,SSS,fu,fv,Q,E-P,i0,i1,a,b =   1.5552E+06  2.5865E+01  0.0000E+00 -7.7005E-03  2.3673E-02 -8.9826E+01 -5.1109E-09     1     2  1.3333E-01  8.6667E-01
time,fu0,fu1,fu =   1.5552E+06 -8.1474E-03 -4.7952E-03 -7.7005E-03  1.3333E-01  8.6667E-01
 cg2d: Sum(rhs),rhsMax =   1.27675647831893E-15  1.72980803040794E+02
(PID.TID 0000.0001)                    cg2d_init_res =    3.62695410722032E-03
(PID.TID 0000.0001)                       cg2d_iters =    93
(PID.TID 0000.0001)                         cg2d_res =    9.19571111038933E-10
(PID.TID 0000.0001) // =======================================================
(PID.TID 0000.0001) // Begin MONITOR dynamic field statistics
(PID.TID 0000.0001) // =======================================================
(PID.TID 0000.0001) %MON time_tsnumber                =                    10
(PID.TID 0000.0001) %MON time_secondsf                =   1.7280000000000E+06
(PID.TID 0000.0001) %MON dynstat_eta_max              =   5.1372527701070E+04
(PID.TID 0000.0001) %MON dynstat_eta_min              =  -9.2841894075897E+04
(PID.TID 0000.0001) %MON dynstat_eta_mean             =   5.2654327155946E-12
(PID.TID 0000.0001) %MON dynstat_eta_sd               =   3.9769760278586E+04
(PID.TID 0000.0001) %MON dynstat_eta_del2             =   2.3960643265690E+04
(PID.TID 0000.0001) %MON dynstat_uvel_max             =   1.2630603432210E-01
(PID.TID 0000.0001) %MON dynstat_uvel_min             =  -6.6697545493867E-02
(PID.TID 0000.0001) %MON dynstat_uvel_mean            =   5.9161980022700E-04
(PID.TID 0000.0001) %MON dynstat_uvel_sd              =   7.6230662200446E-03
(PID.TID 0000.0001) %MON dynstat_uvel_del2            =   2.2639205313756E-03
(PID.TID 0000.0001) %MON dynstat_vvel_max             =   8.6873277988918E-02
(PID.TID 0000.0001) %MON dynstat_vvel_min             =  -1.1933261881480E-01
(PID.TID 0000.0001) %MON dynstat_vvel_mean            =  -3.8445020000445E-04
(PID.TID 0000.0001) %MON dynstat_vvel_sd              =   1.0130009530347E-02
(PID.TID 0000.0001) %MON dynstat_vvel_del2            =   2.8365042948840E-03
(PID.TID 0000.0001) %MON dynstat_wvel_max             =   2.0207513303219E+00
(PID.TID 0000.0001) %MON dynstat_wvel_min             =  -1.6345195830752E+00
(PID.TID 0000.0001) %MON dynstat_wvel_mean            =   4.4775875200689E-04
(PID.TID 0000.0001) %MON dynstat_wvel_sd              =   2.4123949839351E-01
(PID.TID 0000.0001) %MON dynstat_wvel_del2            =   1.0254506189379E-01
(PID.TID 0000.0001) %MON dynstat_theta_max            =   2.9880790569387E+01
(PID.TID 0000.0001) %MON dynstat_theta_min            =  -2.9013489049102E+00
(PID.TID 0000.0001) %MON dynstat_theta_mean           =   3.6031509461526E+00
(PID.TID 0000.0001) %MON dynstat_theta_sd             =   4.4020171607875E+00
(PID.TID 0000.0001) %MON dynstat_theta_del2           =   1.4123755485663E-01
(PID.TID 0000.0001) %MON dynstat_salt_max             =   3.7433823900274E+01
(PID.TID 0000.0001) %MON dynstat_salt_min             =   2.9775824926673E+01
(PID.TID 0000.0001) %MON dynstat_salt_mean            =   3.4718001099167E+01
(PID.TID 0000.0001) %MON dynstat_salt_sd              =   2.9442386318958E-01
(PID.TID 0000.0001) %MON dynstat_salt_del2            =   2.6379631402597E-02
(PID.TID 0000.0001) %MON advcfl_uvel_max              =   8.3497286356976E-02
(PID.TID 0000.0001) %MON advcfl_vvel_max              =   4.6368827941211E-02
(PID.TID 0000.0001) %MON advcfl_wvel_max              =   1.3317599440220E-01
(PID.TID 0000.0001) %MON advcfl_W_hf_max              =   1.3317599440220E-01
(PID.TID 0000.0001) %MON pe_b_mean                    =  -8.6738133467850E-03
(PID.TID 0000.0001) %MON ke_max                       =   9.1174086299386E-03
(PID.TID 0000.0001) %MON ke_mean                      =   7.2538708024524E-05
(PID.TID 0000.0001) %MON ke_vol                       =   1.3442141716554E+22
(PID.TID 0000.0001) %MON vort_r_min                   =  -4.0597692663842E-07
(PID.TID 0000.0001) %MON vort_r_max                   =   3.6468864995070E-07
(PID.TID 0000.0001) %MON vort_a_mean                  =  -2.4531015535716E-05
(PID.TID 0000.0001) %MON vort_a_sd                    =   7.3436164012694E-05
(PID.TID 0000.0001) %MON vort_p_mean                  =  -2.9400633748065E-05
(PID.TID 0000.0001) %MON vort_p_sd                    =   1.0337595051539E-04
(PID.TID 0000.0001) %MON surfExpan_theta_mean         =  -5.1197749216098E-03
(PID.TID 0000.0001) %MON surfExpan_salt_mean          =  -5.2476745458918E-05
(PID.TID 0000.0001) // =======================================================
(PID.TID 0000.0001) // End MONITOR dynamic field statistics
(PID.TID 0000.0001) // =======================================================
time,SST,SSS,fu,fv,Q,E-P,i0,i1,a,b =   1.7280E+06  2.5836E+01  0.0000E+00 -7.4770E-03  2.3518E-02 -8.8733E+01 -5.1109E-09     1     2  2.0000E-01  8.0000E-01
time,fu0,fu1,fu =   1.7280E+06 -8.1474E-03 -4.7952E-03 -7.4770E-03  2.0000E-01  8.0000E-01
 cg2d: Sum(rhs),rhsMax =   8.04911692853238E-16  1.72990808965609E+02
(PID.TID 0000.0001)                    cg2d_init_res =    3.12693176514512E-03
(PID.TID 0000.0001)                       cg2d_iters =    91
(PID.TID 0000.0001)                         cg2d_res =    9.41627818281584E-10
(PID.TID 0000.0001) // =======================================================
(PID.TID 0000.0001) // Begin MONITOR dynamic field statistics
(PID.TID 0000.0001) // =======================================================
(PID.TID 0000.0001) %MON time_tsnumber                =                    11
(PID.TID 0000.0001) %MON time_secondsf                =   1.9008000000000E+06
(PID.TID 0000.0001) %MON dynstat_eta_max              =   4.7513540342406E+04
(PID.TID 0000.0001) %MON dynstat_eta_min              =  -9.2588039176160E+04
(PID.TID 0000.0001) %MON dynstat_eta_mean             =   2.1939302981644E-12
(PID.TID 0000.0001) %MON dynstat_eta_sd               =   3.9595091810270E+04
(PID.TID 0000.0001) %MON dynstat_eta_del2             =   2.3961818445437E+04
(PID.TID 0000.0001) %MON dynstat_uvel_max             =   1.3711742587504E-01
(PID.TID 0000.0001) %MON dynstat_uvel_min             =  -6.4754325290670E-02
(PID.TID 0000.0001) %MON dynstat_uvel_mean            =   4.7897010912474E-04
(PID.TID 0000.0001) %MON dynstat_uvel_sd              =   8.5766912168116E-03
(PID.TID 0000.0001) %MON dynstat_uvel_del2            =   2.3669393783082E-03
(PID.TID 0000.0001) %MON dynstat_vvel_max             =   8.9472863582590E-02
(PID.TID 0000.0001) %MON dynstat_vvel_min             =  -1.2387115647316E-01
(PID.TID 0000.0001) %MON dynstat_vvel_mean            =  -2.8045024081195E-04
(PID.TID 0000.0001) %MON dynstat_vvel_sd              =   1.0519087431839E-02
(PID.TID 0000.0001) %MON dynstat_vvel_del2            =   2.9318055624948E-03
(PID.TID 0000.0001) %MON dynstat_wvel_max             =   2.1374444940824E+00
(PID.TID 0000.0001) %MON dynstat_wvel_min             =  -1.5548489509716E+00
(PID.TID 0000.0001) %MON dynstat_wvel_mean            =   4.5215417893015E-04
(PID.TID 0000.0001) %MON dynstat_wvel_sd              =   2.4343836544873E-01
(PID.TID 0000.0001) %MON dynstat_wvel_del2            =   1.0143198347803E-01
(PID.TID 0000.0001) %MON dynstat_theta_max            =   2.9910876643774E+01
(PID.TID 0000.0001) %MON dynstat_theta_min            =  -2.9643081169054E+00
(PID.TID 0000.0001) %MON dynstat_theta_mean           =   3.6032596462966E+00
(PID.TID 0000.0001) %MON dynstat_theta_sd             =   4.4021927271914E+00
(PID.TID 0000.0001) %MON dynstat_theta_del2           =   1.4115161651294E-01
(PID.TID 0000.0001) %MON dynstat_salt_max             =   3.7433555556353E+01
(PID.TID 0000.0001) %MON dynstat_salt_min             =   2.9774406719881E+01
(PID.TID 0000.0001) %MON dynstat_salt_mean            =   3.4718001095463E+01
(PID.TID 0000.0001) %MON dynstat_salt_sd              =   2.9442147470547E-01
(PID.TID 0000.0001) %MON dynstat_salt_del2            =   2.6410165850378E-02
(PID.TID 0000.0001) %MON advcfl_uvel_max              =   9.0644386345178E-02
(PID.TID 0000.0001) %MON advcfl_vvel_max              =   4.8132358096465E-02
(PID.TID 0000.0001) %MON advcfl_wvel_max              =   1.3649302364238E-01
(PID.TID 0000.0001) %MON advcfl_W_hf_max              =   1.3649302364238E-01
(PID.TID 0000.0001) %MON pe_b_mean                    =  -8.4999366842480E-03
(PID.TID 0000.0001) %MON ke_max                       =   1.0551185788210E-02
(PID.TID 0000.0001) %MON ke_mean                      =   8.3050546177320E-05
(PID.TID 0000.0001) %MON ke_vol                       =   1.3442141716554E+22
(PID.TID 0000.0001) %MON vort_r_min                   =  -4.6845069762660E-07
(PID.TID 0000.0001) %MON vort_r_max                   =   4.2580560568553E-07
(PID.TID 0000.0001) %MON vort_a_mean                  =  -2.4531015314927E-05
(PID.TID 0000.0001) %MON vort_a_sd                    =   7.3436137276358E-05
(PID.TID 0000.0001) %MON vort_p_mean                  =  -2.9400538987077E-05
(PID.TID 0000.0001) %MON vort_p_sd                    =   1.0337519792790E-04
(PID.TID 0000.0001) %MON surfExpan_theta_mean         =  -3.7970469249585E-03
(PID.TID 0000.0001) %MON surfExpan_salt_mean          =  -5.6065073398625E-05
(PID.TID 0000.0001) // =======================================================
(PID.TID 0000.0001) // End MONITOR dynamic field statistics
(PID.TID 0000.0001) // =======================================================
time,SST,SSS,fu,fv,Q,E-P,i0,i1,a,b =   1.9008E+06  2.5807E+01  0.0000E+00 -7.2535E-03  2.3362E-02 -8.7640E+01 -5.1109E-09     1     2  2.6667E-01  7.3333E-01
time,fu0,fu1,fu =   1.9008E+06 -8.1474E-03 -4.7952E-03 -7.2535E-03  2.6667E-01  7.3333E-01
 cg2d: Sum(rhs),rhsMax =   3.05311331771918E-16  1.72997157016205E+02
(PID.TID 0000.0001)                    cg2d_init_res =    2.73183093926920E-03
(PID.TID 0000.0001)                       cg2d_iters =    84
(PID.TID 0000.0001)                         cg2d_res =    8.91308907838781E-10
(PID.TID 0000.0001) // =======================================================
(PID.TID 0000.0001) // Begin MONITOR dynamic field statistics
(PID.TID 0000.0001) // =======================================================
(PID.TID 0000.0001) %MON time_tsnumber                =                    12
(PID.TID 0000.0001) %MON time_secondsf                =   2.0736000000000E+06
(PID.TID 0000.0001) %MON dynstat_eta_max              =   4.2957254297108E+04
(PID.TID 0000.0001) %MON dynstat_eta_min              =  -9.2540117160792E+04
(PID.TID 0000.0001) %MON dynstat_eta_mean             =   7.4593630137590E-12
(PID.TID 0000.0001) %MON dynstat_eta_sd               =   3.9503385020864E+04
(PID.TID 0000.0001) %MON dynstat_eta_del2             =   2.3962703447857E+04
(PID.TID 0000.0001) %MON dynstat_uvel_max             =   1.4843377161447E-01
(PID.TID 0000.0001) %MON dynstat_uvel_min             =  -6.9027715041513E-02
(PID.TID 0000.0001) %MON dynstat_uvel_mean            =   3.4368401343801E-04
(PID.TID 0000.0001) %MON dynstat_uvel_sd              =   9.5587068380148E-03
(PID.TID 0000.0001) %MON dynstat_uvel_del2            =   2.4639826457782E-03
(PID.TID 0000.0001) %MON dynstat_vvel_max             =   9.0793661009133E-02
(PID.TID 0000.0001) %MON dynstat_vvel_min             =  -1.2719203085366E-01
(PID.TID 0000.0001) %MON dynstat_vvel_mean            =  -1.5659999190902E-04
(PID.TID 0000.0001) %MON dynstat_vvel_sd              =   1.0783416592123E-02
(PID.TID 0000.0001) %MON dynstat_vvel_del2            =   2.9991183348805E-03
(PID.TID 0000.0001) %MON dynstat_wvel_max             =   2.2828401827466E+00
(PID.TID 0000.0001) %MON dynstat_wvel_min             =  -1.4727510103587E+00
(PID.TID 0000.0001) %MON dynstat_wvel_mean            =   3.9593996074317E-04
(PID.TID 0000.0001) %MON dynstat_wvel_sd              =   2.4285440758539E-01
(PID.TID 0000.0001) %MON dynstat_wvel_del2            =   9.9697376520016E-02
(PID.TID 0000.0001) %MON dynstat_theta_max            =   2.9935979696721E+01
(PID.TID 0000.0001) %MON dynstat_theta_min            =  -3.0223750547533E+00
(PID.TID 0000.0001) %MON dynstat_theta_mean           =   3.6033618821737E+00
(PID.TID 0000.0001) %MON dynstat_theta_sd             =   4.4023807984713E+00
(PID.TID 0000.0001) %MON dynstat_theta_del2           =   1.4124664183810E-01
(PID.TID 0000.0001) %MON dynstat_salt_max             =   3.7433320142228E+01
(PID.TID 0000.0001) %MON dynstat_salt_min             =   2.9773042598180E+01
(PID.TID 0000.0001) %MON dynstat_salt_mean            =   3.4718001105609E+01
(PID.TID 0000.0001) %MON dynstat_salt_sd              =   2.9441709982819E-01
(PID.TID 0000.0001) %MON dynstat_salt_del2            =   2.6441632377963E-02
(PID.TID 0000.0001) %MON advcfl_uvel_max              =   9.7107979950864E-02
(PID.TID 0000.0001) %MON advcfl_vvel_max              =   4.9422743359884E-02
(PID.TID 0000.0001) %MON advcfl_wvel_max              =   1.3719975131108E-01
(PID.TID 0000.0001) %MON advcfl_W_hf_max              =   1.3719975131108E-01
(PID.TID 0000.0001) %MON pe_b_mean                    =  -8.2991219502584E-03
(PID.TID 0000.0001) %MON ke_max                       =   1.1974233419824E-02
(PID.TID 0000.0001) %MON ke_mean                      =   9.3565123062047E-05
(PID.TID 0000.0001) %MON ke_vol                       =   1.3442141716554E+22
(PID.TID 0000.0001) %MON vort_r_min                   =  -5.0685661591368E-07
(PID.TID 0000.0001) %MON vort_r_max                   =   4.6224465612757E-07
(PID.TID 0000.0001) %MON vort_a_mean                  =  -2.4531015157079E-05
(PID.TID 0000.0001) %MON vort_a_sd                    =   7.3436104282807E-05
(PID.TID 0000.0001) %MON vort_p_mean                  =  -2.9400475994715E-05
(PID.TID 0000.0001) %MON vort_p_sd                    =   1.0337477619438E-04
(PID.TID 0000.0001) %MON surfExpan_theta_mean         =  -2.1023887859363E-03
(PID.TID 0000.0001) %MON surfExpan_salt_mean          =  -6.1239910909744E-05
(PID.TID 0000.0001) // =======================================================
(PID.TID 0000.0001) // End MONITOR dynamic field statistics
(PID.TID 0000.0001) // =======================================================
time,SST,SSS,fu,fv,Q,E-P,i0,i1,a,b =   2.0736E+06  2.5778E+01  0.0000E+00 -7.0300E-03  2.3207E-02 -8.6547E+01 -5.1109E-09     1     2  3.3333E-01  6.6667E-01
time,fu0,fu1,fu =   2.0736E+06 -8.1474E-03 -4.7952E-03 -7.0300E-03  3.3333E-01  6.6667E-01
 cg2d: Sum(rhs),rhsMax =  -3.19189119579733E-15  1.73000013237581E+02
(PID.TID 0000.0001)                    cg2d_init_res =    2.58837367674996E-03
(PID.TID 0000.0001)                       cg2d_iters =    88
(PID.TID 0000.0001)                         cg2d_res =    8.46681955546569E-10
(PID.TID 0000.0001) // =======================================================
(PID.TID 0000.0001) // Begin MONITOR dynamic field statistics
(PID.TID 0000.0001) // =======================================================
(PID.TID 0000.0001) %MON time_tsnumber                =                    13
(PID.TID 0000.0001) %MON time_secondsf                =   2.2464000000000E+06
(PID.TID 0000.0001) %MON dynstat_eta_max              =   4.2948220908283E+04
(PID.TID 0000.0001) %MON dynstat_eta_min              =  -9.2455757547708E+04
(PID.TID 0000.0001) %MON dynstat_eta_mean             =  -8.7757211926576E-13
(PID.TID 0000.0001) %MON dynstat_eta_sd               =   3.9482741855033E+04
(PID.TID 0000.0001) %MON dynstat_eta_del2             =   2.3963388102334E+04
(PID.TID 0000.0001) %MON dynstat_uvel_max             =   1.5902780882074E-01
(PID.TID 0000.0001) %MON dynstat_uvel_min             =  -7.3961505220631E-02
(PID.TID 0000.0001) %MON dynstat_uvel_mean            =   2.3222318885306E-04
(PID.TID 0000.0001) %MON dynstat_uvel_sd              =   1.0547398652172E-02
(PID.TID 0000.0001) %MON dynstat_uvel_del2            =   2.5592693222667E-03
(PID.TID 0000.0001) %MON dynstat_vvel_max             =   9.1003855971495E-02
(PID.TID 0000.0001) %MON dynstat_vvel_min             =  -1.3058526107352E-01
(PID.TID 0000.0001) %MON dynstat_vvel_mean            =  -5.1752092278767E-05
(PID.TID 0000.0001) %MON dynstat_vvel_sd              =   1.0929001002268E-02
(PID.TID 0000.0001) %MON dynstat_vvel_del2            =   3.0421866179440E-03
(PID.TID 0000.0001) %MON dynstat_wvel_max             =   2.4171444001169E+00
(PID.TID 0000.0001) %MON dynstat_wvel_min             =  -1.4411325485475E+00
(PID.TID 0000.0001) %MON dynstat_wvel_mean            =   3.0735552483627E-04
(PID.TID 0000.0001) %MON dynstat_wvel_sd              =   2.4000459736718E-01
(PID.TID 0000.0001) %MON dynstat_wvel_del2            =   9.7676200212396E-02
(PID.TID 0000.0001) %MON dynstat_theta_max            =   2.9956271896502E+01
(PID.TID 0000.0001) %MON dynstat_theta_min            =  -3.0756285160904E+00
(PID.TID 0000.0001) %MON dynstat_theta_mean           =   3.6034590870580E+00
(PID.TID 0000.0001) %MON dynstat_theta_sd             =   4.4025855155568E+00
(PID.TID 0000.0001) %MON dynstat_theta_del2           =   1.4163298937565E-01
(PID.TID 0000.0001) %MON dynstat_salt_max             =   3.7433142408100E+01
(PID.TID 0000.0001) %MON dynstat_salt_min             =   2.9771788723339E+01
(PID.TID 0000.0001) %MON dynstat_salt_mean            =   3.4718001120261E+01
(PID.TID 0000.0001) %MON dynstat_salt_sd              =   2.9441789101871E-01
(PID.TID 0000.0001) %MON dynstat_salt_del2            =   2.6500694571282E-02
(PID.TID 0000.0001) %MON advcfl_uvel_max              =   1.0286602041327E-01
(PID.TID 0000.0001) %MON advcfl_vvel_max              =   5.0741243781583E-02
(PID.TID 0000.0001) %MON advcfl_wvel_max              =   1.3519869331440E-01
(PID.TID 0000.0001) %MON advcfl_W_hf_max              =   1.3519869331440E-01
(PID.TID 0000.0001) %MON pe_b_mean                    =  -8.1065447298497E-03
(PID.TID 0000.0001) %MON ke_max                       =   1.3355692178857E-02
(PID.TID 0000.0001) %MON ke_mean                      =   1.0394546786678E-04
(PID.TID 0000.0001) %MON ke_vol                       =   1.3442141716554E+22
(PID.TID 0000.0001) %MON vort_r_min                   =  -5.2049845073862E-07
(PID.TID 0000.0001) %MON vort_r_max                   =   4.7336646820818E-07
(PID.TID 0000.0001) %MON vort_a_mean                  =  -2.4531015079030E-05
(PID.TID 0000.0001) %MON vort_a_sd                    =   7.3436075752517E-05
(PID.TID 0000.0001) %MON vort_p_mean                  =  -2.9400449427171E-05
(PID.TID 0000.0001) %MON vort_p_sd                    =   1.0337471427261E-04
(PID.TID 0000.0001) %MON surfExpan_theta_mean         =  -5.6026094026850E-04
(PID.TID 0000.0001) %MON surfExpan_salt_mean          =  -6.0359012671647E-05
(PID.TID 0000.0001) // =======================================================
(PID.TID 0000.0001) // End MONITOR dynamic field statistics
(PID.TID 0000.0001) // =======================================================
time,SST,SSS,fu,fv,Q,E-P,i0,i1,a,b =   2.2464E+06  2.5749E+01  0.0000E+00 -6.8065E-03  2.3052E-02 -8.5454E+01 -5.1109E-09     1     2  4.0000E-01  6.0000E-01
time,fu0,fu1,fu =   2.2464E+06 -8.1474E-03 -4.7952E-03 -6.8065E-03  4.0000E-01  6.0000E-01
 cg2d: Sum(rhs),rhsMax =  -8.32667268468867E-17  1.73000152534903E+02
(PID.TID 0000.0001)                    cg2d_init_res =    2.58972018761282E-03
(PID.TID 0000.0001)                       cg2d_iters =    88
(PID.TID 0000.0001)                         cg2d_res =    9.90552191131896E-10
(PID.TID 0000.0001) // =======================================================
(PID.TID 0000.0001) // Begin MONITOR dynamic field statistics
(PID.TID 0000.0001) // =======================================================
(PID.TID 0000.0001) %MON time_tsnumber                =                    14
(PID.TID 0000.0001) %MON time_secondsf                =   2.4192000000000E+06
(PID.TID 0000.0001) %MON dynstat_eta_max              =   4.3130044521023E+04
(PID.TID 0000.0001) %MON dynstat_eta_min              =  -9.2543587970327E+04
(PID.TID 0000.0001) %MON dynstat_eta_mean             =   1.3602367848619E-11
(PID.TID 0000.0001) %MON dynstat_eta_sd               =   3.9518064331556E+04
(PID.TID 0000.0001) %MON dynstat_eta_del2             =   2.3964255793162E+04
(PID.TID 0000.0001) %MON dynstat_uvel_max             =   1.6830304433815E-01
(PID.TID 0000.0001) %MON dynstat_uvel_min             =  -7.9853837350372E-02
(PID.TID 0000.0001) %MON dynstat_uvel_mean            =   1.7504289865376E-04
(PID.TID 0000.0001) %MON dynstat_uvel_sd              =   1.1517398523476E-02
(PID.TID 0000.0001) %MON dynstat_uvel_del2            =   2.6532814884530E-03
(PID.TID 0000.0001) %MON dynstat_vvel_max             =   9.0201401208885E-02
(PID.TID 0000.0001) %MON dynstat_vvel_min             =  -1.3247688940161E-01
(PID.TID 0000.0001) %MON dynstat_vvel_mean            =   1.2558380699654E-05
(PID.TID 0000.0001) %MON dynstat_vvel_sd              =   1.0964164597682E-02
(PID.TID 0000.0001) %MON dynstat_vvel_del2            =   3.0637084298128E-03
(PID.TID 0000.0001) %MON dynstat_wvel_max             =   2.5417069145150E+00
(PID.TID 0000.0001) %MON dynstat_wvel_min             =  -1.5100962183435E+00
(PID.TID 0000.0001) %MON dynstat_wvel_mean            =   2.1249003113794E-04
(PID.TID 0000.0001) %MON dynstat_wvel_sd              =   2.3537484414623E-01
(PID.TID 0000.0001) %MON dynstat_wvel_del2            =   9.5583507688750E-02
(PID.TID 0000.0001) %MON dynstat_theta_max            =   2.9971857890541E+01
(PID.TID 0000.0001) %MON dynstat_theta_min            =  -3.1241395995957E+00
(PID.TID 0000.0001) %MON dynstat_theta_mean           =   3.6035544692122E+00
(PID.TID 0000.0001) %MON dynstat_theta_sd             =   4.4027941440781E+00
(PID.TID 0000.0001) %MON dynstat_theta_del2           =   1.4211884501278E-01
(PID.TID 0000.0001) %MON dynstat_salt_max             =   3.7433047502032E+01
(PID.TID 0000.0001) %MON dynstat_salt_min             =   2.9770641140572E+01
(PID.TID 0000.0001) %MON dynstat_salt_mean            =   3.4718001118992E+01
(PID.TID 0000.0001) %MON dynstat_salt_sd              =   2.9440980334641E-01
(PID.TID 0000.0001) %MON dynstat_salt_del2            =   2.6562663640891E-02
(PID.TID 0000.0001) %MON advcfl_uvel_max              =   1.0788275489956E-01
(PID.TID 0000.0001) %MON advcfl_vvel_max              =   5.1476269873737E-02
(PID.TID 0000.0001) %MON advcfl_wvel_max              =   1.3045314054188E-01
(PID.TID 0000.0001) %MON advcfl_W_hf_max              =   1.3045314054188E-01
(PID.TID 0000.0001) %MON pe_b_mean                    =  -7.9404637815776E-03
(PID.TID 0000.0001) %MON ke_max                       =   1.4667008964860E-02
(PID.TID 0000.0001) %MON ke_mean                      =   1.1397124781732E-04
(PID.TID 0000.0001) %MON ke_vol                       =   1.3442141716554E+22
(PID.TID 0000.0001) %MON vort_r_min                   =  -5.1257990728170E-07
(PID.TID 0000.0001) %MON vort_r_max                   =   4.6624572417574E-07
(PID.TID 0000.0001) %MON vort_a_mean                  =  -2.4531015083497E-05
(PID.TID 0000.0001) %MON vort_a_sd                    =   7.3436058777132E-05
(PID.TID 0000.0001) %MON vort_p_mean                  =  -2.9400455778314E-05
(PID.TID 0000.0001) %MON vort_p_sd                    =   1.0337495415725E-04
(PID.TID 0000.0001) %MON surfExpan_theta_mean         =   4.9385601047796E-04
(PID.TID 0000.0001) %MON surfExpan_salt_mean          =  -4.7717682605099E-05
(PID.TID 0000.0001) // =======================================================
(PID.TID 0000.0001) // End MONITOR dynamic field statistics
(PID.TID 0000.0001) // =======================================================
time,SST,SSS,fu,fv,Q,E-P,i0,i1,a,b =   2.4192E+06  2.5720E+01  0.0000E+00 -6.5830E-03  2.2896E-02 -8.4361E+01 -5.1109E-09     1     2  4.6667E-01  5.3333E-01
time,fu0,fu1,fu =   2.4192E+06 -8.1474E-03 -4.7952E-03 -6.5830E-03  4.6667E-01  5.3333E-01
 cg2d: Sum(rhs),rhsMax =  -1.88737914186277E-15  1.72998549513380E+02
(PID.TID 0000.0001)                    cg2d_init_res =    2.55874304222521E-03
(PID.TID 0000.0001)                       cg2d_iters =    89
(PID.TID 0000.0001)                         cg2d_res =    8.26387913839740E-10
(PID.TID 0000.0001) // =======================================================
(PID.TID 0000.0001) // Begin MONITOR dynamic field statistics
(PID.TID 0000.0001) // =======================================================
(PID.TID 0000.0001) %MON time_tsnumber                =                    15
(PID.TID 0000.0001) %MON time_secondsf                =   2.5920000000000E+06
(PID.TID 0000.0001) %MON dynstat_eta_max              =   4.4272626650004E+04
(PID.TID 0000.0001) %MON dynstat_eta_min              =  -9.2733311366528E+04
(PID.TID 0000.0001) %MON dynstat_eta_mean             =  -4.3878605963288E-13
(PID.TID 0000.0001) %MON dynstat_eta_sd               =   3.9586687907178E+04
(PID.TID 0000.0001) %MON dynstat_eta_del2             =   2.3965700236987E+04
(PID.TID 0000.0001) %MON dynstat_uvel_max             =   1.7615302201376E-01
(PID.TID 0000.0001) %MON dynstat_uvel_min             =  -8.4389757898550E-02
(PID.TID 0000.0001) %MON dynstat_uvel_mean            =   1.8262595050044E-04
(PID.TID 0000.0001) %MON dynstat_uvel_sd              =   1.2447549627669E-02
(PID.TID 0000.0001) %MON dynstat_uvel_del2            =   2.7472292856201E-03
(PID.TID 0000.0001) %MON dynstat_vvel_max             =   8.8498064181722E-02
(PID.TID 0000.0001) %MON dynstat_vvel_min             =  -1.3287236601686E-01
(PID.TID 0000.0001) %MON dynstat_vvel_mean            =   3.2385123945297E-05
(PID.TID 0000.0001) %MON dynstat_vvel_sd              =   1.0901195409002E-02
(PID.TID 0000.0001) %MON dynstat_vvel_del2            =   3.0698343808253E-03
(PID.TID 0000.0001) %MON dynstat_wvel_max             =   2.6569045199833E+00
(PID.TID 0000.0001) %MON dynstat_wvel_min             =  -1.5547930640013E+00
(PID.TID 0000.0001) %MON dynstat_wvel_mean            =   1.2979437558087E-04
(PID.TID 0000.0001) %MON dynstat_wvel_sd              =   2.2947306137130E-01
(PID.TID 0000.0001) %MON dynstat_wvel_del2            =   9.3649215710790E-02
(PID.TID 0000.0001) %MON dynstat_theta_max            =   2.9982785577984E+01
(PID.TID 0000.0001) %MON dynstat_theta_min            =  -3.1679769238296E+00
(PID.TID 0000.0001) %MON dynstat_theta_mean           =   3.6036486897175E+00
(PID.TID 0000.0001) %MON dynstat_theta_sd             =   4.4030320640734E+00
(PID.TID 0000.0001) %MON dynstat_theta_del2           =   1.4261321489401E-01
(PID.TID 0000.0001) %MON dynstat_salt_max             =   3.7433058137913E+01
(PID.TID 0000.0001) %MON dynstat_salt_min             =   2.9769554759308E+01
(PID.TID 0000.0001) %MON dynstat_salt_mean            =   3.4718001087015E+01
(PID.TID 0000.0001) %MON dynstat_salt_sd              =   2.9440921060589E-01
(PID.TID 0000.0001) %MON dynstat_salt_del2            =   2.6605029945878E-02
(PID.TID 0000.0001) %MON advcfl_uvel_max              =   1.1210751096198E-01
(PID.TID 0000.0001) %MON advcfl_vvel_max              =   5.1629939401055E-02
(PID.TID 0000.0001) %MON advcfl_wvel_max              =   1.2299767511002E-01
(PID.TID 0000.0001) %MON advcfl_W_hf_max              =   1.2299767511002E-01
(PID.TID 0000.0001) %MON pe_b_mean                    =  -7.8115706793633E-03
(PID.TID 0000.0001) %MON ke_max                       =   1.5884790572733E-02
(PID.TID 0000.0001) %MON ke_mean                      =   1.2345017813320E-04
(PID.TID 0000.0001) %MON ke_vol                       =   1.3442141716554E+22
(PID.TID 0000.0001) %MON vort_r_min                   =  -4.8909086155299E-07
(PID.TID 0000.0001) %MON vort_r_max                   =   4.9988515251816E-07
(PID.TID 0000.0001) %MON vort_a_mean                  =  -2.4531015159432E-05
(PID.TID 0000.0001) %MON vort_a_sd                    =   7.3436055917777E-05
(PID.TID 0000.0001) %MON vort_p_mean                  =  -2.9400485703799E-05
(PID.TID 0000.0001) %MON vort_p_sd                    =   1.0337537888751E-04
(PID.TID 0000.0001) %MON surfExpan_theta_mean         =   9.4388902245761E-04
(PID.TID 0000.0001) %MON surfExpan_salt_mean          =  -2.2212373509007E-05
(PID.TID 0000.0001) // =======================================================
(PID.TID 0000.0001) // End MONITOR dynamic field statistics
(PID.TID 0000.0001) // =======================================================
time,SST,SSS,fu,fv,Q,E-P,i0,i1,a,b =   2.5920E+06  2.5691E+01  0.0000E+00 -6.3596E-03  2.2741E-02 -8.3268E+01 -5.1109E-09     1     2  5.3333E-01  4.6667E-01
time,fu0,fu1,fu =   2.5920E+06 -8.1474E-03 -4.7952E-03 -6.3596E-03  5.3333E-01  4.6667E-01
 cg2d: Sum(rhs),rhsMax =   3.77475828372553E-15  1.72996024433834E+02
(PID.TID 0000.0001)                    cg2d_init_res =    2.45008430178329E-03
(PID.TID 0000.0001)                       cg2d_iters =    89
(PID.TID 0000.0001)                         cg2d_res =    7.73750621264021E-10
(PID.TID 0000.0001) // =======================================================
(PID.TID 0000.0001) // Begin MONITOR dynamic field statistics
(PID.TID 0000.0001) // =======================================================
(PID.TID 0000.0001) %MON time_tsnumber                =                    16
(PID.TID 0000.0001) %MON time_secondsf                =   2.7648000000000E+06
(PID.TID 0000.0001) %MON dynstat_eta_max              =   4.6789286243730E+04
(PID.TID 0000.0001) %MON dynstat_eta_min              =  -9.2852416643625E+04
(PID.TID 0000.0001) %MON dynstat_eta_mean             =  -4.3878605963288E-12
(PID.TID 0000.0001) %MON dynstat_eta_sd               =   3.9659500380982E+04
(PID.TID 0000.0001) %MON dynstat_eta_del2             =   2.3966763310999E+04
(PID.TID 0000.0001) %MON dynstat_uvel_max             =   1.8326058922792E-01
(PID.TID 0000.0001) %MON dynstat_uvel_min             =  -8.7623470034716E-02
(PID.TID 0000.0001) %MON dynstat_uvel_mean            =   2.4727631784003E-04
(PID.TID 0000.0001) %MON dynstat_uvel_sd              =   1.3323140462817E-02
(PID.TID 0000.0001) %MON dynstat_uvel_del2            =   2.8447694223359E-03
(PID.TID 0000.0001) %MON dynstat_vvel_max             =   8.9080996525961E-02
(PID.TID 0000.0001) %MON dynstat_vvel_min             =  -1.3177977658161E-01
(PID.TID 0000.0001) %MON dynstat_vvel_mean            =   1.7431425438921E-05
(PID.TID 0000.0001) %MON dynstat_vvel_sd              =   1.0756937675743E-02
(PID.TID 0000.0001) %MON dynstat_vvel_del2            =   3.0670882585246E-03
(PID.TID 0000.0001) %MON dynstat_wvel_max             =   2.7623141380552E+00
(PID.TID 0000.0001) %MON dynstat_wvel_min             =  -1.5768141860542E+00
(PID.TID 0000.0001) %MON dynstat_wvel_mean            =   6.7075026439594E-05
(PID.TID 0000.0001) %MON dynstat_wvel_sd              =   2.2284687273424E-01
(PID.TID 0000.0001) %MON dynstat_wvel_del2            =   9.1870764954070E-02
(PID.TID 0000.0001) %MON dynstat_theta_max            =   2.9989060859336E+01
(PID.TID 0000.0001) %MON dynstat_theta_min            =  -3.2072080125257E+00
(PID.TID 0000.0001) %MON dynstat_theta_mean           =   3.6037435815792E+00
(PID.TID 0000.0001) %MON dynstat_theta_sd             =   4.4032904939445E+00
(PID.TID 0000.0001) %MON dynstat_theta_del2           =   1.4297894064430E-01
(PID.TID 0000.0001) %MON dynstat_salt_max             =   3.7433192128783E+01
(PID.TID 0000.0001) %MON dynstat_salt_min             =   2.9768463873550E+01
(PID.TID 0000.0001) %MON dynstat_salt_mean            =   3.4718001020335E+01
(PID.TID 0000.0001) %MON dynstat_salt_sd              =   2.9441201052561E-01
(PID.TID 0000.0001) %MON dynstat_salt_del2            =   2.6649050882618E-02
(PID.TID 0000.0001) %MON advcfl_uvel_max              =   1.1547897438396E-01
(PID.TID 0000.0001) %MON advcfl_vvel_max              =   5.1205394192576E-02
(PID.TID 0000.0001) %MON advcfl_wvel_max              =   1.1294530424508E-01
(PID.TID 0000.0001) %MON advcfl_W_hf_max              =   1.1294530424508E-01
(PID.TID 0000.0001) %MON pe_b_mean                    =  -7.7298567156842E-03
(PID.TID 0000.0001) %MON ke_max                       =   1.6992342266618E-02
(PID.TID 0000.0001) %MON ke_mean                      =   1.3228021241905E-04
(PID.TID 0000.0001) %MON ke_vol                       =   1.3442141716554E+22
(PID.TID 0000.0001) %MON vort_r_min                   =  -4.8631187213891E-07
(PID.TID 0000.0001) %MON vort_r_max                   =   5.2770238399724E-07
(PID.TID 0000.0001) %MON vort_a_mean                  =  -2.4531015284977E-05
(PID.TID 0000.0001) %MON vort_a_sd                    =   7.3436065618306E-05
(PID.TID 0000.0001) %MON vort_p_mean                  =  -2.9400527405700E-05
(PID.TID 0000.0001) %MON vort_p_sd                    =   1.0337585324105E-04
(PID.TID 0000.0001) %MON surfExpan_theta_mean         =   8.6715759898840E-04
(PID.TID 0000.0001) %MON surfExpan_salt_mean          =   1.2480258722805E-05
(PID.TID 0000.0001) // =======================================================
(PID.TID 0000.0001) // End MONITOR dynamic field statistics
(PID.TID 0000.0001) // =======================================================
time,SST,SSS,fu,fv,Q,E-P,i0,i1,a,b =   2.7648E+06  2.5662E+01  0.0000E+00 -6.1361E-03  2.2585E-02 -8.2175E+01 -5.1109E-09     1     2  6.0000E-01  4.0000E-01
time,fu0,fu1,fu =   2.7648E+06 -8.1474E-03 -4.7952E-03 -6.1361E-03  6.0000E-01  4.0000E-01
 cg2d: Sum(rhs),rhsMax =  -5.55111512312578E-17  1.72993072483335E+02
(PID.TID 0000.0001)                    cg2d_init_res =    2.30541288783553E-03
(PID.TID 0000.0001)                       cg2d_iters =    86
(PID.TID 0000.0001)                         cg2d_res =    9.80497683147229E-10
(PID.TID 0000.0001) // =======================================================
(PID.TID 0000.0001) // Begin MONITOR dynamic field statistics
(PID.TID 0000.0001) // =======================================================
(PID.TID 0000.0001) %MON time_tsnumber                =                    17
(PID.TID 0000.0001) %MON time_secondsf                =   2.9376000000000E+06
(PID.TID 0000.0001) %MON dynstat_eta_max              =   4.8392677922980E+04
(PID.TID 0000.0001) %MON dynstat_eta_min              =  -9.2898931626757E+04
(PID.TID 0000.0001) %MON dynstat_eta_mean             =   3.0715024174302E-12
(PID.TID 0000.0001) %MON dynstat_eta_sd               =   3.9709923817575E+04
(PID.TID 0000.0001) %MON dynstat_eta_del2             =   2.3967311147486E+04
(PID.TID 0000.0001) %MON dynstat_uvel_max             =   1.9076618594640E-01
(PID.TID 0000.0001) %MON dynstat_uvel_min             =  -9.1158814224380E-02
(PID.TID 0000.0001) %MON dynstat_uvel_mean            =   3.4910129010607E-04
(PID.TID 0000.0001) %MON dynstat_uvel_sd              =   1.4133812051389E-02
(PID.TID 0000.0001) %MON dynstat_uvel_del2            =   2.9457255959988E-03
(PID.TID 0000.0001) %MON dynstat_vvel_max             =   9.2144755194196E-02
(PID.TID 0000.0001) %MON dynstat_vvel_min             =  -1.2921766243873E-01
(PID.TID 0000.0001) %MON dynstat_vvel_mean            =  -1.5114036157540E-05
(PID.TID 0000.0001) %MON dynstat_vvel_sd              =   1.0552145588695E-02
(PID.TID 0000.0001) %MON dynstat_vvel_del2            =   3.0594166877042E-03
(PID.TID 0000.0001) %MON dynstat_wvel_max             =   2.8570475603574E+00
(PID.TID 0000.0001) %MON dynstat_wvel_min             =  -1.5805357649021E+00
(PID.TID 0000.0001) %MON dynstat_wvel_mean            =   2.3314957533215E-05
(PID.TID 0000.0001) %MON dynstat_wvel_sd              =   2.1606932964604E-01
(PID.TID 0000.0001) %MON dynstat_wvel_del2            =   9.0379056538954E-02
(PID.TID 0000.0001) %MON dynstat_theta_max            =   2.9990663769335E+01
(PID.TID 0000.0001) %MON dynstat_theta_min            =  -3.2418974090342E+00
(PID.TID 0000.0001) %MON dynstat_theta_mean           =   3.6038393021197E+00
(PID.TID 0000.0001) %MON dynstat_theta_sd             =   4.4035652005375E+00
(PID.TID 0000.0001) %MON dynstat_theta_del2           =   1.4327287425975E-01
(PID.TID 0000.0001) %MON dynstat_salt_max             =   3.7433460605344E+01
(PID.TID 0000.0001) %MON dynstat_salt_min             =   2.9767300747168E+01
(PID.TID 0000.0001) %MON dynstat_salt_mean            =   3.4718000930103E+01
(PID.TID 0000.0001) %MON dynstat_salt_sd              =   2.9441346810978E-01
(PID.TID 0000.0001) %MON dynstat_salt_del2            =   2.6687101244802E-02
(PID.TID 0000.0001) %MON advcfl_uvel_max              =   1.1878421725824E-01
(PID.TID 0000.0001) %MON advcfl_vvel_max              =   5.0209838819393E-02
(PID.TID 0000.0001) %MON advcfl_wvel_max              =   1.0048998815632E-01
(PID.TID 0000.0001) %MON advcfl_W_hf_max              =   1.0048998815632E-01
(PID.TID 0000.0001) %MON pe_b_mean                    =  -7.7030841625336E-03
(PID.TID 0000.0001) %MON ke_max                       =   1.7979383105460E-02
(PID.TID 0000.0001) %MON ke_mean                      =   1.4043121240305E-04
(PID.TID 0000.0001) %MON ke_vol                       =   1.3442141716554E+22
(PID.TID 0000.0001) %MON vort_r_min                   =  -5.1066411173199E-07
(PID.TID 0000.0001) %MON vort_r_max                   =   5.4986975331750E-07
(PID.TID 0000.0001) %MON vort_a_mean                  =  -2.4531015431942E-05
(PID.TID 0000.0001) %MON vort_a_sd                    =   7.3436083563400E-05
(PID.TID 0000.0001) %MON vort_p_mean                  =  -2.9400569127992E-05
(PID.TID 0000.0001) %MON vort_p_sd                    =   1.0337625316938E-04
(PID.TID 0000.0001) %MON surfExpan_theta_mean         =   4.6724911536023E-04
(PID.TID 0000.0001) %MON surfExpan_salt_mean          =   5.0635259036092E-05
(PID.TID 0000.0001) // =======================================================
(PID.TID 0000.0001) // End MONITOR dynamic field statistics
(PID.TID 0000.0001) // =======================================================
time,SST,SSS,fu,fv,Q,E-P,i0,i1,a,b =   2.9376E+06  2.5633E+01  0.0000E+00 -5.9126E-03  2.2430E-02 -8.1082E+01 -5.1109E-09     1     2  6.6667E-01  3.3333E-01
time,fu0,fu1,fu =   2.9376E+06 -8.1474E-03 -4.7952E-03 -5.9126E-03  6.6667E-01  3.3333E-01
 cg2d: Sum(rhs),rhsMax =  -2.30371277609720E-15  1.72989821191103E+02
(PID.TID 0000.0001)                    cg2d_init_res =    2.20657717215410E-03
(PID.TID 0000.0001)                       cg2d_iters =    84
(PID.TID 0000.0001)                         cg2d_res =    8.44021723881833E-10
(PID.TID 0000.0001) // =======================================================
(PID.TID 0000.0001) // Begin MONITOR dynamic field statistics
(PID.TID 0000.0001) // =======================================================
(PID.TID 0000.0001) %MON time_tsnumber                =                    18
(PID.TID 0000.0001) %MON time_secondsf                =   3.1104000000000E+06
(PID.TID 0000.0001) %MON dynstat_eta_max              =   4.8834783018243E+04
(PID.TID 0000.0001) %MON dynstat_eta_min              =  -9.2835647514524E+04
(PID.TID 0000.0001) %MON dynstat_eta_mean             =   7.8981490733919E-12
(PID.TID 0000.0001) %MON dynstat_eta_sd               =   3.9723819140056E+04
(PID.TID 0000.0001) %MON dynstat_eta_del2             =   2.3967135661612E+04
(PID.TID 0000.0001) %MON dynstat_uvel_max             =   1.9673996101178E-01
(PID.TID 0000.0001) %MON dynstat_uvel_min             =  -9.5060553131166E-02
(PID.TID 0000.0001) %MON dynstat_uvel_mean            =   4.6370179903821E-04
(PID.TID 0000.0001) %MON dynstat_uvel_sd              =   1.4870643128739E-02
(PID.TID 0000.0001) %MON dynstat_uvel_del2            =   3.0459660685108E-03
(PID.TID 0000.0001) %MON dynstat_vvel_max             =   9.4736788892716E-02
(PID.TID 0000.0001) %MON dynstat_vvel_min             =  -1.2522379633747E-01
(PID.TID 0000.0001) %MON dynstat_vvel_mean            =  -4.6941107977039E-05
(PID.TID 0000.0001) %MON dynstat_vvel_sd              =   1.0310269988507E-02
(PID.TID 0000.0001) %MON dynstat_vvel_del2            =   3.0533328322216E-03
(PID.TID 0000.0001) %MON dynstat_wvel_max             =   2.9401064026468E+00
(PID.TID 0000.0001) %MON dynstat_wvel_min             =  -1.6425586860311E+00
(PID.TID 0000.0001) %MON dynstat_wvel_mean            =  -8.0939252723931E-06
(PID.TID 0000.0001) %MON dynstat_wvel_sd              =   2.0968400456622E-01
(PID.TID 0000.0001) %MON dynstat_wvel_del2            =   8.9285516225526E-02
(PID.TID 0000.0001) %MON dynstat_theta_max            =   2.9987563629467E+01
(PID.TID 0000.0001) %MON dynstat_theta_min            =  -3.2721038970251E+00
(PID.TID 0000.0001) %MON dynstat_theta_mean           =   3.6039358448664E+00
(PID.TID 0000.0001) %MON dynstat_theta_sd             =   4.4038589266386E+00
(PID.TID 0000.0001) %MON dynstat_theta_del2           =   1.4350319078848E-01
(PID.TID 0000.0001) %MON dynstat_salt_max             =   3.7433867096037E+01
(PID.TID 0000.0001) %MON dynstat_salt_min             =   2.9766010626143E+01
(PID.TID 0000.0001) %MON dynstat_salt_mean            =   3.4718000829496E+01
(PID.TID 0000.0001) %MON dynstat_salt_sd              =   2.9441390428742E-01
(PID.TID 0000.0001) %MON dynstat_salt_del2            =   2.6708400543666E-02
(PID.TID 0000.0001) %MON advcfl_uvel_max              =   1.2370205209337E-01
(PID.TID 0000.0001) %MON advcfl_vvel_max              =   4.8657950560266E-02
(PID.TID 0000.0001) %MON advcfl_wvel_max              =   9.8319615559557E-02
(PID.TID 0000.0001) %MON advcfl_W_hf_max              =   9.8319615559557E-02
(PID.TID 0000.0001) %MON pe_b_mean                    =  -7.7317522570295E-03
(PID.TID 0000.0001) %MON ke_max                       =   1.8840517627590E-02
(PID.TID 0000.0001) %MON ke_mean                      =   1.4789028255709E-04
(PID.TID 0000.0001) %MON ke_vol                       =   1.3442141716554E+22
(PID.TID 0000.0001) %MON vort_r_min                   =  -5.3031880289918E-07
(PID.TID 0000.0001) %MON vort_r_max                   =   5.6701078047352E-07
(PID.TID 0000.0001) %MON vort_a_mean                  =  -2.4531015571414E-05
(PID.TID 0000.0001) %MON vort_a_sd                    =   7.3436104415770E-05
(PID.TID 0000.0001) %MON vort_p_mean                  =  -2.9400602131138E-05
(PID.TID 0000.0001) %MON vort_p_sd                    =   1.0337650149839E-04
(PID.TID 0000.0001) %MON surfExpan_theta_mean         =  -1.3053621129147E-05
(PID.TID 0000.0001) %MON surfExpan_salt_mean          =   8.5133277864162E-05
(PID.TID 0000.0001) // =======================================================
(PID.TID 0000.0001) // End MONITOR dynamic field statistics
(PID.TID 0000.0001) // =======================================================
time,SST,SSS,fu,fv,Q,E-P,i0,i1,a,b =   3.1104E+06  2.5605E+01  0.0000E+00 -5.6891E-03  2.2274E-02 -7.9989E+01 -5.1109E-09     1     2  7.3333E-01  2.6667E-01
time,fu0,fu1,fu =   3.1104E+06 -8.1474E-03 -4.7952E-03 -5.6891E-03  7.3333E-01  2.6667E-01
 cg2d: Sum(rhs),rhsMax =   9.15933995315754E-16  1.72986109526487E+02
(PID.TID 0000.0001)                    cg2d_init_res =    2.18102055326261E-03
(PID.TID 0000.0001)                       cg2d_iters =    87
(PID.TID 0000.0001)                         cg2d_res =    8.56754095853063E-10
(PID.TID 0000.0001) // =======================================================
(PID.TID 0000.0001) // Begin MONITOR dynamic field statistics
(PID.TID 0000.0001) // =======================================================
(PID.TID 0000.0001) %MON time_tsnumber                =                    19
(PID.TID 0000.0001) %MON time_secondsf                =   3.2832000000000E+06
(PID.TID 0000.0001) %MON dynstat_eta_max              =   4.8224268594855E+04
(PID.TID 0000.0001) %MON dynstat_eta_min              =  -9.2712780514885E+04
(PID.TID 0000.0001) %MON dynstat_eta_mean             =   3.5102884770630E-12
(PID.TID 0000.0001) %MON dynstat_eta_sd               =   3.9703076754867E+04
(PID.TID 0000.0001) %MON dynstat_eta_del2             =   2.3966250497494E+04
(PID.TID 0000.0001) %MON dynstat_uvel_max             =   2.0110488156367E-01
(PID.TID 0000.0001) %MON dynstat_uvel_min             =  -9.8447678682300E-02
(PID.TID 0000.0001) %MON dynstat_uvel_mean            =   5.6927836592560E-04
(PID.TID 0000.0001) %MON dynstat_uvel_sd              =   1.5524672030052E-02
(PID.TID 0000.0001) %MON dynstat_uvel_del2            =   3.1434729701723E-03
(PID.TID 0000.0001) %MON dynstat_vvel_max             =   9.6880619720332E-02
(PID.TID 0000.0001) %MON dynstat_vvel_min             =  -1.1986189185989E-01
(PID.TID 0000.0001) %MON dynstat_vvel_mean            =  -6.3708959787079E-05
(PID.TID 0000.0001) %MON dynstat_vvel_sd              =   1.0056186886484E-02
(PID.TID 0000.0001) %MON dynstat_vvel_del2            =   3.0513816301272E-03
(PID.TID 0000.0001) %MON dynstat_wvel_max             =   3.0106681822844E+00
(PID.TID 0000.0001) %MON dynstat_wvel_min             =  -1.7726738451153E+00
(PID.TID 0000.0001) %MON dynstat_wvel_mean            =  -3.4991562396408E-05
(PID.TID 0000.0001) %MON dynstat_wvel_sd              =   2.0415221158519E-01
(PID.TID 0000.0001) %MON dynstat_wvel_del2            =   8.8715894858262E-02
(PID.TID 0000.0001) %MON dynstat_theta_max            =   2.9979731575939E+01
(PID.TID 0000.0001) %MON dynstat_theta_min            =  -3.2978794165774E+00
(PID.TID 0000.0001) %MON dynstat_theta_mean           =   3.6040337121036E+00
(PID.TID 0000.0001) %MON dynstat_theta_sd             =   4.4041721427543E+00
(PID.TID 0000.0001) %MON dynstat_theta_del2           =   1.4382684891184E-01
(PID.TID 0000.0001) %MON dynstat_salt_max             =   3.7434407381913E+01
(PID.TID 0000.0001) %MON dynstat_salt_min             =   2.9764561613762E+01
(PID.TID 0000.0001) %MON dynstat_salt_mean            =   3.4718000738348E+01
(PID.TID 0000.0001) %MON dynstat_salt_sd              =   2.9441595824775E-01
(PID.TID 0000.0001) %MON dynstat_salt_del2            =   2.6751195210741E-02
(PID.TID 0000.0001) %MON advcfl_uvel_max              =   1.2742110619586E-01
(PID.TID 0000.0001) %MON advcfl_vvel_max              =   4.6574486469497E-02
(PID.TID 0000.0001) %MON advcfl_wvel_max              =   9.7953097791561E-02
(PID.TID 0000.0001) %MON advcfl_W_hf_max              =   9.7953097791561E-02
(PID.TID 0000.0001) %MON pe_b_mean                    =  -7.8069652879976E-03
(PID.TID 0000.0001) %MON ke_max                       =   1.9573378253099E-02
(PID.TID 0000.0001) %MON ke_mean                      =   1.5462324516832E-04
(PID.TID 0000.0001) %MON ke_vol                       =   1.3442141716554E+22
(PID.TID 0000.0001) %MON vort_r_min                   =  -5.4491986655538E-07
(PID.TID 0000.0001) %MON vort_r_max                   =   5.7991910859008E-07
(PID.TID 0000.0001) %MON vort_a_mean                  =  -2.4531015679743E-05
(PID.TID 0000.0001) %MON vort_a_sd                    =   7.3436123403822E-05
(PID.TID 0000.0001) %MON vort_p_mean                  =  -2.9400621931676E-05
(PID.TID 0000.0001) %MON vort_p_sd                    =   1.0337655974367E-04
(PID.TID 0000.0001) %MON surfExpan_theta_mean         =  -3.6261230468658E-04
(PID.TID 0000.0001) %MON surfExpan_salt_mean          =   1.1038399666711E-04
(PID.TID 0000.0001) // =======================================================
(PID.TID 0000.0001) // End MONITOR dynamic field statistics
(PID.TID 0000.0001) // =======================================================
time,SST,SSS,fu,fv,Q,E-P,i0,i1,a,b =   3.2832E+06  2.5576E+01  0.0000E+00 -5.4656E-03  2.2119E-02 -7.8896E+01 -5.1109E-09     1     2  8.0000E-01  2.0000E-01
time,fu0,fu1,fu =   3.2832E+06 -8.1474E-03 -4.7952E-03 -5.4656E-03  8.0000E-01  2.0000E-01
 cg2d: Sum(rhs),rhsMax =  -2.47024622979097E-15  1.72981619126490E+02
(PID.TID 0000.0001)                    cg2d_init_res =    2.20678517903974E-03
(PID.TID 0000.0001)                       cg2d_iters =    88
(PID.TID 0000.0001)                         cg2d_res =    8.50851936458455E-10
(PID.TID 0000.0001) // =======================================================
(PID.TID 0000.0001) // Begin MONITOR dynamic field statistics
(PID.TID 0000.0001) // =======================================================
(PID.TID 0000.0001) %MON time_tsnumber                =                    20
(PID.TID 0000.0001) %MON time_secondsf                =   3.4560000000000E+06
(PID.TID 0000.0001) %MON dynstat_eta_max              =   4.6918885532131E+04
(PID.TID 0000.0001) %MON dynstat_eta_min              =  -9.2592370455306E+04
(PID.TID 0000.0001) %MON dynstat_eta_mean             =   3.0715024174302E-12
(PID.TID 0000.0001) %MON dynstat_eta_sd               =   3.9661644896124E+04
(PID.TID 0000.0001) %MON dynstat_eta_del2             =   2.3964945575558E+04
(PID.TID 0000.0001) %MON dynstat_uvel_max             =   2.0380491821735E-01
(PID.TID 0000.0001) %MON dynstat_uvel_min             =  -1.0119272736901E-01
(PID.TID 0000.0001) %MON dynstat_uvel_mean            =   6.5145464645760E-04
(PID.TID 0000.0001) %MON dynstat_uvel_sd              =   1.6087071548265E-02
(PID.TID 0000.0001) %MON dynstat_uvel_del2            =   3.2340693125666E-03
(PID.TID 0000.0001) %MON dynstat_vvel_max             =   9.8610236364349E-02
(PID.TID 0000.0001) %MON dynstat_vvel_min             =  -1.1322532978405E-01
(PID.TID 0000.0001) %MON dynstat_vvel_mean            =  -5.8030425053076E-05
(PID.TID 0000.0001) %MON dynstat_vvel_sd              =   9.8150653881399E-03
(PID.TID 0000.0001) %MON dynstat_vvel_del2            =   3.0584558832922E-03
(PID.TID 0000.0001) %MON dynstat_wvel_max             =   3.0682365509033E+00
(PID.TID 0000.0001) %MON dynstat_wvel_min             =  -1.8897156617729E+00
(PID.TID 0000.0001) %MON dynstat_wvel_mean            =  -6.2928795162815E-05
(PID.TID 0000.0001) %MON dynstat_wvel_sd              =   1.9981011503873E-01
(PID.TID 0000.0001) %MON dynstat_wvel_del2            =   8.8540857023194E-02
(PID.TID 0000.0001) %MON dynstat_theta_max            =   2.9967149822018E+01
(PID.TID 0000.0001) %MON dynstat_theta_min            =  -3.3192712174586E+00
(PID.TID 0000.0001) %MON dynstat_theta_mean           =   3.6041327875390E+00
(PID.TID 0000.0001) %MON dynstat_theta_sd             =   4.4045043962803E+00
(PID.TID 0000.0001) %MON dynstat_theta_del2           =   1.4394224897748E-01
(PID.TID 0000.0001) %MON dynstat_salt_max             =   3.7435274150292E+01
(PID.TID 0000.0001) %MON dynstat_salt_min             =   2.9762948728488E+01
(PID.TID 0000.0001) %MON dynstat_salt_mean            =   3.4718000671546E+01
(PID.TID 0000.0001) %MON dynstat_salt_sd              =   2.9441587652173E-01
(PID.TID 0000.0001) %MON dynstat_salt_del2            =   2.6780454834990E-02
(PID.TID 0000.0001) %MON advcfl_uvel_max              =   1.2984289176175E-01
(PID.TID 0000.0001) %MON advcfl_vvel_max              =   4.3995731322141E-02
(PID.TID 0000.0001) %MON advcfl_wvel_max              =   9.7216033268846E-02
(PID.TID 0000.0001) %MON advcfl_W_hf_max              =   9.7216033268846E-02
(PID.TID 0000.0001) %MON pe_b_mean                    =  -7.9130619479027E-03
(PID.TID 0000.0001) %MON ke_max                       =   2.0295633637388E-02
(PID.TID 0000.0001) %MON ke_mean                      =   1.6057159117693E-04
(PID.TID 0000.0001) %MON ke_vol                       =   1.3442141716554E+22
(PID.TID 0000.0001) %MON vort_r_min                   =  -5.5421656290021E-07
(PID.TID 0000.0001) %MON vort_r_max                   =   5.8935171763184E-07
(PID.TID 0000.0001) %MON vort_a_mean                  =  -2.4531015741706E-05
(PID.TID 0000.0001) %MON vort_a_sd                    =   7.3436137405239E-05
(PID.TID 0000.0001) %MON vort_p_mean                  =  -2.9400628695183E-05
(PID.TID 0000.0001) %MON vort_p_sd                    =   1.0337644866070E-04
(PID.TID 0000.0001) %MON surfExpan_theta_mean         =  -4.5390774967575E-04
(PID.TID 0000.0001) %MON surfExpan_salt_mean          =   1.2287987924479E-04
(PID.TID 0000.0001) // =======================================================
(PID.TID 0000.0001) // End MONITOR dynamic field statistics
(PID.TID 0000.0001) // =======================================================
(PID.TID 0000.0001) %CHECKPOINT        20 ckptA
(PID.TID 0000.0001)   Seconds in section "ALL                    [THE_MODEL_MAIN]":
(PID.TID 0000.0001)           User time:  14.6899996
(PID.TID 0000.0001)         System time:  0.140000001
(PID.TID 0000.0001)     Wall clock time:  29.6952209
(PID.TID 0000.0001)          No. starts: 1
(PID.TID 0000.0001)           No. stops: 1
(PID.TID 0000.0001)   Seconds in section "INITIALISE_FIXED       [THE_MODEL_MAIN]":
(PID.TID 0000.0001)           User time:  0.180000007
(PID.TID 0000.0001)         System time:  0.00999999978
(PID.TID 0000.0001)     Wall clock time:  0.35387516
(PID.TID 0000.0001)          No. starts: 1
(PID.TID 0000.0001)           No. stops: 1
(PID.TID 0000.0001)   Seconds in section "THE_MAIN_LOOP          [THE_MODEL_MAIN]":
(PID.TID 0000.0001)           User time:  14.4600003
(PID.TID 0000.0001)         System time:  0.0800000038
(PID.TID 0000.0001)     Wall clock time:  29.158092
(PID.TID 0000.0001)          No. starts: 1
(PID.TID 0000.0001)           No. stops: 1
(PID.TID 0000.0001)   Seconds in section "INITIALISE_VARIA    [THE_MAIN_LOOP]":
(PID.TID 0000.0001)           User time:  0.180000007
(PID.TID 0000.0001)         System time:  0.0299999993
(PID.TID 0000.0001)     Wall clock time:  0.403456926
(PID.TID 0000.0001)          No. starts: 1
(PID.TID 0000.0001)           No. stops: 1
(PID.TID 0000.0001)   Seconds in section "MONITOR             [THE_MAIN_LOOP]":
(PID.TID 0000.0001)           User time:  0.0799999833
(PID.TID 0000.0001)         System time:  0.
(PID.TID 0000.0001)     Wall clock time:  0.182447195
(PID.TID 0000.0001)          No. starts: 1
(PID.TID 0000.0001)           No. stops: 1
(PID.TID 0000.0001)   Seconds in section "DO_THE_MODEL_IO     [THE_MAIN_LOOP]":
(PID.TID 0000.0001)           User time:  0.0300000012
(PID.TID 0000.0001)         System time:  0.0300000012
(PID.TID 0000.0001)     Wall clock time:  0.163511038
(PID.TID 0000.0001)          No. starts: 1
(PID.TID 0000.0001)           No. stops: 1
(PID.TID 0000.0001)   Seconds in section "MAIN LOOP           [THE_MAIN_LOOP]":
(PID.TID 0000.0001)           User time:  14.1700003
(PID.TID 0000.0001)         System time:  0.0200000033
(PID.TID 0000.0001)     Wall clock time:  28.408519
(PID.TID 0000.0001)          No. starts: 1
(PID.TID 0000.0001)           No. stops: 1
(PID.TID 0000.0001)   Seconds in section "FORWARD_STEP        [THE_MAIN_LOOP]":
(PID.TID 0000.0001)           User time:  14.1700003
(PID.TID 0000.0001)         System time:  0.0200000033
(PID.TID 0000.0001)     Wall clock time:  28.4078281
(PID.TID 0000.0001)          No. starts: 20
(PID.TID 0000.0001)           No. stops: 20
(PID.TID 0000.0001)   Seconds in section "EXTERNAL_FIELDS_LOAD[FORWARD_STEP]":
(PID.TID 0000.0001)           User time:  0.0300002396
(PID.TID 0000.0001)         System time:  0.
(PID.TID 0000.0001)     Wall clock time:  0.0784425735
(PID.TID 0000.0001)          No. starts: 20
(PID.TID 0000.0001)           No. stops: 20
(PID.TID 0000.0001)   Seconds in section "DO_ATMOSPHERIC_PHYS [FORWARD_STEP]":
(PID.TID 0000.0001)           User time:  0.
(PID.TID 0000.0001)         System time:  0.
(PID.TID 0000.0001)     Wall clock time:  0.000641822815
(PID.TID 0000.0001)          No. starts: 20
(PID.TID 0000.0001)           No. stops: 20
(PID.TID 0000.0001)   Seconds in section "DO_OCEANIC_PHYS     [FORWARD_STEP]":
(PID.TID 0000.0001)           User time:  1.14000005
(PID.TID 0000.0001)         System time:  0.
(PID.TID 0000.0001)     Wall clock time:  2.58322692
(PID.TID 0000.0001)          No. starts: 20
(PID.TID 0000.0001)           No. stops: 20
(PID.TID 0000.0001)   Seconds in section "THERMODYNAMICS      [FORWARD_STEP]":
(PID.TID 0000.0001)           User time:  2.78999996
(PID.TID 0000.0001)         System time:  0.
(PID.TID 0000.0001)     Wall clock time:  5.28644133
(PID.TID 0000.0001)          No. starts: 20
(PID.TID 0000.0001)           No. stops: 20
(PID.TID 0000.0001)   Seconds in section "DYNAMICS            [FORWARD_STEP]":
(PID.TID 0000.0001)           User time:  3.95999879
(PID.TID 0000.0001)         System time:  0.00999999791
(PID.TID 0000.0001)     Wall clock time:  7.97331882
(PID.TID 0000.0001)          No. starts: 20
(PID.TID 0000.0001)           No. stops: 20
(PID.TID 0000.0001)   Seconds in section "UPDATE_SURF_DR     [FORWARD_STEP]":
(PID.TID 0000.0001)           User time:  0.0199995041
(PID.TID 0000.0001)         System time:  0.
(PID.TID 0000.0001)     Wall clock time:  0.0148310661
(PID.TID 0000.0001)          No. starts: 20
(PID.TID 0000.0001)           No. stops: 20
(PID.TID 0000.0001)   Seconds in section "UPDATE_CG2D        [FORWARD_STEP]":
(PID.TID 0000.0001)           User time:  0.0900011063
(PID.TID 0000.0001)         System time:  0.
(PID.TID 0000.0001)     Wall clock time:  0.121379614
(PID.TID 0000.0001)          No. starts: 20
(PID.TID 0000.0001)           No. stops: 20
(PID.TID 0000.0001)   Seconds in section "SOLVE_FOR_PRESSURE  [FORWARD_STEP]":
(PID.TID 0000.0001)           User time:  2.89000154
(PID.TID 0000.0001)         System time:  0.
(PID.TID 0000.0001)     Wall clock time:  5.99024773
(PID.TID 0000.0001)          No. starts: 20
(PID.TID 0000.0001)           No. stops: 20
(PID.TID 0000.0001)   Seconds in section "UV_CORRECTION_STEP  [FORWARD_STEP]":
(PID.TID 0000.0001)           User time:  0.379998326
(PID.TID 0000.0001)         System time:  0.
(PID.TID 0000.0001)     Wall clock time:  0.838691235
(PID.TID 0000.0001)          No. starts: 20
(PID.TID 0000.0001)           No. stops: 20
(PID.TID 0000.0001)   Seconds in section "UPDATE_ETAH        [FORWARD_STEP]":
(PID.TID 0000.0001)           User time:  0.
(PID.TID 0000.0001)         System time:  0.
(PID.TID 0000.0001)     Wall clock time:  0.00385308266
(PID.TID 0000.0001)          No. starts: 20
(PID.TID 0000.0001)           No. stops: 20
(PID.TID 0000.0001)   Seconds in section "CALC_SURF_DR      [FORWARD_STEP]":
(PID.TID 0000.0001)           User time:  0.0100002289
(PID.TID 0000.0001)         System time:  0.
(PID.TID 0000.0001)     Wall clock time:  0.12712431
(PID.TID 0000.0001)          No. starts: 20
(PID.TID 0000.0001)           No. stops: 20
(PID.TID 0000.0001)   Seconds in section "TS_CORRECTION_STEP  [FORWARD_STEP]":
(PID.TID 0000.0001)           User time:  0.0500006676
(PID.TID 0000.0001)         System time:  0.
(PID.TID 0000.0001)     Wall clock time:  0.0726928711
(PID.TID 0000.0001)          No. starts: 20
(PID.TID 0000.0001)           No. stops: 20
(PID.TID 0000.0001)   Seconds in section "BLOCKING_EXCHANGES  [FORWARD_STEP]":
(PID.TID 0000.0001)           User time:  0.120000124
(PID.TID 0000.0001)         System time:  0.
(PID.TID 0000.0001)     Wall clock time:  0.165423632
(PID.TID 0000.0001)          No. starts: 20
(PID.TID 0000.0001)           No. stops: 20
(PID.TID 0000.0001)   Seconds in section "DO_STATEVARS_DIAGS  [FORWARD_STEP]":
(PID.TID 0000.0001)           User time:  0.990000129
(PID.TID 0000.0001)         System time:  0.
(PID.TID 0000.0001)     Wall clock time:  1.38190627
(PID.TID 0000.0001)          No. starts: 20
(PID.TID 0000.0001)           No. stops: 20
(PID.TID 0000.0001)   Seconds in section "MONITOR             [FORWARD_STEP]":
(PID.TID 0000.0001)           User time:  1.63999927
(PID.TID 0000.0001)         System time:  0.
(PID.TID 0000.0001)     Wall clock time:  3.56667781
(PID.TID 0000.0001)          No. starts: 20
(PID.TID 0000.0001)           No. stops: 20
(PID.TID 0000.0001)   Seconds in section "DO_THE_MODEL_IO     [FORWARD_STEP]":
(PID.TID 0000.0001)           User time:  0.0600004196
(PID.TID 0000.0001)         System time:  0.0100000054
(PID.TID 0000.0001)     Wall clock time:  0.19066
(PID.TID 0000.0001)          No. starts: 20
(PID.TID 0000.0001)           No. stops: 20
(PID.TID 0000.0001)   Seconds in section "WRITE_CHECKPOINT    [FORWARD_STEP]":
(PID.TID 0000.0001)           User time:  0.
(PID.TID 0000.0001)         System time:  0.
(PID.TID 0000.0001)     Wall clock time:  0.00067615509
(PID.TID 0000.0001)          No. starts: 20
(PID.TID 0000.0001)           No. stops: 20
(PID.TID 0000.0001)   Seconds in section "WRITE_CHECKPOINT       [THE_MODEL_MAIN]":
(PID.TID 0000.0001)           User time:  0.0499992371
(PID.TID 0000.0001)         System time:  0.049999997
(PID.TID 0000.0001)     Wall clock time:  0.183113098
(PID.TID 0000.0001)          No. starts: 1
(PID.TID 0000.0001)           No. stops: 1
(PID.TID 0000.0001) // ======================================================
(PID.TID 0000.0001) // Tile <-> Tile communication statistics
(PID.TID 0000.0001) // ======================================================
(PID.TID 0000.0001) // o Tile number: 000001
(PID.TID 0000.0001) //         No. X exchanges =              0
(PID.TID 0000.0001) //            Max. X spins =              0
(PID.TID 0000.0001) //            Min. X spins =     1000000000
(PID.TID 0000.0001) //          Total. X spins =              0
(PID.TID 0000.0001) //            Avg. X spins =       0.00E+00
(PID.TID 0000.0001) //         No. Y exchanges =              0
(PID.TID 0000.0001) //            Max. Y spins =              0
(PID.TID 0000.0001) //            Min. Y spins =     1000000000
(PID.TID 0000.0001) //          Total. Y spins =              0
(PID.TID 0000.0001) //            Avg. Y spins =       0.00E+00
(PID.TID 0000.0001) // o Tile number: 000002
(PID.TID 0000.0001) //         No. X exchanges =              0
(PID.TID 0000.0001) //            Max. X spins =              0
(PID.TID 0000.0001) //            Min. X spins =     1000000000
(PID.TID 0000.0001) //          Total. X spins =              0
(PID.TID 0000.0001) //            Avg. X spins =       0.00E+00
(PID.TID 0000.0001) //         No. Y exchanges =              0
(PID.TID 0000.0001) //            Max. Y spins =              0
(PID.TID 0000.0001) //            Min. Y spins =     1000000000
(PID.TID 0000.0001) //          Total. Y spins =              0
(PID.TID 0000.0001) //            Avg. Y spins =       0.00E+00
(PID.TID 0000.0001) // o Thread number: 000001
(PID.TID 0000.0001) //            No. barriers =          28834
(PID.TID 0000.0001) //      Max. barrier spins =              1
(PID.TID 0000.0001) //      Min. barrier spins =              1
(PID.TID 0000.0001) //     Total barrier spins =          28834
(PID.TID 0000.0001) //      Avg. barrier spins =       1.00E+00
