(PID.TID 0000.0001) 
(PID.TID 0000.0001) // ======================================================
(PID.TID 0000.0001) //                      MITgcm UV
(PID.TID 0000.0001) //                      =========
(PID.TID 0000.0001) // ======================================================
(PID.TID 0000.0001) // execution environment starting up...
(PID.TID 0000.0001) // Run starting Wed Apr  1 14:19:48 1998
(PID.TID 0000.0001) // on melville.lcs.mit.edu
(PID.TID 0000.0001) // account cnh
(PID.TID 0000.0001) // MITgcm UV Release: $Name:  $
(PID.TID 0000.0001) 
(PID.TID 0000.0001) // =======================================================
(PID.TID 0000.0001) // Execution Environment parameter file "eedata"
(PID.TID 0000.0001) // =======================================================
(PID.TID 0000.0001) ># Example "eedata" file
(PID.TID 0000.0001) ># Lines beginning "#" are comments
(PID.TID 0000.0001) ># nTx - No. threads per process in X
(PID.TID 0000.0001) ># nTy - No. threads per process in Y
(PID.TID 0000.0001) > &EEPARMS
(PID.TID 0000.0001) > nTx=1,nTy=1
(PID.TID 0000.0001) > &
(PID.TID 0000.0001) ># Note: Some systems use & as the
(PID.TID 0000.0001) ># namelist terminator. Other systems
(PID.TID 0000.0001) ># use a / character (as shown here).
(PID.TID 0000.0001) ># BUT some compilers do not understand "/"
(PID.TID 0000.0001) 
(PID.TID 0000.0001) // =======================================================
(PID.TID 0000.0001) // Computational Grid Specification ( see files "SIZE.h" )
(PID.TID 0000.0001) //                                  ( and "eedata"       )
(PID.TID 0000.0001) // =======================================================
(PID.TID 0000.0001)      nPx =    1 ; /* No. processes in X */
(PID.TID 0000.0001)      nPy =    1 ; /* No. processes in Y */
(PID.TID 0000.0001)      nSx =    1 ; /* No. tiles in X per process */
(PID.TID 0000.0001)      nSy =    1 ; /* No. tiles in Y per process */
(PID.TID 0000.0001)      sNx =   90 ; /* Tile size in X */
(PID.TID 0000.0001)      sNy =   40 ; /* Tile size in Y */
(PID.TID 0000.0001)      OLx =    2 ; /* Tile overlap distance in X */
(PID.TID 0000.0001)      OLy =    2 ; /* Tile overlap distance in Y */
(PID.TID 0000.0001)      nTx =    1 ; /* No. threads in X per process */
(PID.TID 0000.0001)      nTy =    1 ; /* No. threads in Y per process */
(PID.TID 0000.0001)       Nr =   15 ; /* No. levels in the vertical   */
(PID.TID 0000.0001)       nX =   90 ; /* Total domain size in X ( = nPx*nSx*sNx ) */
(PID.TID 0000.0001)       nY =   40 ; /* Total domain size in Y ( = nPy*nSy*sNy ) */
(PID.TID 0000.0001)   nTiles =    1 ; /* Total no. tiles per process ( = nSx*nSy ) */
(PID.TID 0000.0001)   nProcs =    1 ; /* Total no. processes ( = nPx*nPy ) */
(PID.TID 0000.0001) nThreads =    1 ; /* Total no. threads per process ( = nTx*nTy ) */
(PID.TID 0000.0001) usingMPI =    F ; /* Flag used to control whether MPI is in use */
(PID.TID 0000.0001)                   /*  note: To execute a program with MPI calls */
(PID.TID 0000.0001)                   /*  it must be launched appropriately e.g     */
(PID.TID 0000.0001)                   /*  "mpirun -np 64 ......"                    */
(PID.TID 0000.0001) 
(PID.TID 0000.0001) // ======================================================
(PID.TID 0000.0001) // Mapping of tiles to threads
(PID.TID 0000.0001) // ======================================================
(PID.TID 0000.0001) // -o- Thread   1, tiles (   1:   1,   1:   1)
(PID.TID 0000.0001) 
(PID.TID 0000.0001) // ======================================================
(PID.TID 0000.0001) // Tile <-> Tile connectvity table
(PID.TID 0000.0001) // ======================================================
(PID.TID 0000.0001) // Tile number: 000001 (process no. = 000001)
(PID.TID 0000.0001) //        WEST: Tile = 000001, Process = 000001, Comm = put
(PID.TID 0000.0001) //                bi = 000001, bj = 000001
(PID.TID 0000.0001) //        EAST: Tile = 000001, Process = 000001, Comm = put
(PID.TID 0000.0001) //                bi = 000001, bj = 000001
(PID.TID 0000.0001) //       SOUTH: Tile = 000001, Process = 000001, Comm = put
(PID.TID 0000.0001) //                bi = 000001, bj = 000001
(PID.TID 0000.0001) //       NORTH: Tile = 000001, Process = 000001, Comm = put
(PID.TID 0000.0001) //                bi = 000001, bj = 000001
(PID.TID 0000.0001) 
(PID.TID 0000.0001) // =======================================================
(PID.TID 0000.0001) // Model parameter file "data"
(PID.TID 0000.0001) // =======================================================
(PID.TID 0000.0001) ># ====================
(PID.TID 0000.0001) ># | Model parameters |
(PID.TID 0000.0001) ># ====================
(PID.TID 0000.0001) >#
(PID.TID 0000.0001) ># Continuous equation parameters
(PID.TID 0000.0001) > &PARM01
(PID.TID 0000.0001) > tRef=15*20.,
(PID.TID 0000.0001) > sRef=15*35.,
(PID.TID 0000.0001) > viscAh =3.E5,
(PID.TID 0000.0001) > no_slip_sides=.TRUE.,
(PID.TID 0000.0001) > viscAr =1.721611620915750e5,
(PID.TID 0000.0001) >#viscAz =1.67E-3,
(PID.TID 0000.0001) > no_slip_bottom=.FALSE.,
(PID.TID 0000.0001) > diffKhT=1.E3,
(PID.TID 0000.0001) > diffKrT=5.154525811125000e3,
(PID.TID 0000.0001) >#diffKzT=0.5E-4,
(PID.TID 0000.0001) > diffKhS=1.E3,
(PID.TID 0000.0001) > diffKrS=5.154525811125000e3,
(PID.TID 0000.0001) >#diffKzS=0.5E-4,
(PID.TID 0000.0001) > implicitDiffusion=.TRUE.,
(PID.TID 0000.0001) > ivdc_kappa=1.030905162225000e9,
(PID.TID 0000.0001) >#ivdc_kappa=10.0,
(PID.TID 0000.0001) > gravity=9.81,
(PID.TID 0000.0001) > rhonil=1035.,
(PID.TID 0000.0001) > buoyancyRelation='OCEANICP',
(PID.TID 0000.0001) > integr_GeoPot=1,
(PID.TID 0000.0001) > eosType='JMD95P',
(PID.TID 0000.0001) > useNHMTerms=.TRUE.,
(PID.TID 0000.0001) > rigidLid=.FALSE.,
(PID.TID 0000.0001) > implicitFreeSurface=.TRUE.,
(PID.TID 0000.0001) > exactConserv=.TRUE.,
(PID.TID 0000.0001) > nonlinFreeSurf=4,
(PID.TID 0000.0001) > hFacInf=0.2,
(PID.TID 0000.0001) > hFacSup=2.0,
(PID.TID 0000.0001) >#useRealFreshWaterFlux=.TRUE.,
(PID.TID 0000.0001) > readBinaryPrec=64,
(PID.TID 0000.0001) > writeBinaryPrec=64,
(PID.TID 0000.0001) > cosPower=0.5,
(PID.TID 0000.0001) > &
(PID.TID 0000.0001) >
(PID.TID 0000.0001) ># Elliptic solver parameters
(PID.TID 0000.0001) > &PARM02
(PID.TID 0000.0001) > cg2dMaxIters=200,
(PID.TID 0000.0001) > cg2dTargetResidual=1.E-9,
(PID.TID 0000.0001) > &
(PID.TID 0000.0001) >
(PID.TID 0000.0001) ># Time stepping parameters
(PID.TID 0000.0001) > &PARM03
(PID.TID 0000.0001) > startTime =           0.,
(PID.TID 0000.0001) > endTime   =     3456000.,
(PID.TID 0000.0001) ># after 100 years of intergration, one gets a reasonable flow field
(PID.TID 0000.0001) >#endTime   = 3110400000.,
(PID.TID 0000.0001) > deltaTmom      =   1200.0,
(PID.TID 0000.0001) > deltaTtracer   = 172800.0,
(PID.TID 0000.0001) > deltaTfreesurf = 172800.0,
(PID.TID 0000.0001) > deltaTClock    = 172800.0,
(PID.TID 0000.0001) > pChkptFreq  = 3110400000.,
(PID.TID 0000.0001) > dumpFreq    = 3110400000.,
(PID.TID 0000.0001) > taveFreq    = 3110400000.,
(PID.TID 0000.0001) > monitorFreq =   1.,
(PID.TID 0000.0001) > periodicExternalForcing=.TRUE.,
(PID.TID 0000.0001) > externForcingPeriod=2592000.,
(PID.TID 0000.0001) > externForcingCycle=31104000.,
(PID.TID 0000.0001) > tauThetaClimRelax=5184000.0,
(PID.TID 0000.0001) > abEps=0.1,
(PID.TID 0000.0001) > &
(PID.TID 0000.0001) >
(PID.TID 0000.0001) ># Gridding parameters
(PID.TID 0000.0001) > &PARM04
(PID.TID 0000.0001) > usingCartesianGrid=.FALSE.,
(PID.TID 0000.0001) > usingSphericalPolarGrid=.TRUE.,
(PID.TID 0000.0001) > dXspacing=4.,
(PID.TID 0000.0001) > dYspacing=4.,
(PID.TID 0000.0001) > Ro_SeaLevel=53023122.566084,
(PID.TID 0000.0001) > groundAtK1=.TRUE.,
(PID.TID 0000.0001) > delR=7103300.720021, 6570548.440790, 6041670.010249,
(PID.TID 0000.0001) >      5516436.666057, 4994602.034410, 4475903.435290,
(PID.TID 0000.0001) >      3960063.245801, 3446790.312651, 2935781.405664,
(PID.TID 0000.0001) >      2426722.705046, 1919291.315988, 1413156.804970,
(PID.TID 0000.0001) >      1008846.750166,  705919.025481,  504089.693499,
(PID.TID 0000.0001) > phiMin=-80.,
(PID.TID 0000.0001) > &
(PID.TID 0000.0001) >
(PID.TID 0000.0001) ># Input datasets
(PID.TID 0000.0001) > &PARM05
(PID.TID 0000.0001) > topoFile       ='topog.bin',
(PID.TID 0000.0001) > pLoadFile      ='deltageopotjmd95.bin',
(PID.TID 0000.0001) > hydrogThetaFile='lev_t.bin',
(PID.TID 0000.0001) > hydrogSaltFile ='lev_s.bin',
(PID.TID 0000.0001) > zonalWindFile  ='trenberth_taux.bin',
(PID.TID 0000.0001) > meridWindFile  ='trenberth_tauy.bin',
(PID.TID 0000.0001) > thetaClimFile  ='lev_sst.bin',
(PID.TID 0000.0001) >#saltClimFile   ='lev_sss.bin',
(PID.TID 0000.0001) > surfQFile      ='shi_qnet.bin',
(PID.TID 0000.0001) > EmPmRFile      ='shi_empmr.bin',
(PID.TID 0000.0001) > &
(PID.TID 0000.0001) 
(PID.TID 0000.0001) S/R INI_PARMS ; read PARM01 : OK
(PID.TID 0000.0001) S/R INI_PARMS ; read PARM02 : OK
(PID.TID 0000.0001) S/R INI_PARMS ; read PARM03 : OK
(PID.TID 0000.0001) S/R INI_PARMS ; read PARM04 : OK
(PID.TID 0000.0001) S/R INI_PARMS ; read PARM05 : OK
(PID.TID 0000.0001) %MON XC_max                       =   3.5800000000000E+02
(PID.TID 0000.0001) %MON XC_min                       =   2.0000000000000E+00
(PID.TID 0000.0001) %MON XC_mean                      =   1.8000000000000E+02
(PID.TID 0000.0001) %MON XC_sd                        =   1.0391663325314E+02
(PID.TID 0000.0001) %MON XG_max                       =   3.5600000000000E+02
(PID.TID 0000.0001) %MON XG_min                       =   4.0000000000000E+00
(PID.TID 0000.0001) %MON XG_mean                      =   1.8000000000000E+02
(PID.TID 0000.0001) %MON XG_sd                        =   1.0276186062932E+02
(PID.TID 0000.0001) %MON DXC_max                      =   4.4443898815675E+05
(PID.TID 0000.0001) %MON DXC_min                      =   9.2460385861875E+04
(PID.TID 0000.0001) %MON DXC_mean                     =   3.1372497618153E+05
(PID.TID 0000.0001) %MON DXC_sd                       =   1.1216447457560E+05
(PID.TID 0000.0001) %MON DXF_max                      =   4.4443898815675E+05
(PID.TID 0000.0001) %MON DXF_min                      =   9.2460385861875E+04
(PID.TID 0000.0001) %MON DXF_mean                     =   3.1372497618153E+05
(PID.TID 0000.0001) %MON DXF_sd                       =   1.1216447457560E+05
(PID.TID 0000.0001) %MON DXG_max                      =   4.4470989340816E+05
(PID.TID 0000.0001) %MON DXG_min                      =   7.7223062580781E+04
(PID.TID 0000.0001) %MON DXG_mean                     =   3.1353386340260E+05
(PID.TID 0000.0001) %MON DXG_sd                       =   1.1256651772502E+05
(PID.TID 0000.0001) %MON DXV_max                      =   4.4470989340816E+05
(PID.TID 0000.0001) %MON DXV_min                      =   7.7223062580781E+04
(PID.TID 0000.0001) %MON DXV_mean                     =   3.1353386340260E+05
(PID.TID 0000.0001) %MON DXV_sd                       =   1.1256651772502E+05
(PID.TID 0000.0001) %MON YC_max                       =   7.8000000000000E+01
(PID.TID 0000.0001) %MON YC_min                       =  -7.8000000000000E+01
(PID.TID 0000.0001) %MON YC_mean                      =   0.0000000000000E+00
(PID.TID 0000.0001) %MON YC_sd                        =   4.6173585522461E+01
(PID.TID 0000.0001) %MON YG_max                       =   7.6000000000000E+01
(PID.TID 0000.0001) %MON YG_min                       =  -8.0000000000000E+01
(PID.TID 0000.0001) %MON YG_mean                      =  -2.0512820512821E+00
(PID.TID 0000.0001) %MON YG_sd                        =   4.6760682979564E+01
(PID.TID 0000.0001) %MON DYC_max                      =   4.4470989340816E+05
(PID.TID 0000.0001) %MON DYC_min                      =   4.4470989340816E+05
(PID.TID 0000.0001) %MON DYC_mean                     =   4.4470989340814E+05
(PID.TID 0000.0001) %MON DYC_sd                       =   1.9848812371492E-08
(PID.TID 0000.0001) %MON DYF_max                      =   4.4470989340816E+05
(PID.TID 0000.0001) %MON DYF_min                      =   4.4470989340816E+05
(PID.TID 0000.0001) %MON DYF_mean                     =   4.4470989340814E+05
(PID.TID 0000.0001) %MON DYF_sd                       =   1.9848812371492E-08
(PID.TID 0000.0001) %MON DYG_max                      =   4.4470989340816E+05
(PID.TID 0000.0001) %MON DYG_min                      =   4.4470989340816E+05
(PID.TID 0000.0001) %MON DYG_mean                     =   4.4470989340814E+05
(PID.TID 0000.0001) %MON DYG_sd                       =   1.9848812371492E-08
(PID.TID 0000.0001) %MON DYU_max                      =   4.4470989340816E+05
(PID.TID 0000.0001) %MON DYU_min                      =   4.4470989340816E+05
(PID.TID 0000.0001) %MON DYU_mean                     =   4.4470989340814E+05
(PID.TID 0000.0001) %MON DYU_sd                       =   1.9848812371492E-08
(PID.TID 0000.0001) %MON RA_max                       =   1.9760627980089E+11
(PID.TID 0000.0001) %MON RA_min                       =   4.1109698667290E+10
(PID.TID 0000.0001) %MON RA_mean                      =   1.3948826965197E+11
(PID.TID 0000.0001) %MON RA_sd                        =   4.9870522472902E+10
(PID.TID 0000.0001) %MON RAW_max                      =   1.9760627980089E+11
(PID.TID 0000.0001) %MON RAW_min                      =   4.1109698667290E+10
(PID.TID 0000.0001) %MON RAW_mean                     =   1.3948826965197E+11
(PID.TID 0000.0001) %MON RAW_sd                       =   4.9870522472902E+10
(PID.TID 0000.0001) %MON RAS_max                      =   1.9772672958215E+11
(PID.TID 0000.0001) %MON RAS_min                      =   3.4334886267982E+10
(PID.TID 0000.0001) %MON RAS_mean                     =   1.3940329716694E+11
(PID.TID 0000.0001) %MON RAS_sd                       =   5.0049278732354E+10
(PID.TID 0000.0001) %MON RAZ_max                      =   1.9772672958215E+11
(PID.TID 0000.0001) %MON RAZ_min                      =   3.4334886267982E+10
(PID.TID 0000.0001) %MON RAZ_mean                     =   1.3940329716694E+11
(PID.TID 0000.0001) %MON RAZ_sd                       =   5.0049278732354E+10
(PID.TID 0000.0001)  MDSREADFIELD: opening global file: topog.bin
(PID.TID 0000.0001) // =======================================================
(PID.TID 0000.0001) // Field Model R_low (ini_masks_etc) at iteration          1
(PID.TID 0000.0001) // CMIN =          1.008622348308563E-06
(PID.TID 0000.0001) // CMAX =          1.008622348308563E-06
(PID.TID 0000.0001) // CINT =          0.000000000000000E+00
(PID.TID 0000.0001) // SYMBOLS (CMIN->CMAX): -abcdefghijklmnopqrstuvwxyz+
(PID.TID 0000.0001) //                  0.0: .
(PID.TID 0000.0001) // RANGE I (Lo:Hi:Step):(  -1:  92:   1)
(PID.TID 0000.0001) // RANGE J (Lo:Hi:Step):(  42:  -1:  -1)
(PID.TID 0000.0001) // RANGE K (Lo:Hi:Step):(   1:   1:   1)
(PID.TID 0000.0001) // =======================================================
(PID.TID 0000.0001) K =   1
(PID.TID 0000.0001) //                I=8       I=18      I=28      I=38      I=48      I=58      I=68      I=78      I=88
(PID.TID 0000.0001) // |--J--|*01234567|901234567|901234567|901234567|901234567|901234567|901234567|901234567|901234567|9012
(PID.TID 0000.0001) //     42 ----------------------------------------------------------------------------------------------
(PID.TID 0000.0001) //     41 ----------------------------------------------------------------------------------------------
(PID.TID 0000.0001) //     40 ----------------------------------------------------------------------------------------------
(PID.TID 0000.0001) //     39 ----------------------------------------------------------------------------------------------
(PID.TID 0000.0001) //     38 ----------------------------------------------------------------------------------------------
(PID.TID 0000.0001) //     37 ----------------------------------------------------------------------------------------------
(PID.TID 0000.0001) //     36 ----------------------------------------------------------------------------------------------
(PID.TID 0000.0001) //     35 ----------------------------------------------------------------------------------------------
(PID.TID 0000.0001) //     34 ----------------------------------------------------------------------------------------------
(PID.TID 0000.0001) //     33 ----------------------------------------------------------------------------------------------
(PID.TID 0000.0001) //     32 ----------------------------------------------------------------------------------------------
(PID.TID 0000.0001) //     31 ----------------------------------------------------------------------------------------------
(PID.TID 0000.0001) //     30 ----------------------------------------------------------------------------------------------
(PID.TID 0000.0001) //     29 ----------------------------------------------------------------------------------------------
(PID.TID 0000.0001) //     28 ----------------------------------------------------------------------------------------------
(PID.TID 0000.0001) //     27 ----------------------------------------------------------------------------------------------
(PID.TID 0000.0001) //     26 ----------------------------------------------------------------------------------------------
(PID.TID 0000.0001) //     25 ----------------------------------------------------------------------------------------------
(PID.TID 0000.0001) //     24 ----------------------------------------------------------------------------------------------
(PID.TID 0000.0001) //     23 ----------------------------------------------------------------------------------------------
(PID.TID 0000.0001) //     22 ----------------------------------------------------------------------------------------------
(PID.TID 0000.0001) //     21 ----------------------------------------------------------------------------------------------
(PID.TID 0000.0001) //     20 ----------------------------------------------------------------------------------------------
(PID.TID 0000.0001) //     19 ----------------------------------------------------------------------------------------------
(PID.TID 0000.0001) //     18 ----------------------------------------------------------------------------------------------
(PID.TID 0000.0001) //     17 ----------------------------------------------------------------------------------------------
(PID.TID 0000.0001) //     16 ----------------------------------------------------------------------------------------------
(PID.TID 0000.0001) //     15 ----------------------------------------------------------------------------------------------
(PID.TID 0000.0001) //     14 ----------------------------------------------------------------------------------------------
(PID.TID 0000.0001) //     13 ----------------------------------------------------------------------------------------------
(PID.TID 0000.0001) //     12 ----------------------------------------------------------------------------------------------
(PID.TID 0000.0001) //     11 ----------------------------------------------------------------------------------------------
(PID.TID 0000.0001) //     10 ----------------------------------------------------------------------------------------------
(PID.TID 0000.0001) //      9 ----------------------------------------------------------------------------------------------
(PID.TID 0000.0001) //      8 ----------------------------------------------------------------------------------------------
(PID.TID 0000.0001) //      7 ----------------------------------------------------------------------------------------------
(PID.TID 0000.0001) //      6 ----------------------------------------------------------------------------------------------
(PID.TID 0000.0001) //      5 ----------------------------------------------------------------------------------------------
(PID.TID 0000.0001) //      4 ----------------------------------------------------------------------------------------------
(PID.TID 0000.0001) //      3 ----------------------------------------------------------------------------------------------
(PID.TID 0000.0001) //      2 ----------------------------------------------------------------------------------------------
(PID.TID 0000.0001) //      1 ----------------------------------------------------------------------------------------------
(PID.TID 0000.0001) //      0 ----------------------------------------------------------------------------------------------
(PID.TID 0000.0001) //     -1 ----------------------------------------------------------------------------------------------
(PID.TID 0000.0001) // =======================================================
(PID.TID 0000.0001) // END OF FIELD                                          =
(PID.TID 0000.0001) // =======================================================
(PID.TID 0000.0001) 
(PID.TID 0000.0001) // =======================================================
(PID.TID 0000.0001) // Field Model Ro_surf (ini_masks_etc) at iteration          1
(PID.TID 0000.0001) // CMIN =          1.008622348308563E-06
(PID.TID 0000.0001) // CMAX =          5.302312256608400E+07
(PID.TID 0000.0001) // CINT =          1.963819354299370E+06
(PID.TID 0000.0001) // SYMBOLS (CMIN->CMAX): -abcdefghijklmnopqrstuvwxyz+
(PID.TID 0000.0001) //                  0.0: .
(PID.TID 0000.0001) // RANGE I (Lo:Hi:Step):(  -1:  92:   1)
(PID.TID 0000.0001) // RANGE J (Lo:Hi:Step):(  42:  -1:  -1)
(PID.TID 0000.0001) // RANGE K (Lo:Hi:Step):(   1:   1:   1)
(PID.TID 0000.0001) // =======================================================
(PID.TID 0000.0001) K =   1
(PID.TID 0000.0001) //                I=8       I=18      I=28      I=38      I=48      I=58      I=68      I=78      I=88
(PID.TID 0000.0001) // |--J--|*01234567|901234567|901234567|901234567|901234567|901234567|901234567|901234567|901234567|9012
(PID.TID 0000.0001) //     42 --------------------------------------------bbcdnttwwwttttqnnlfddc--abcc-----ccbcltttttba-----
(PID.TID 0000.0001) //     41 ----------------------------------------------------------------------------------------------
(PID.TID 0000.0001) //     40 innllaa-aaaaaaaaaaaaa------------------------------------------------------------------aaainnl
(PID.TID 0000.0001) //     39 gnnllibbaaaaaaaa---aa-----------------------------------------------------bdda--------abffgnnl
(PID.TID 0000.0001) //     38 nllllibbaaaaaaa-----------------------------------------------------------bddca------bccfgnlll
(PID.TID 0000.0001) //     37 nnnga------------------------------------------------------------------aa---bca---bggc--agnnng
(PID.TID 0000.0001) //     36 fgga-----------------------------------------nnaa--------------------aaaaaaabnnn-bllfggffcfgga
(PID.TID 0000.0001) //     35 aaaa---------------------------------aaaa--iinnqqa---atttn-----------aaa----annqqqnglllgddaaaa
(PID.TID 0000.0001) //     34 -------------------------------------affc-tticcfab-wwwttttn------------------anqttqqqtttna----
(PID.TID 0000.0001) //     33 a-------------------------------------ffa+++t+++++++++wwwtqna-----------------aifwwtnttttda---
(PID.TID 0000.0001) //     32 a-------------------------------------ag++++t++++++++++wwttnn----------------aaatwttqltttna---
(PID.TID 0000.0001) //     31 --------------------------------------++++++w++++++++++wwwtqn--------------iw++twwwtiltwwn----
(PID.TID 0000.0001) //     30 -------------------------------------t++++w++w+++++++++++++ww------------at++++twwwlgqtwwq----
(PID.TID 0000.0001) //     29 -----------------------------------gf++++t+++tqt+++++++++++wwt-----------w++w+++wtnqq++wtq----
(PID.TID 0000.0001) //     28 ---------------------------------actn+++++++++++++++++++wwwwwtq---------iw++++++wntww++wqa----
(PID.TID 0000.0001) //     27 ----------------cc--------------aftttlt++++++++w+nnw+++wwwwwwttt---aaac-iw++++++qt+++++t------
(PID.TID 0000.0001) //     26 ----------------cnn-----------afw+++wl+++++++++++qwtn++++++wwtttqg-aa-ii-c++++++tw++++wq------
(PID.TID 0000.0001) //     25 ----------------qttq---lla---atfw+++wl+++ww++qqtnt+++++++++wwtttqnn---iifnac+++wqw++wwqq------
(PID.TID 0000.0001) //     24 --------------cntwwtg-qqqa---ftt-++twn+++++++++++++++++++wwwwwttqnqqqf-afnnddwwwtw++++wt------
(PID.TID 0000.0001) //     23 --------------dttwwtl-ttqd---fff--tqtq++++ttw+++++w++++++wwwwwttqqqqqql----bbqwwwt++++ww------
(PID.TID 0000.0001) //     22 gii-----------wwwqttgnttqq---bb-dlqwwlltwwwwt++++++wt+w++wwwwwwtttqqqqii------dwwwttwwtwwigii-
(PID.TID 0000.0001) //     21 ++wqi--------nwwwwqtiwwwqqb-----dltwwqtttnwwt++++++wqwwwwwwwwwttttqnnill--------twwtqttwww++wq
(PID.TID 0000.0001) //     20 ++wwi-------nwwwwwtqwwwwqww------b-fqqqgiltttt+++++++wwwwwwwwwwtttqttqqn---------ntt+++ttw++ww
(PID.TID 0000.0001) //     19 ww++t-------qwwlittl+++qwwwwd---aba-----iannww++++t++++wwwwwwwwttqtttttt-----------w+++wqtww++
(PID.TID 0000.0001) //     18 w+++w-------qtnttfqq+++qwww++w+qfaa---iiblntwwwwtwtq+++wwtwwwwwtqtttttwwa----------w+++wqtw+++
(PID.TID 0000.0001) //     17 w+++w-------q-twwdqt+++l+++++++qf-----iilnninnnltwww++wwwttttttnqttqtwwwq---------tw+++wqtw+++
(PID.TID 0000.0001) //     16 w+++w------gn-wwtnntw++i++++++nf-------flnnfnnndf+++wwqflnttttqntttttwwwqt--------it+++wqtw+++
(PID.TID 0000.0001) //     15 w++wlb----aqq-wwwttnwwwnw+++++f---------lggdllnf++++wwwwwtqtttqqtttttwwqttt------atw+++wqtw++w
(PID.TID 0000.0001) //     14 w++nwn----dwwi+++tqqqtwnw++w+tb---------ttgglttg++++++wwtwttqqqnqttqqqqtttt-----aqtw+++wntw++n
(PID.TID 0000.0001) //     13 wwn++t----nwwl+++qwwtqttliiw++n---------wwggittg++++++++wwwtttqqnqqttqttttl----aqttlwwwtntwwn+
(PID.TID 0000.0001) //     12 tt+++wdaqttwwnwntwwwtntqttww++wt+++a----wwigiilw+++++++++wwqtttqqqqqtttttt-----qwwwwttttnttt++
(PID.TID 0000.0001) //     11 tw+++w++qtwwwnnt++wwtlttttwww++++++++--wwwwng-nw+w+++++++++wwwtqntttqqtttt----n+++++wwtqnqtw++
(PID.TID 0000.0001) //     10 tw++ww+w++wtiqqt++wwtqnnnqttwwww+++++w-wwwwtd-nbiw+++++++++wwwtqnttwwttqtq--ad++++++wwttnqtw++
(PID.TID 0000.0001) //      9 ttwwwww+++llglntwtwtqqqttnnnttwwwwwwwwnwwwwt-fbt+++++++++++wwwtnqttwwwttqf-aad++++++wwwtqnttww
(PID.TID 0000.0001) //      8 tttqqqw++twwttwwwwfblqttttttnqqqttqqqtwtwwticfw++++++wwwwwwwttqnttwwwwwwta-aacttn++wtwwwtntttq
(PID.TID 0000.0001) //      7 ninnwwqqt++wnw++wwtgcqtwwwttwwwwwwwttnttwwntw++++++wwwwtttqtqnnttwww+++wwt-aaaintgfqtqwwwtninn
(PID.TID 0000.0001) //      6 w++++++++++++++++wwwnggwwwwwwwwwwwwwwtqqqqttw++++wwwtqnnqnwtww+++w+w+++wwwtqqqqtilnniwtqtww+++
(PID.TID 0000.0001) //      5 +++++++++++++++++wwwttttwwwwwwwwwwwwwtqqqlnlwwwwtttnnnqtwwww++++++++w+wwwwtqqqgitwwwwww+++++++
(PID.TID 0000.0001) //      4 ++tw++++++wwwqttttqqqttqqlbdnnllqqlnqqqqqnnnlnqlnnntttwwwwww+++++++wwwwwttnb--cqtwwwwww+++++tw
(PID.TID 0000.0001) //      3 ttttilqqqdcc----------------------------cclgnqqqqttwwwwwwwwwtttttwwwwttqqbb--ciqtwwwwwwwwttttt
(PID.TID 0000.0001) //      2 --------------------------------------------bbcdnttwwwttttqnnlfddc--abcc-----ccbcltttttba-----
(PID.TID 0000.0001) //      1 ----------------------------------------------------------------------------------------------
(PID.TID 0000.0001) //      0 innllaa-aaaaaaaaaaaaa------------------------------------------------------------------aaainnl
(PID.TID 0000.0001) //     -1 gnnllibbaaaaaaaa---aa-----------------------------------------------------bdda--------abffgnnl
(PID.TID 0000.0001) // =======================================================
(PID.TID 0000.0001) // END OF FIELD                                          =
(PID.TID 0000.0001) // =======================================================
(PID.TID 0000.0001) 
(PID.TID 0000.0001) // =======================================================
(PID.TID 0000.0001) // Field hFacC at iteration          1
(PID.TID 0000.0001) // CMIN =          1.000000000000000E+00
(PID.TID 0000.0001) // CMAX =          1.000000000000000E+00
(PID.TID 0000.0001) // CINT =          0.000000000000000E+00
(PID.TID 0000.0001) // SYMBOLS (CMIN->CMAX): -abcdefghijklmnopqrstuvwxyz+
(PID.TID 0000.0001) //                  0.0: .
(PID.TID 0000.0001) // RANGE I (Lo:Hi:Step):(  -1:  92:   1)
(PID.TID 0000.0001) // RANGE J (Lo:Hi:Step):(  42:  -1:  -1)
(PID.TID 0000.0001) // RANGE K (Lo:Hi:Step):(   1:   1:   1)
(PID.TID 0000.0001) // =======================================================
(PID.TID 0000.0001) K =   1
(PID.TID 0000.0001) //                I=8       I=18      I=28      I=38      I=48      I=58      I=68      I=78      I=88
(PID.TID 0000.0001) // |--J--|*01234567|901234567|901234567|901234567|901234567|901234567|901234567|901234567|901234567|9012
(PID.TID 0000.0001) //     42 ..............................................................................................
(PID.TID 0000.0001) //     41 ..............................................................................................
(PID.TID 0000.0001) //     40 ..............................................................................................
(PID.TID 0000.0001) //     39 ..............................................................................................
(PID.TID 0000.0001) //     38 ..............................................................................................
(PID.TID 0000.0001) //     37 ..............................................................................................
(PID.TID 0000.0001) //     36 ..............................................................................................
(PID.TID 0000.0001) //     35 ..............................................................................................
(PID.TID 0000.0001) //     34 ..............................................................................................
(PID.TID 0000.0001) //     33 .........................................---.---------........................................
(PID.TID 0000.0001) //     32 ........................................----.----------.......................................
(PID.TID 0000.0001) //     31 ......................................------.----------......................--...............
(PID.TID 0000.0001) //     30 ......................................----.--.-------------................----...............
(PID.TID 0000.0001) //     29 .....................................----.---...-----------...............--.---.....--.......
(PID.TID 0000.0001) //     28 .....................................-------------------..................------.....--.......
(PID.TID 0000.0001) //     27 .......................................--------.-...---...................------..-----.......
(PID.TID 0000.0001) //     26 .................................---..-----------....------...............------..----........
(PID.TID 0000.0001) //     25 .................................---..---..--.....---------.................---...--..........
(PID.TID 0000.0001) //     24 .................................--...-------------------.........................----........
(PID.TID 0000.0001) //     23 ......................................----...-----.------.........................----........
(PID.TID 0000.0001) //     22 .............................................------..-.--.....................................
(PID.TID 0000.0001) //     21 --...........................................------.......................................--..
(PID.TID 0000.0001) //     20 --............................................-------...............................---...--..
(PID.TID 0000.0001) //     19 ..--................---.......................----.----.............................---.....--
(PID.TID 0000.0001) //     18 .---................---....--.-.....................---.............................---....---
(PID.TID 0000.0001) //     17 .---................---.-------.....................--..............................---....---
(PID.TID 0000.0001) //     16 .---.................--.------...................---................................---....---
(PID.TID 0000.0001) //     15 .--......................-----..................----................................---....--.
(PID.TID 0000.0001) //     14 .--...........---........--.-...................------..............................---....--.
(PID.TID 0000.0001) //     13 ...--.........---...........--..................--------.....................................-
(PID.TID 0000.0001) //     12 ..---.......................--..---.............---------...................................--
(PID.TID 0000.0001) //     11 ..---.--........--...........--------...........-.---------....................-----........--
(PID.TID 0000.0001) //     10 ..--..-.--......--..............-----.............---------...................------........--
(PID.TID 0000.0001) //      9 .......---......................................-----------...................------..........
(PID.TID 0000.0001) //      8 .......--......................................------............................--...........
(PID.TID 0000.0001) //      7 .........--...--.............................------.................---.......................
(PID.TID 0000.0001) //      6 .----------------............................----.............---.-.---....................---
(PID.TID 0000.0001) //      5 -----------------...........................................--------.-.................-------
(PID.TID 0000.0001) //      4 --..------..................................................-------....................-----..
(PID.TID 0000.0001) //      3 ..............................................................................................
(PID.TID 0000.0001) //      2 ..............................................................................................
(PID.TID 0000.0001) //      1 ..............................................................................................
(PID.TID 0000.0001) //      0 ..............................................................................................
(PID.TID 0000.0001) //     -1 ..............................................................................................
(PID.TID 0000.0001) // =======================================================
(PID.TID 0000.0001) // END OF FIELD                                          =
(PID.TID 0000.0001) // =======================================================
(PID.TID 0000.0001) 
(PID.TID 0000.0001) // =======================================================
(PID.TID 0000.0001) // Field hFacW at iteration          1
(PID.TID 0000.0001) // CMIN =          1.000000000000000E+00
(PID.TID 0000.0001) // CMAX =          1.000000000000000E+00
(PID.TID 0000.0001) // CINT =          0.000000000000000E+00
(PID.TID 0000.0001) // SYMBOLS (CMIN->CMAX): -abcdefghijklmnopqrstuvwxyz+
(PID.TID 0000.0001) //                  0.0: .
(PID.TID 0000.0001) // RANGE I (Lo:Hi:Step):(  -1:  92:   1)
(PID.TID 0000.0001) // RANGE J (Lo:Hi:Step):(  42:  -1:  -1)
(PID.TID 0000.0001) // RANGE K (Lo:Hi:Step):(   1:   1:   1)
(PID.TID 0000.0001) // =======================================================
(PID.TID 0000.0001) K =   1
(PID.TID 0000.0001) //                I=8       I=18      I=28      I=38      I=48      I=58      I=68      I=78      I=88
(PID.TID 0000.0001) // |--J--|*01234567|901234567|901234567|901234567|901234567|901234567|901234567|901234567|901234567|9012
(PID.TID 0000.0001) //     42 ..............................................................................................
(PID.TID 0000.0001) //     41 ..............................................................................................
(PID.TID 0000.0001) //     40 ..............................................................................................
(PID.TID 0000.0001) //     39 ..............................................................................................
(PID.TID 0000.0001) //     38 ..............................................................................................
(PID.TID 0000.0001) //     37 ..............................................................................................
(PID.TID 0000.0001) //     36 ..............................................................................................
(PID.TID 0000.0001) //     35 ..............................................................................................
(PID.TID 0000.0001) //     34 ..............................................................................................
(PID.TID 0000.0001) //     33 ..........................................--..--------........................................
(PID.TID 0000.0001) //     32 .........................................---..---------.......................................
(PID.TID 0000.0001) //     31 .......................................-----..---------.......................-...............
(PID.TID 0000.0001) //     30 .......................................---..-..------------.................---...............
(PID.TID 0000.0001) //     29 ......................................---..--....----------................-..--......-.......
(PID.TID 0000.0001) //     28 ......................................------------------...................-----......-.......
(PID.TID 0000.0001) //     27 ........................................-------......--....................-----...----.......
(PID.TID 0000.0001) //     26 ..................................--...----------.....-----................-----...---........
(PID.TID 0000.0001) //     25 ..................................--...--...-......--------..................--....-..........
(PID.TID 0000.0001) //     24 ..................................-....------------------..........................---........
(PID.TID 0000.0001) //     23 .......................................---....----..-----..........................---........
(PID.TID 0000.0001) //     22 ..............................................-----.....-.....................................
(PID.TID 0000.0001) //     21 .-............................................-----........................................-..
(PID.TID 0000.0001) //     20 .-.............................................------................................--....-..
(PID.TID 0000.0001) //     19 ...-.................--........................---..---..............................--......-
(PID.TID 0000.0001) //     18 ..--.................--.....-........................--..............................--.....--
(PID.TID 0000.0001) //     17 ..--.................--..------......................-...............................--.....--
(PID.TID 0000.0001) //     16 ..--..................-..-----....................--.................................--.....--
(PID.TID 0000.0001) //     15 ..-.......................----...................---.................................--.....-.
(PID.TID 0000.0001) //     14 ..-............--.........-......................-----...............................--.....-.
(PID.TID 0000.0001) //     13 ....-..........--............-...................-------......................................
(PID.TID 0000.0001) //     12 ...--........................-...--..............--------....................................-
(PID.TID 0000.0001) //     11 ...--..-.........-............-------..............--------.....................----.........-
(PID.TID 0000.0001) //     10 ...-.....-.......-...............----..............--------....................-----.........-
(PID.TID 0000.0001) //      9 ........--.......................................----------....................-----..........
(PID.TID 0000.0001) //      8 ........-.......................................-----.............................-...........
(PID.TID 0000.0001) //      7 ..........-....-..............................-----..................--.......................
(PID.TID 0000.0001) //      6 ..---------------.............................---..............--....--.....................--
(PID.TID 0000.0001) //      5 -----------------............................................-------....................------
(PID.TID 0000.0001) //      4 --...-----...................................................------.....................----..
(PID.TID 0000.0001) //      3 ..............................................................................................
(PID.TID 0000.0001) //      2 ..............................................................................................
(PID.TID 0000.0001) //      1 ..............................................................................................
(PID.TID 0000.0001) //      0 ..............................................................................................
(PID.TID 0000.0001) //     -1 ..............................................................................................
(PID.TID 0000.0001) // =======================================================
(PID.TID 0000.0001) // END OF FIELD                                          =
(PID.TID 0000.0001) // =======================================================
(PID.TID 0000.0001) 
(PID.TID 0000.0001) // =======================================================
(PID.TID 0000.0001) // Field hFacS at iteration          1
(PID.TID 0000.0001) // CMIN =          1.000000000000000E+00
(PID.TID 0000.0001) // CMAX =          1.000000000000000E+00
(PID.TID 0000.0001) // CINT =          0.000000000000000E+00
(PID.TID 0000.0001) // SYMBOLS (CMIN->CMAX): -abcdefghijklmnopqrstuvwxyz+
(PID.TID 0000.0001) //                  0.0: .
(PID.TID 0000.0001) // RANGE I (Lo:Hi:Step):(  -1:  92:   1)
(PID.TID 0000.0001) // RANGE J (Lo:Hi:Step):(  42:  -1:  -1)
(PID.TID 0000.0001) // RANGE K (Lo:Hi:Step):(   1:   1:   1)
(PID.TID 0000.0001) // =======================================================
(PID.TID 0000.0001) K =   1
(PID.TID 0000.0001) //                I=8       I=18      I=28      I=38      I=48      I=58      I=68      I=78      I=88
(PID.TID 0000.0001) // |--J--|*01234567|901234567|901234567|901234567|901234567|901234567|901234567|901234567|901234567|9012
(PID.TID 0000.0001) //     42 ..............................................................................................
(PID.TID 0000.0001) //     41 ..............................................................................................
(PID.TID 0000.0001) //     40 ..............................................................................................
(PID.TID 0000.0001) //     39 ..............................................................................................
(PID.TID 0000.0001) //     38 ..............................................................................................
(PID.TID 0000.0001) //     37 ..............................................................................................
(PID.TID 0000.0001) //     36 ..............................................................................................
(PID.TID 0000.0001) //     35 ..............................................................................................
(PID.TID 0000.0001) //     34 ..............................................................................................
(PID.TID 0000.0001) //     33 .........................................---.---------........................................
(PID.TID 0000.0001) //     32 ........................................----.----------.......................................
(PID.TID 0000.0001) //     31 ......................................----.-..---------......................--...............
(PID.TID 0000.0001) //     30 ......................................---..--...-----------................-.--...............
(PID.TID 0000.0001) //     29 .....................................----.---...--------..................--.---.....--.......
(PID.TID 0000.0001) //     28 .......................................--------.-...---...................------.....--.......
(PID.TID 0000.0001) //     27 .......................................--------.-....--...................------..----........
(PID.TID 0000.0001) //     26 .................................---..---..--........------.................---...--..........
(PID.TID 0000.0001) //     25 .................................--...---..--.....-------.........................--..........
(PID.TID 0000.0001) //     24 ......................................----...-----.------.........................----........
(PID.TID 0000.0001) //     23 .............................................-----...-.--.....................................
(PID.TID 0000.0001) //     22 .............................................------...........................................
(PID.TID 0000.0001) //     21 --............................................-----.......................................--..
(PID.TID 0000.0001) //     20 ..............................................----.--...............................---.......
(PID.TID 0000.0001) //     19 ..--................---.............................---.............................---.....--
(PID.TID 0000.0001) //     18 .---................---....--.-.....................--..............................---....---
(PID.TID 0000.0001) //     17 .---.................--.------......................................................---....---
(PID.TID 0000.0001) //     16 .--......................-----...................---................................---....--.
(PID.TID 0000.0001) //     15 .--......................--.-...................----................................---....--.
(PID.TID 0000.0001) //     14 ..............---...........-...................------........................................
(PID.TID 0000.0001) //     13 ...--.......................--..................--------.....................................-
(PID.TID 0000.0001) //     12 ..---........................-..---.............-.-------...................................--
(PID.TID 0000.0001) //     11 ..--..-.........--..............-----.............---------....................-----........--
(PID.TID 0000.0001) //     10 ........--........................................---------...................------..........
(PID.TID 0000.0001) //      9 .......--.......................................-----............................--...........
(PID.TID 0000.0001) //      8 ...............................................----...........................................
(PID.TID 0000.0001) //      7 .........--...--.............................----...................---.......................
(PID.TID 0000.0001) //      6 .----------------.............................................---.-..-.....................---
(PID.TID 0000.0001) //      5 --..------..................................................-------....................-----..
(PID.TID 0000.0001) //      4 ..............................................................................................
(PID.TID 0000.0001) //      3 ..............................................................................................
(PID.TID 0000.0001) //      2 ..............................................................................................
(PID.TID 0000.0001) //      1 ..............................................................................................
(PID.TID 0000.0001) //      0 ..............................................................................................
(PID.TID 0000.0001) //     -1 ..............................................................................................
(PID.TID 0000.0001) // =======================================================
(PID.TID 0000.0001) // END OF FIELD                                          =
(PID.TID 0000.0001) // =======================================================
(PID.TID 0000.0001) 
(PID.TID 0000.0001)  PACKAGES_BOOT: opening data.pkg
(PID.TID 0000.0001)  OPEN_COPY_DATA_FILE: opening file data.pkg
(PID.TID 0000.0001) // =======================================================
(PID.TID 0000.0001) // Parameter file "data.pkg"
(PID.TID 0000.0001) // =======================================================
(PID.TID 0000.0001) ># Packages
(PID.TID 0000.0001) > &PACKAGES
(PID.TID 0000.0001) > &
(PID.TID 0000.0001) 
(PID.TID 0000.0001)  PACKAGES_BOOT: finished reading data.pkg
(PID.TID 0000.0001) 
(PID.TID 0000.0001) // ===================================
(PID.TID 0000.0001) // GAD parameters :
(PID.TID 0000.0001) // ===================================
(PID.TID 0000.0001) tempAdvScheme =   /* Temp. advection scheme selector */
(PID.TID 0000.0001)                       2
(PID.TID 0000.0001)     ;
(PID.TID 0000.0001) tempMultiDimAdvec =   /* use Muti-Dim Advec method for Temp */
(PID.TID 0000.0001)                   F
(PID.TID 0000.0001)     ;
(PID.TID 0000.0001) tempAdamsBashforth =   /* use Adams-Bashforth time-stepping for Temp */
(PID.TID 0000.0001)                   T
(PID.TID 0000.0001)     ;
(PID.TID 0000.0001) saltAdvScheme =   /* Salt. advection scheme selector */
(PID.TID 0000.0001)                       2
(PID.TID 0000.0001)     ;
(PID.TID 0000.0001) saltMultiDimAdvec =   /* use Muti-Dim Advec method for Salt */
(PID.TID 0000.0001)                   F
(PID.TID 0000.0001)     ;
(PID.TID 0000.0001) saltAdamsBashforth =   /* use Adams-Bashforth time-stepping for Salt */
(PID.TID 0000.0001)                   T
(PID.TID 0000.0001)     ;
(PID.TID 0000.0001) // ===================================
(PID.TID 0000.0001) %MON fCori_max                    =   1.4226580169407E-04
(PID.TID 0000.0001) %MON fCori_min                    =  -1.4226580169407E-04
(PID.TID 0000.0001) %MON fCori_mean                   =   7.5291817533716E-23
(PID.TID 0000.0001) %MON fCori_sd                     =   9.6335367303778E-05
(PID.TID 0000.0001) %MON fCoriG_max                   =   1.4112379284621E-04
(PID.TID 0000.0001) %MON fCoriG_min                   =  -1.4323448157692E-04
(PID.TID 0000.0001) %MON fCoriG_mean                  =  -3.6726790147928E-06
(PID.TID 0000.0001) %MON fCoriG_sd                    =   9.7510077443652E-05
(PID.TID 0000.0001) %MON fCoriCos_max                 =   1.4535550371427E-04
(PID.TID 0000.0001) %MON fCoriCos_min                 =   3.0239529651320E-05
(PID.TID 0000.0001) %MON fCoriCos_mean                =   1.0260497651149E-04
(PID.TID 0000.0001) %MON fCoriCos_sd                  =   3.6683828681187E-05
(PID.TID 0000.0001) // CG2D normalisation factor =          0.6002578945994698667540502E-08
(PID.TID 0000.0001) 
(PID.TID 0000.0001) CONFIG_CHECK: OK
(PID.TID 0000.0001) // =======================================================
(PID.TID 0000.0001) // Model configuration
(PID.TID 0000.0001) // =======================================================
(PID.TID 0000.0001) //
(PID.TID 0000.0001) // "Physical" paramters ( PARM01 in namelist )
(PID.TID 0000.0001) //
(PID.TID 0000.0001) buoyancyRelation = OCEANICP
(PID.TID 0000.0001) tRef =   /* Reference temperature profile ( oC or oK ) */
(PID.TID 0000.0001)    15 @  2.000000000000000E+01              /* K =  1: 15 */
(PID.TID 0000.0001)     ;
(PID.TID 0000.0001) sRef =   /* Reference salinity profile ( ppt ) */
(PID.TID 0000.0001)    15 @  3.500000000000000E+01              /* K =  1: 15 */
(PID.TID 0000.0001)     ;
(PID.TID 0000.0001) viscAh =   /* Lateral eddy viscosity ( m^2/s ) */
(PID.TID 0000.0001)                 3.000000000000000E+05
(PID.TID 0000.0001)     ;
(PID.TID 0000.0001) viscAh =   /* Lateral biharmonic viscosity ( m^4/s ) */
(PID.TID 0000.0001)                 0.000000000000000E+00
(PID.TID 0000.0001)     ;
(PID.TID 0000.0001) no_slip_sides =  /* Viscous BCs: No-slip sides */
(PID.TID 0000.0001)                   T
(PID.TID 0000.0001)     ;
(PID.TID 0000.0001) viscAr =   /* Vertical eddy viscosity ( units of r^2/s ) */
(PID.TID 0000.0001)                 1.721611620915750E+05
(PID.TID 0000.0001)     ;
(PID.TID 0000.0001) diffKhT =   /* Laplacian diffusion of heat laterally ( m^2/s ) */
(PID.TID 0000.0001)                 1.000000000000000E+03
(PID.TID 0000.0001)     ;
(PID.TID 0000.0001) diffK4T =   /* Bihaarmonic diffusion of heat laterally ( m^4/s ) */
(PID.TID 0000.0001)                 0.000000000000000E+00
(PID.TID 0000.0001)     ;
(PID.TID 0000.0001) diffKrT =   /* Laplacian diffusion of heat vertically ( m^2/s ) */
(PID.TID 0000.0001)                 5.154525811125000E+03
(PID.TID 0000.0001)     ;
(PID.TID 0000.0001) diffKhS =   /* Laplacian diffusion of salt laterally ( m^2/s ) */
(PID.TID 0000.0001)                 1.000000000000000E+03
(PID.TID 0000.0001)     ;
(PID.TID 0000.0001) diffK4S =   /* Bihaarmonic diffusion of salt laterally ( m^4/s ) */
(PID.TID 0000.0001)                 0.000000000000000E+00
(PID.TID 0000.0001)     ;
(PID.TID 0000.0001) diffKrS =   /* Laplacian diffusion of salt vertically ( m^2/s ) */
(PID.TID 0000.0001)                 5.154525811125000E+03
(PID.TID 0000.0001)     ;
(PID.TID 0000.0001)  Equation of State : eosType = JMD95P
(PID.TID 0000.0001) tAlpha =   /* Linear EOS thermal expansion coefficient ( 1/degree ) */
(PID.TID 0000.0001)                 1.234567000000000E+05
(PID.TID 0000.0001)     ;
(PID.TID 0000.0001) sBeta =   /* Linear EOS haline contraction coefficient ( 1/ppt ) */
(PID.TID 0000.0001)                 1.234567000000000E+05
(PID.TID 0000.0001)     ;
(PID.TID 0000.0001) rhonil =   /* Reference density ( kg/m^3 ) */
(PID.TID 0000.0001)                 1.035000000000000E+03
(PID.TID 0000.0001)     ;
(PID.TID 0000.0001) rhoConst =   /* Reference density ( kg/m^3 ) */
(PID.TID 0000.0001)                 1.035000000000000E+03
(PID.TID 0000.0001)     ;
(PID.TID 0000.0001) rhoConstFresh =   /* Reference density ( kg/m^3 ) */
(PID.TID 0000.0001)                 9.998000000000000E+02
(PID.TID 0000.0001)     ;
(PID.TID 0000.0001) gravity =   /* Gravitational acceleration ( m/s^2 ) */
(PID.TID 0000.0001)                 9.810000000000000E+00
(PID.TID 0000.0001)     ;
(PID.TID 0000.0001) gBaro =   /* Barotropic gravity ( m/s^2 ) */
(PID.TID 0000.0001)                 9.810000000000000E+00
(PID.TID 0000.0001)     ;
(PID.TID 0000.0001) rotationPeriod =   /* Rotation Period ( s ) */
(PID.TID 0000.0001)                 8.640000000000000E+04
(PID.TID 0000.0001)     ;
(PID.TID 0000.0001) omega =   /* Angular velocity ( rad/s ) */
(PID.TID 0000.0001)                 7.272205216643040E-05
(PID.TID 0000.0001)     ;
(PID.TID 0000.0001) f0 =   /* Reference coriolis parameter ( 1/s ) */
(PID.TID 0000.0001)                 1.000000000000000E-04
(PID.TID 0000.0001)     ;
(PID.TID 0000.0001) beta =   /* Beta ( 1/(m.s) ) */
(PID.TID 0000.0001)                 9.999999999999999E-12
(PID.TID 0000.0001)     ;
(PID.TID 0000.0001) freeSurfFac =   /* Implicit free surface factor */
(PID.TID 0000.0001)                 1.000000000000000E+00
(PID.TID 0000.0001)     ;
(PID.TID 0000.0001) implicitFreeSurface =   /* Implicit free surface on/off flag */
(PID.TID 0000.0001)                   T
(PID.TID 0000.0001)     ;
(PID.TID 0000.0001) rigidLid =   /* Rigid lid on/off flag */
(PID.TID 0000.0001)                   F
(PID.TID 0000.0001)     ;
(PID.TID 0000.0001) implicSurfPress =   /* Surface Pressure implicit factor (0-1)*/
(PID.TID 0000.0001)                 1.000000000000000E+00
(PID.TID 0000.0001)     ;
(PID.TID 0000.0001) implicDiv2Dflow =   /* Barot. Flow Div. implicit factor (0-1)*/
(PID.TID 0000.0001)                 1.000000000000000E+00
(PID.TID 0000.0001)     ;
(PID.TID 0000.0001) exactConserv =   /* Exact Volume Conservation on/off flag*/
(PID.TID 0000.0001)                   T
(PID.TID 0000.0001)     ;
(PID.TID 0000.0001) uniformLin_PhiSurf =   /* use uniform Bo_surf on/off flag*/
(PID.TID 0000.0001)                   T
(PID.TID 0000.0001)     ;
(PID.TID 0000.0001) nonlinFreeSurf =   /* Non-linear Free Surf. options (-1,0,1,2,3)*/
(PID.TID 0000.0001)                       4
(PID.TID 0000.0001)     ;
(PID.TID 0000.0001)      -1,0= Off ; 1,2,3= On, 2=+rescale gU,gV, 3=+update cg2d solv.
(PID.TID 0000.0001) hFacInf =   /* lower threshold for hFac (nonlinFreeSurf only)*/
(PID.TID 0000.0001)                 2.000000000000000E-01
(PID.TID 0000.0001)     ;
(PID.TID 0000.0001) hFacSup =   /* upper threshold for hFac (nonlinFreeSurf only)*/
(PID.TID 0000.0001)                 2.000000000000000E+00
(PID.TID 0000.0001)     ;
(PID.TID 0000.0001) select_rStar =   /* r* Coordinate options (not yet implemented)*/
(PID.TID 0000.0001)                       0
(PID.TID 0000.0001)     ;
(PID.TID 0000.0001) useRealFreshWaterFlux =   /* Real Fresh Water Flux on/off flag*/
(PID.TID 0000.0001)                   F
(PID.TID 0000.0001)     ;
(PID.TID 0000.0001) convertFW2Salt = /* convert F.W. Flux to Salt Flux (-1=use local S)(ppt)*/
(PID.TID 0000.0001)                 3.500000000000000E+01
(PID.TID 0000.0001)     ;
(PID.TID 0000.0001) multiDimAdvection =   /* enable/disable Multi-Dim Advection */
(PID.TID 0000.0001)                   T
(PID.TID 0000.0001)     ;
(PID.TID 0000.0001) staggerTimeStep =   /* Stagger time stepping on/off flag */
(PID.TID 0000.0001)                   F
(PID.TID 0000.0001)     ;
(PID.TID 0000.0001) momStepping =  /* Momentum equation on/off flag */
(PID.TID 0000.0001)                   T
(PID.TID 0000.0001)     ;
(PID.TID 0000.0001) momAdvection =  /* Momentum advection on/off flag */
(PID.TID 0000.0001)                   T
(PID.TID 0000.0001)     ;
(PID.TID 0000.0001) momViscosity =  /* Momentum viscosity on/off flag */
(PID.TID 0000.0001)                   T
(PID.TID 0000.0001)     ;
(PID.TID 0000.0001) useCoriolis =  /* Coriolis on/off flag */
(PID.TID 0000.0001)                   T
(PID.TID 0000.0001)     ;
(PID.TID 0000.0001) momForcing =  /* Momentum forcing on/off flag */
(PID.TID 0000.0001)                   T
(PID.TID 0000.0001)     ;
(PID.TID 0000.0001) momPressureForcing =  /* Momentum pressure term on/off flag */
(PID.TID 0000.0001)                   T
(PID.TID 0000.0001)     ;
(PID.TID 0000.0001) tempStepping =  /* Temperature equation on/off flag */
(PID.TID 0000.0001)                   T
(PID.TID 0000.0001)     ;
(PID.TID 0000.0001) tempAdvection=  /* Temperature advection on/off flag */
(PID.TID 0000.0001)                   T
(PID.TID 0000.0001)     ;
(PID.TID 0000.0001) tempForcing  =  /* Temperature forcing on/off flag */
(PID.TID 0000.0001)                   T
(PID.TID 0000.0001)     ;
(PID.TID 0000.0001) saltStepping =  /* Salinity equation on/off flag */
(PID.TID 0000.0001)                   T
(PID.TID 0000.0001)     ;
(PID.TID 0000.0001) saltAdvection=  /* Salinity advection on/off flag */
(PID.TID 0000.0001)                   T
(PID.TID 0000.0001)     ;
(PID.TID 0000.0001) saltForcing  =  /* Salinity forcing on/off flag */
(PID.TID 0000.0001)                   T
(PID.TID 0000.0001)     ;
(PID.TID 0000.0001) nonHydrostatic =  /* Non-Hydrostatic on/off flag */
(PID.TID 0000.0001)                   F
(PID.TID 0000.0001)     ;
(PID.TID 0000.0001) useCDscheme =  /* CD scheme on/off flag */
(PID.TID 0000.0001)                   F
(PID.TID 0000.0001)     ;
(PID.TID 0000.0001) useJamartWetPoints= /* Coriolis WetPoints method flag */
(PID.TID 0000.0001)                   F
(PID.TID 0000.0001)     ;
(PID.TID 0000.0001) //
(PID.TID 0000.0001) // Elliptic solver(s) paramters ( PARM02 in namelist )
(PID.TID 0000.0001) //
(PID.TID 0000.0001) cg2dMaxIters =   /* Upper limit on 2d con. grad iterations  */
(PID.TID 0000.0001)                     200
(PID.TID 0000.0001)     ;
(PID.TID 0000.0001) cg2dChkResFreq =   /* 2d con. grad convergence test frequency */
(PID.TID 0000.0001)                       1
(PID.TID 0000.0001)     ;
(PID.TID 0000.0001) cg2dTargetResidual =   /* 2d con. grad target residual  */
(PID.TID 0000.0001)                 1.000000000000000E-09
(PID.TID 0000.0001)     ;
(PID.TID 0000.0001) //
(PID.TID 0000.0001) // Time stepping paramters ( PARM03 in namelist )
(PID.TID 0000.0001) //
(PID.TID 0000.0001) nIter0 =   /* Base timestep number  */
(PID.TID 0000.0001)                       0
(PID.TID 0000.0001)     ;
(PID.TID 0000.0001) nTimeSteps =   /* Number of timesteps */
(PID.TID 0000.0001)                      20
(PID.TID 0000.0001)     ;
(PID.TID 0000.0001) deltatTmom =   /* Momentum equation timestep ( s ) */
(PID.TID 0000.0001)                 1.200000000000000E+03
(PID.TID 0000.0001)     ;
(PID.TID 0000.0001) deltaTfreesurf =   /* FreeSurface equation timestep ( s ) */
(PID.TID 0000.0001)                 1.728000000000000E+05
(PID.TID 0000.0001)     ;
(PID.TID 0000.0001) deltatTtracer =   /* Tracer equation timestep ( s ) */
(PID.TID 0000.0001)                 1.728000000000000E+05
(PID.TID 0000.0001)     ;
(PID.TID 0000.0001) deltatTClock  =   /* Model clock timestep ( s ) */
(PID.TID 0000.0001)                 1.728000000000000E+05
(PID.TID 0000.0001)     ;
(PID.TID 0000.0001) cAdjFreq =   /* Convective adjustment interval ( s ) */
(PID.TID 0000.0001)                 0.000000000000000E+00
(PID.TID 0000.0001)     ;
(PID.TID 0000.0001) forcing_In_AB =   /* put T,S Forcing in Adams-Bash. stepping */
(PID.TID 0000.0001)                   T
(PID.TID 0000.0001)     ;
(PID.TID 0000.0001) abeps =   /* Adams-Bashforth stabilizing weight */
(PID.TID 0000.0001)                 1.000000000000000E-01
(PID.TID 0000.0001)     ;
(PID.TID 0000.0001) startTime =   /* Run start time ( s ). */
(PID.TID 0000.0001)                 0.000000000000000E+00
(PID.TID 0000.0001)     ;
(PID.TID 0000.0001) endTime =   /* Integration ending time ( s ). */
(PID.TID 0000.0001)                 3.456000000000000E+06
(PID.TID 0000.0001)     ;
(PID.TID 0000.0001) pChkPtFreq =   /* Permanent restart/checkpoint file interval ( s ). */
(PID.TID 0000.0001)                 3.110400000000000E+09
(PID.TID 0000.0001)     ;
(PID.TID 0000.0001) chkPtFreq =   /* Rolling restart/checkpoint file interval ( s ). */
(PID.TID 0000.0001)                 0.000000000000000E+00
(PID.TID 0000.0001)     ;
(PID.TID 0000.0001) dumpFreq =   /* Model state write out interval ( s ). */
(PID.TID 0000.0001)                 3.110400000000000E+09
(PID.TID 0000.0001)     ;
(PID.TID 0000.0001) externForcingPeriod =   /* forcing period (s) */
(PID.TID 0000.0001)                 2.592000000000000E+06
(PID.TID 0000.0001)     ;
(PID.TID 0000.0001) externForcingCycle =   /* period of the cyle (s). */
(PID.TID 0000.0001)                 3.110400000000000E+07
(PID.TID 0000.0001)     ;
(PID.TID 0000.0001) tauThetaClimRelax =   /* relaxation time scale (s) */
(PID.TID 0000.0001)                 5.184000000000000E+06
(PID.TID 0000.0001)     ;
(PID.TID 0000.0001) tauSaltClimRelax =   /* relaxation time scale (s) */
(PID.TID 0000.0001)                 0.000000000000000E+00
(PID.TID 0000.0001)     ;
(PID.TID 0000.0001) latBandClimRelax =   /* max. Lat. where relaxation */
(PID.TID 0000.0001)                 1.800000000000000E+02
(PID.TID 0000.0001)     ;
(PID.TID 0000.0001) //
(PID.TID 0000.0001) // Gridding paramters ( PARM04 in namelist )
(PID.TID 0000.0001) //
(PID.TID 0000.0001) usingCartesianGrid =   /* Cartesian coordinates flag ( True / False ) */
(PID.TID 0000.0001)                   F
(PID.TID 0000.0001)     ;
(PID.TID 0000.0001) usingSphericalPolarGrid =   /* Spherical coordinates flag ( True / False ) */
(PID.TID 0000.0001)                   T
(PID.TID 0000.0001)     ;
(PID.TID 0000.0001) groundAtK1 =   /* Lower Boundary (ground) at the surface(k=1) ( T / F ) */
(PID.TID 0000.0001)                   T
(PID.TID 0000.0001)     ;
(PID.TID 0000.0001) Ro_SeaLevel =   /* r(1) ( units of r ) */
(PID.TID 0000.0001)                 5.302312256608400E+07
(PID.TID 0000.0001)     ;
(PID.TID 0000.0001) rkFac =   /* minus Vertical index orientation  */
(PID.TID 0000.0001)                 1.000000000000000E+00
(PID.TID 0000.0001)     ;
(PID.TID 0000.0001) horiVertRatio =   /* Ratio on units : Horiz - Vertical */
(PID.TID 0000.0001)                 1.015335000000000E+04
(PID.TID 0000.0001)     ;
(PID.TID 0000.0001) drC =   /* C spacing ( units of r ) */
(PID.TID 0000.0001)                 3.551650360010500E+06,      /* K =  1 */
(PID.TID 0000.0001)                 6.836924580405500E+06,      /* K =  2 */
(PID.TID 0000.0001)                 6.306109225519501E+06,      /* K =  3 */
(PID.TID 0000.0001)                 5.779053338153000E+06,      /* K =  4 */
(PID.TID 0000.0001)                 5.255519350233500E+06,      /* K =  5 */
(PID.TID 0000.0001)                 4.735252734850001E+06,      /* K =  6 */
(PID.TID 0000.0001)                 4.217983340545500E+06,      /* K =  7 */
(PID.TID 0000.0001)                 3.703426779226000E+06,      /* K =  8 */
(PID.TID 0000.0001)                 3.191285859157500E+06,      /* K =  9 */
(PID.TID 0000.0001)                 2.681252055355000E+06,      /* K = 10 */
(PID.TID 0000.0001)                 2.173007010517000E+06,      /* K = 11 */
(PID.TID 0000.0001)                 1.666224060479000E+06,      /* K = 12 */
(PID.TID 0000.0001)                 1.211001777568000E+06,      /* K = 13 */
(PID.TID 0000.0001)                 8.573828878235000E+05,      /* K = 14 */
(PID.TID 0000.0001)                 6.050043594899999E+05       /* K = 15 */
(PID.TID 0000.0001)     ;
(PID.TID 0000.0001) drF =   /* W spacing ( units of r ) */
(PID.TID 0000.0001)                 7.103300720021000E+06,      /* K =  1 */
(PID.TID 0000.0001)                 6.570548440790000E+06,      /* K =  2 */
(PID.TID 0000.0001)                 6.041670010249000E+06,      /* K =  3 */
(PID.TID 0000.0001)                 5.516436666057000E+06,      /* K =  4 */
(PID.TID 0000.0001)                 4.994602034410000E+06,      /* K =  5 */
(PID.TID 0000.0001)                 4.475903435290000E+06,      /* K =  6 */
(PID.TID 0000.0001)                 3.960063245801000E+06,      /* K =  7 */
(PID.TID 0000.0001)                 3.446790312651000E+06,      /* K =  8 */
(PID.TID 0000.0001)                 2.935781405664000E+06,      /* K =  9 */
(PID.TID 0000.0001)                 2.426722705046000E+06,      /* K = 10 */
(PID.TID 0000.0001)                 1.919291315988000E+06,      /* K = 11 */
(PID.TID 0000.0001)                 1.413156804970000E+06,      /* K = 12 */
(PID.TID 0000.0001)                 1.008846750166000E+06,      /* K = 13 */
(PID.TID 0000.0001)                 7.059190254810000E+05,      /* K = 14 */
(PID.TID 0000.0001)                 5.040896934990000E+05       /* K = 15 */
(PID.TID 0000.0001)     ;
(PID.TID 0000.0001) delX =   /* U spacing ( m - cartesian, degrees - spherical ) */
(PID.TID 0000.0001)    90 @  4.000000000000000E+00              /* I =  1: 90 */
(PID.TID 0000.0001)     ;
(PID.TID 0000.0001) delY =   /* V spacing ( m - cartesian, degrees - spherical ) */
(PID.TID 0000.0001)    40 @  4.000000000000000E+00              /* J =  1: 40 */
(PID.TID 0000.0001)     ;
(PID.TID 0000.0001) phiMin =    /* South edge (ignored - cartesian, degrees - spherical ) */
(PID.TID 0000.0001)                -8.000000000000000E+01
(PID.TID 0000.0001)     ;
(PID.TID 0000.0001) thetaMin =    /* West edge ( ignored - cartesian, degrees - spherical ) */
(PID.TID 0000.0001)                 0.000000000000000E+00
(PID.TID 0000.0001)     ;
(PID.TID 0000.0001) rSphere =    /* Radius ( ignored - cartesian, m - spherical ) */
(PID.TID 0000.0001)                 6.370000000000000E+06
(PID.TID 0000.0001)     ;
(PID.TID 0000.0001) xcoord =   /* P-point X coord ( m - cartesian, degrees - spherical ) */
(PID.TID 0000.0001)                 2.000000000000000E+00,      /* I =  1 */
(PID.TID 0000.0001)                 6.000000000000000E+00,      /* I =  2 */
(PID.TID 0000.0001)                 1.000000000000000E+01,      /* I =  3 */
(PID.TID 0000.0001)                 1.400000000000000E+01,      /* I =  4 */
(PID.TID 0000.0001)                 1.800000000000000E+01,      /* I =  5 */
(PID.TID 0000.0001)                 2.200000000000000E+01,      /* I =  6 */
(PID.TID 0000.0001)                 2.600000000000000E+01,      /* I =  7 */
(PID.TID 0000.0001)                 3.000000000000000E+01,      /* I =  8 */
(PID.TID 0000.0001)                 3.400000000000000E+01,      /* I =  9 */
(PID.TID 0000.0001)                 3.800000000000000E+01,      /* I = 10 */
(PID.TID 0000.0001)                 4.200000000000000E+01,      /* I = 11 */
(PID.TID 0000.0001)                 4.600000000000000E+01,      /* I = 12 */
(PID.TID 0000.0001)                 5.000000000000000E+01,      /* I = 13 */
(PID.TID 0000.0001)                 5.400000000000000E+01,      /* I = 14 */
(PID.TID 0000.0001)                 5.800000000000000E+01,      /* I = 15 */
(PID.TID 0000.0001)                 6.200000000000000E+01,      /* I = 16 */
(PID.TID 0000.0001)                 6.600000000000000E+01,      /* I = 17 */
(PID.TID 0000.0001)                 7.000000000000000E+01,      /* I = 18 */
(PID.TID 0000.0001)                 7.400000000000000E+01,      /* I = 19 */
(PID.TID 0000.0001)                 7.800000000000000E+01,      /* I = 20 */
(PID.TID 0000.0001)                 8.200000000000000E+01,      /* I = 21 */
(PID.TID 0000.0001)                 8.600000000000000E+01,      /* I = 22 */
(PID.TID 0000.0001)                 9.000000000000000E+01,      /* I = 23 */
(PID.TID 0000.0001)                 9.400000000000000E+01,      /* I = 24 */
(PID.TID 0000.0001)                 9.800000000000000E+01,      /* I = 25 */
(PID.TID 0000.0001)                 1.020000000000000E+02,      /* I = 26 */
(PID.TID 0000.0001)                 1.060000000000000E+02,      /* I = 27 */
(PID.TID 0000.0001)                 1.100000000000000E+02,      /* I = 28 */
(PID.TID 0000.0001)                 1.140000000000000E+02,      /* I = 29 */
(PID.TID 0000.0001)                 1.180000000000000E+02,      /* I = 30 */
(PID.TID 0000.0001)                 1.220000000000000E+02,      /* I = 31 */
(PID.TID 0000.0001)                 1.260000000000000E+02,      /* I = 32 */
(PID.TID 0000.0001)                 1.300000000000000E+02,      /* I = 33 */
(PID.TID 0000.0001)                 1.340000000000000E+02,      /* I = 34 */
(PID.TID 0000.0001)                 1.380000000000000E+02,      /* I = 35 */
(PID.TID 0000.0001)                 1.420000000000000E+02,      /* I = 36 */
(PID.TID 0000.0001)                 1.460000000000000E+02,      /* I = 37 */
(PID.TID 0000.0001)                 1.500000000000000E+02,      /* I = 38 */
(PID.TID 0000.0001)                 1.540000000000000E+02,      /* I = 39 */
(PID.TID 0000.0001)                 1.580000000000000E+02,      /* I = 40 */
(PID.TID 0000.0001)                 1.620000000000000E+02,      /* I = 41 */
(PID.TID 0000.0001)                 1.660000000000000E+02,      /* I = 42 */
(PID.TID 0000.0001)                 1.700000000000000E+02,      /* I = 43 */
(PID.TID 0000.0001)                 1.740000000000000E+02,      /* I = 44 */
(PID.TID 0000.0001)                 1.780000000000000E+02,      /* I = 45 */
(PID.TID 0000.0001)                 1.820000000000000E+02,      /* I = 46 */
(PID.TID 0000.0001)                 1.860000000000000E+02,      /* I = 47 */
(PID.TID 0000.0001)                 1.900000000000000E+02,      /* I = 48 */
(PID.TID 0000.0001)                 1.940000000000000E+02,      /* I = 49 */
(PID.TID 0000.0001)                 1.980000000000000E+02,      /* I = 50 */
(PID.TID 0000.0001)                 2.020000000000000E+02,      /* I = 51 */
(PID.TID 0000.0001)                 2.060000000000000E+02,      /* I = 52 */
(PID.TID 0000.0001)                 2.100000000000000E+02,      /* I = 53 */
(PID.TID 0000.0001)                 2.140000000000000E+02,      /* I = 54 */
(PID.TID 0000.0001)                 2.180000000000000E+02,      /* I = 55 */
(PID.TID 0000.0001)                 2.220000000000000E+02,      /* I = 56 */
(PID.TID 0000.0001)                 2.260000000000000E+02,      /* I = 57 */
(PID.TID 0000.0001)                 2.300000000000000E+02,      /* I = 58 */
(PID.TID 0000.0001)                 2.340000000000000E+02,      /* I = 59 */
(PID.TID 0000.0001)                 2.380000000000000E+02,      /* I = 60 */
(PID.TID 0000.0001)                 2.420000000000000E+02,      /* I = 61 */
(PID.TID 0000.0001)                 2.460000000000000E+02,      /* I = 62 */
(PID.TID 0000.0001)                 2.500000000000000E+02,      /* I = 63 */
(PID.TID 0000.0001)                 2.540000000000000E+02,      /* I = 64 */
(PID.TID 0000.0001)                 2.580000000000000E+02,      /* I = 65 */
(PID.TID 0000.0001)                 2.620000000000000E+02,      /* I = 66 */
(PID.TID 0000.0001)                 2.660000000000000E+02,      /* I = 67 */
(PID.TID 0000.0001)                 2.700000000000000E+02,      /* I = 68 */
(PID.TID 0000.0001)                 2.740000000000000E+02,      /* I = 69 */
(PID.TID 0000.0001)                 2.780000000000000E+02,      /* I = 70 */
(PID.TID 0000.0001)                 2.820000000000000E+02,      /* I = 71 */
(PID.TID 0000.0001)                 2.860000000000000E+02,      /* I = 72 */
(PID.TID 0000.0001)                 2.900000000000000E+02,      /* I = 73 */
(PID.TID 0000.0001)                 2.940000000000000E+02,      /* I = 74 */
(PID.TID 0000.0001)                 2.980000000000000E+02,      /* I = 75 */
(PID.TID 0000.0001)                 3.020000000000000E+02,      /* I = 76 */
(PID.TID 0000.0001)                 3.060000000000000E+02,      /* I = 77 */
(PID.TID 0000.0001)                 3.100000000000000E+02,      /* I = 78 */
(PID.TID 0000.0001)                 3.140000000000000E+02,      /* I = 79 */
(PID.TID 0000.0001)                 3.180000000000000E+02,      /* I = 80 */
(PID.TID 0000.0001)                 3.220000000000000E+02,      /* I = 81 */
(PID.TID 0000.0001)                 3.260000000000000E+02,      /* I = 82 */
(PID.TID 0000.0001)                 3.300000000000000E+02,      /* I = 83 */
(PID.TID 0000.0001)                 3.340000000000000E+02,      /* I = 84 */
(PID.TID 0000.0001)                 3.380000000000000E+02,      /* I = 85 */
(PID.TID 0000.0001)                 3.420000000000000E+02,      /* I = 86 */
(PID.TID 0000.0001)                 3.460000000000000E+02,      /* I = 87 */
(PID.TID 0000.0001)                 3.500000000000000E+02,      /* I = 88 */
(PID.TID 0000.0001)                 3.540000000000000E+02,      /* I = 89 */
(PID.TID 0000.0001)                 3.580000000000000E+02       /* I = 90 */
(PID.TID 0000.0001)     ;
(PID.TID 0000.0001) ycoord =   /* P-point Y coord ( m - cartesian, degrees - spherical ) */
(PID.TID 0000.0001)                -7.800000000000000E+01,      /* J =  1 */
(PID.TID 0000.0001)                -7.400000000000000E+01,      /* J =  2 */
(PID.TID 0000.0001)                -7.000000000000000E+01,      /* J =  3 */
(PID.TID 0000.0001)                -6.600000000000000E+01,      /* J =  4 */
(PID.TID 0000.0001)                -6.200000000000000E+01,      /* J =  5 */
(PID.TID 0000.0001)                -5.800000000000000E+01,      /* J =  6 */
(PID.TID 0000.0001)                -5.400000000000000E+01,      /* J =  7 */
(PID.TID 0000.0001)                -5.000000000000000E+01,      /* J =  8 */
(PID.TID 0000.0001)                -4.600000000000000E+01,      /* J =  9 */
(PID.TID 0000.0001)                -4.200000000000000E+01,      /* J = 10 */
(PID.TID 0000.0001)                -3.800000000000000E+01,      /* J = 11 */
(PID.TID 0000.0001)                -3.400000000000000E+01,      /* J = 12 */
(PID.TID 0000.0001)                -3.000000000000000E+01,      /* J = 13 */
(PID.TID 0000.0001)                -2.600000000000000E+01,      /* J = 14 */
(PID.TID 0000.0001)                -2.200000000000000E+01,      /* J = 15 */
(PID.TID 0000.0001)                -1.800000000000000E+01,      /* J = 16 */
(PID.TID 0000.0001)                -1.400000000000000E+01,      /* J = 17 */
(PID.TID 0000.0001)                -1.000000000000000E+01,      /* J = 18 */
(PID.TID 0000.0001)                -6.000000000000000E+00,      /* J = 19 */
(PID.TID 0000.0001)                -2.000000000000000E+00,      /* J = 20 */
(PID.TID 0000.0001)                 2.000000000000000E+00,      /* J = 21 */
(PID.TID 0000.0001)                 6.000000000000000E+00,      /* J = 22 */
(PID.TID 0000.0001)                 1.000000000000000E+01,      /* J = 23 */
(PID.TID 0000.0001)                 1.400000000000000E+01,      /* J = 24 */
(PID.TID 0000.0001)                 1.800000000000000E+01,      /* J = 25 */
(PID.TID 0000.0001)                 2.200000000000000E+01,      /* J = 26 */
(PID.TID 0000.0001)                 2.600000000000000E+01,      /* J = 27 */
(PID.TID 0000.0001)                 3.000000000000000E+01,      /* J = 28 */
(PID.TID 0000.0001)                 3.400000000000000E+01,      /* J = 29 */
(PID.TID 0000.0001)                 3.800000000000000E+01,      /* J = 30 */
(PID.TID 0000.0001)                 4.200000000000000E+01,      /* J = 31 */
(PID.TID 0000.0001)                 4.600000000000000E+01,      /* J = 32 */
(PID.TID 0000.0001)                 5.000000000000000E+01,      /* J = 33 */
(PID.TID 0000.0001)                 5.400000000000000E+01,      /* J = 34 */
(PID.TID 0000.0001)                 5.800000000000000E+01,      /* J = 35 */
(PID.TID 0000.0001)                 6.200000000000000E+01,      /* J = 36 */
(PID.TID 0000.0001)                 6.600000000000000E+01,      /* J = 37 */
(PID.TID 0000.0001)                 7.000000000000000E+01,      /* J = 38 */
(PID.TID 0000.0001)                 7.400000000000000E+01,      /* J = 39 */
(PID.TID 0000.0001)                 7.800000000000000E+01       /* J = 40 */
(PID.TID 0000.0001)     ;
(PID.TID 0000.0001) rcoord =   /* P-point R coordinate (  units of r ) */
(PID.TID 0000.0001)                 4.947147220607350E+07,      /* K =  1 */
(PID.TID 0000.0001)                 4.263454762566800E+07,      /* K =  2 */
(PID.TID 0000.0001)                 3.632843840014850E+07,      /* K =  3 */
(PID.TID 0000.0001)                 3.054938506199550E+07,      /* K =  4 */
(PID.TID 0000.0001)                 2.529386571176200E+07,      /* K =  5 */
(PID.TID 0000.0001)                 2.055861297691200E+07,      /* K =  6 */
(PID.TID 0000.0001)                 1.634062963636650E+07,      /* K =  7 */
(PID.TID 0000.0001)                 1.263720285714050E+07,      /* K =  8 */
(PID.TID 0000.0001)                 9.445916997983005E+06,      /* K =  9 */
(PID.TID 0000.0001)                 6.764664942628005E+06,      /* K = 10 */
(PID.TID 0000.0001)                 4.591657932111004E+06,      /* K = 11 */
(PID.TID 0000.0001)                 2.925433871632004E+06,      /* K = 12 */
(PID.TID 0000.0001)                 1.714432094064004E+06,      /* K = 13 */
(PID.TID 0000.0001)                 8.570492062405043E+05,      /* K = 14 */
(PID.TID 0000.0001)                 2.520448467505043E+05       /* K = 15 */
(PID.TID 0000.0001)     ;
(PID.TID 0000.0001) rF =   /* W-Interf. R coordinate (  units of r ) */
(PID.TID 0000.0001)                 5.302312256608400E+07,      /* K =  1 */
(PID.TID 0000.0001)                 4.591982184606300E+07,      /* K =  2 */
(PID.TID 0000.0001)                 3.934927340527300E+07,      /* K =  3 */
(PID.TID 0000.0001)                 3.330760339502400E+07,      /* K =  4 */
(PID.TID 0000.0001)                 2.779116672896700E+07,      /* K =  5 */
(PID.TID 0000.0001)                 2.279656469455700E+07,      /* K =  6 */
(PID.TID 0000.0001)                 1.832066125926699E+07,      /* K =  7 */
(PID.TID 0000.0001)                 1.436059801346599E+07,      /* K =  8 */
(PID.TID 0000.0001)                 1.091380770081500E+07,      /* K =  9 */
(PID.TID 0000.0001)                 7.978026295150995E+06,      /* K = 10 */
(PID.TID 0000.0001)                 5.551303590104995E+06,      /* K = 11 */
(PID.TID 0000.0001)                 3.632012274116995E+06,      /* K = 12 */
(PID.TID 0000.0001)                 2.218855469146995E+06,      /* K = 13 */
(PID.TID 0000.0001)                 1.210008718980995E+06,      /* K = 14 */
(PID.TID 0000.0001)                 5.040896934999955E+05,      /* K = 15 */
(PID.TID 0000.0001)                 9.955256246030331E-07       /* K = 16 */
(PID.TID 0000.0001)     ;
(PID.TID 0000.0001) dxF =  /* dxF(:,1,:,1) ( m - cartesian, degrees - spherical ) */
(PID.TID 0000.0001)    90 @  9.246038586187513E+04              /* I =  1: 90 */
(PID.TID 0000.0001)     ;
(PID.TID 0000.0001) dxF =  /* dxF(1,:,1,:) ( m - cartesian, degrees - spherical ) */
(PID.TID 0000.0001)                 9.246038586187513E+04,      /* J =  1 */
(PID.TID 0000.0001)                 1.225786591246834E+05,      /* J =  2 */
(PID.TID 0000.0001)                 1.520997414818001E+05,      /* J =  3 */
(PID.TID 0000.0001)                 1.808798091874300E+05,      /* J =  4 */
(PID.TID 0000.0001)                 2.087786486446736E+05,      /* J =  5 */
(PID.TID 0000.0001)                 2.356603395120766E+05,      /* J =  6 */
(PID.TID 0000.0001)                 2.613939168938713E+05,      /* J =  7 */
(PID.TID 0000.0001)                 2.858540093877838E+05,      /* J =  8 */
(PID.TID 0000.0001)                 3.089214498819035E+05,      /* J =  9 */
(PID.TID 0000.0001)                 3.304838561248741E+05,      /* J = 10 */
(PID.TID 0000.0001)                 3.504361782409254E+05,      /* J = 11 */
(PID.TID 0000.0001)                 3.686812105223083E+05,      /* J = 12 */
(PID.TID 0000.0001)                 3.851300650057322E+05,      /* J = 13 */
(PID.TID 0000.0001)                 3.997026045255871E+05,      /* J = 14 */
(PID.TID 0000.0001)                 4.123278331341585E+05,      /* J = 15 */
(PID.TID 0000.0001)                 4.229442419867491E+05,      /* J = 16 */
(PID.TID 0000.0001)                 4.315001090065869E+05,      /* J = 17 */
(PID.TID 0000.0001)                 4.379537508695839E+05,      /* J = 18 */
(PID.TID 0000.0001)                 4.422737260813013E+05,      /* J = 19 */
(PID.TID 0000.0001)     2 @  4.444389881567501E+05,             /* J = 20: 21 */
(PID.TID 0000.0001)                 4.422737260813013E+05,      /* J = 22 */
(PID.TID 0000.0001)                 4.379537508695839E+05,      /* J = 23 */
(PID.TID 0000.0001)                 4.315001090065869E+05,      /* J = 24 */
(PID.TID 0000.0001)                 4.229442419867491E+05,      /* J = 25 */
(PID.TID 0000.0001)                 4.123278331341585E+05,      /* J = 26 */
(PID.TID 0000.0001)                 3.997026045255871E+05,      /* J = 27 */
(PID.TID 0000.0001)                 3.851300650057322E+05,      /* J = 28 */
(PID.TID 0000.0001)                 3.686812105223083E+05,      /* J = 29 */
(PID.TID 0000.0001)                 3.504361782409254E+05,      /* J = 30 */
(PID.TID 0000.0001)                 3.304838561248741E+05,      /* J = 31 */
(PID.TID 0000.0001)                 3.089214498819035E+05,      /* J = 32 */
(PID.TID 0000.0001)                 2.858540093877838E+05,      /* J = 33 */
(PID.TID 0000.0001)                 2.613939168938713E+05,      /* J = 34 */
(PID.TID 0000.0001)                 2.356603395120766E+05,      /* J = 35 */
(PID.TID 0000.0001)                 2.087786486446736E+05,      /* J = 36 */
(PID.TID 0000.0001)                 1.808798091874300E+05,      /* J = 37 */
(PID.TID 0000.0001)                 1.520997414818001E+05,      /* J = 38 */
(PID.TID 0000.0001)                 1.225786591246834E+05,      /* J = 39 */
(PID.TID 0000.0001)                 9.246038586187513E+04       /* J = 40 */
(PID.TID 0000.0001)     ;
(PID.TID 0000.0001) dyF =  /* dyF(:,1,:,1) ( m - cartesian, degrees - spherical ) */
(PID.TID 0000.0001)    90 @  4.447098934081552E+05              /* I =  1: 90 */
(PID.TID 0000.0001)     ;
(PID.TID 0000.0001) dyF =  /* dyF(1,:,1,:) ( m - cartesian, degrees - spherical ) */
(PID.TID 0000.0001)    40 @  4.447098934081552E+05              /* J =  1: 40 */
(PID.TID 0000.0001)     ;
(PID.TID 0000.0001) dxG =  /* dxG(:,1,:,1) ( m - cartesian, degrees - spherical ) */
(PID.TID 0000.0001)    90 @  7.722306258078101E+04              /* I =  1: 90 */
(PID.TID 0000.0001)     ;
(PID.TID 0000.0001) dxG =  /* dxG(1,:,1,:) ( m - cartesian, degrees - spherical ) */
(PID.TID 0000.0001)                 7.722306258078101E+04,      /* J =  1 */
(PID.TID 0000.0001)                 1.075850604052271E+05,      /* J =  2 */
(PID.TID 0000.0001)                 1.374229146297914E+05,      /* J =  3 */
(PID.TID 0000.0001)                 1.665912582279823E+05,      /* J =  4 */
(PID.TID 0000.0001)                 1.949479859617814E+05,      /* J =  5 */
(PID.TID 0000.0001)                 2.223549467040776E+05,      /* J =  6 */
(PID.TID 0000.0001)                 2.486786164970726E+05,      /* J =  7 */
(PID.TID 0000.0001)                 2.737907490675810E+05,      /* J =  8 */
(PID.TID 0000.0001)                 2.975690006299820E+05,      /* J =  9 */
(PID.TID 0000.0001)                 3.198975259328452E+05,      /* J = 10 */
(PID.TID 0000.0001)                 3.406675426453503E+05,      /* J = 11 */
(PID.TID 0000.0001)                 3.597778613338689E+05,      /* J = 12 */
(PID.TID 0000.0001)                 3.771353784467131E+05,      /* J = 13 */
(PID.TID 0000.0001)                 3.926555299052806E+05,      /* J = 14 */
(PID.TID 0000.0001)                 4.062627030917454E+05,      /* J = 15 */
(PID.TID 0000.0001)                 4.178906052261313E+05,      /* J = 16 */
(PID.TID 0000.0001)                 4.274825863380723E+05,      /* J = 17 */
(PID.TID 0000.0001)                 4.349919152597734E+05,      /* J = 18 */
(PID.TID 0000.0001)                 4.403820072955634E+05,      /* J = 19 */
(PID.TID 0000.0001)                 4.436266024588540E+05,      /* J = 20 */
(PID.TID 0000.0001)                 4.447098934081552E+05,      /* J = 21 */
(PID.TID 0000.0001)                 4.436266024588540E+05,      /* J = 22 */
(PID.TID 0000.0001)                 4.403820072955634E+05,      /* J = 23 */
(PID.TID 0000.0001)                 4.349919152597734E+05,      /* J = 24 */
(PID.TID 0000.0001)                 4.274825863380723E+05,      /* J = 25 */
(PID.TID 0000.0001)                 4.178906052261313E+05,      /* J = 26 */
(PID.TID 0000.0001)                 4.062627030917454E+05,      /* J = 27 */
(PID.TID 0000.0001)                 3.926555299052806E+05,      /* J = 28 */
(PID.TID 0000.0001)                 3.771353784467131E+05,      /* J = 29 */
(PID.TID 0000.0001)                 3.597778613338689E+05,      /* J = 30 */
(PID.TID 0000.0001)                 3.406675426453503E+05,      /* J = 31 */
(PID.TID 0000.0001)                 3.198975259328452E+05,      /* J = 32 */
(PID.TID 0000.0001)                 2.975690006299820E+05,      /* J = 33 */
(PID.TID 0000.0001)                 2.737907490675810E+05,      /* J = 34 */
(PID.TID 0000.0001)                 2.486786164970726E+05,      /* J = 35 */
(PID.TID 0000.0001)                 2.223549467040776E+05,      /* J = 36 */
(PID.TID 0000.0001)                 1.949479859617814E+05,      /* J = 37 */
(PID.TID 0000.0001)                 1.665912582279823E+05,      /* J = 38 */
(PID.TID 0000.0001)                 1.374229146297914E+05,      /* J = 39 */
(PID.TID 0000.0001)                 1.075850604052271E+05       /* J = 40 */
(PID.TID 0000.0001)     ;
(PID.TID 0000.0001) dyG =  /* dyG(:,1,:,1) ( m - cartesian, degrees - spherical ) */
(PID.TID 0000.0001)    90 @  4.447098934081552E+05              /* I =  1: 90 */
(PID.TID 0000.0001)     ;
(PID.TID 0000.0001) dyG =  /* dyG(1,:,1,:) ( m - cartesian, degrees - spherical ) */
(PID.TID 0000.0001)    40 @  4.447098934081552E+05              /* J =  1: 40 */
(PID.TID 0000.0001)     ;
(PID.TID 0000.0001) dxC =  /* dxC(:,1,:,1) ( m - cartesian, degrees - spherical ) */
(PID.TID 0000.0001)    90 @  9.246038586187513E+04              /* I =  1: 90 */
(PID.TID 0000.0001)     ;
(PID.TID 0000.0001) dxC =  /* dxC(1,:,1,:) ( m - cartesian, degrees - spherical ) */
(PID.TID 0000.0001)                 9.246038586187513E+04,      /* J =  1 */
(PID.TID 0000.0001)                 1.225786591246834E+05,      /* J =  2 */
(PID.TID 0000.0001)                 1.520997414818001E+05,      /* J =  3 */
(PID.TID 0000.0001)                 1.808798091874300E+05,      /* J =  4 */
(PID.TID 0000.0001)                 2.087786486446736E+05,      /* J =  5 */
(PID.TID 0000.0001)                 2.356603395120766E+05,      /* J =  6 */
(PID.TID 0000.0001)                 2.613939168938713E+05,      /* J =  7 */
(PID.TID 0000.0001)                 2.858540093877838E+05,      /* J =  8 */
(PID.TID 0000.0001)                 3.089214498819035E+05,      /* J =  9 */
(PID.TID 0000.0001)                 3.304838561248741E+05,      /* J = 10 */
(PID.TID 0000.0001)                 3.504361782409254E+05,      /* J = 11 */
(PID.TID 0000.0001)                 3.686812105223083E+05,      /* J = 12 */
(PID.TID 0000.0001)                 3.851300650057322E+05,      /* J = 13 */
(PID.TID 0000.0001)                 3.997026045255871E+05,      /* J = 14 */
(PID.TID 0000.0001)                 4.123278331341585E+05,      /* J = 15 */
(PID.TID 0000.0001)                 4.229442419867491E+05,      /* J = 16 */
(PID.TID 0000.0001)                 4.315001090065869E+05,      /* J = 17 */
(PID.TID 0000.0001)                 4.379537508695839E+05,      /* J = 18 */
(PID.TID 0000.0001)                 4.422737260813013E+05,      /* J = 19 */
(PID.TID 0000.0001)     2 @  4.444389881567501E+05,             /* J = 20: 21 */
(PID.TID 0000.0001)                 4.422737260813013E+05,      /* J = 22 */
(PID.TID 0000.0001)                 4.379537508695839E+05,      /* J = 23 */
(PID.TID 0000.0001)                 4.315001090065869E+05,      /* J = 24 */
(PID.TID 0000.0001)                 4.229442419867491E+05,      /* J = 25 */
(PID.TID 0000.0001)                 4.123278331341585E+05,      /* J = 26 */
(PID.TID 0000.0001)                 3.997026045255871E+05,      /* J = 27 */
(PID.TID 0000.0001)                 3.851300650057322E+05,      /* J = 28 */
(PID.TID 0000.0001)                 3.686812105223083E+05,      /* J = 29 */
(PID.TID 0000.0001)                 3.504361782409254E+05,      /* J = 30 */
(PID.TID 0000.0001)                 3.304838561248741E+05,      /* J = 31 */
(PID.TID 0000.0001)                 3.089214498819035E+05,      /* J = 32 */
(PID.TID 0000.0001)                 2.858540093877838E+05,      /* J = 33 */
(PID.TID 0000.0001)                 2.613939168938713E+05,      /* J = 34 */
(PID.TID 0000.0001)                 2.356603395120766E+05,      /* J = 35 */
(PID.TID 0000.0001)                 2.087786486446736E+05,      /* J = 36 */
(PID.TID 0000.0001)                 1.808798091874300E+05,      /* J = 37 */
(PID.TID 0000.0001)                 1.520997414818001E+05,      /* J = 38 */
(PID.TID 0000.0001)                 1.225786591246834E+05,      /* J = 39 */
(PID.TID 0000.0001)                 9.246038586187513E+04       /* J = 40 */
(PID.TID 0000.0001)     ;
(PID.TID 0000.0001) dyC =  /* dyC(:,1,:,1) ( m - cartesian, degrees - spherical ) */
(PID.TID 0000.0001)    90 @  4.447098934081552E+05              /* I =  1: 90 */
(PID.TID 0000.0001)     ;
(PID.TID 0000.0001) dyC =  /* dyC(1,:,1,:) ( m - cartesian, degrees - spherical ) */
(PID.TID 0000.0001)    40 @  4.447098934081552E+05              /* J =  1: 40 */
(PID.TID 0000.0001)     ;
(PID.TID 0000.0001) dxV =  /* dxV(:,1,:,1) ( m - cartesian, degrees - spherical ) */
(PID.TID 0000.0001)    90 @  7.722306258078101E+04              /* I =  1: 90 */
(PID.TID 0000.0001)     ;
(PID.TID 0000.0001) dxV =  /* dxV(1,:,1,:) ( m - cartesian, degrees - spherical ) */
(PID.TID 0000.0001)                 7.722306258078101E+04,      /* J =  1 */
(PID.TID 0000.0001)                 1.075850604052271E+05,      /* J =  2 */
(PID.TID 0000.0001)                 1.374229146297914E+05,      /* J =  3 */
(PID.TID 0000.0001)                 1.665912582279823E+05,      /* J =  4 */
(PID.TID 0000.0001)                 1.949479859617814E+05,      /* J =  5 */
(PID.TID 0000.0001)                 2.223549467040776E+05,      /* J =  6 */
(PID.TID 0000.0001)                 2.486786164970726E+05,      /* J =  7 */
(PID.TID 0000.0001)                 2.737907490675810E+05,      /* J =  8 */
(PID.TID 0000.0001)                 2.975690006299820E+05,      /* J =  9 */
(PID.TID 0000.0001)                 3.198975259328452E+05,      /* J = 10 */
(PID.TID 0000.0001)                 3.406675426453503E+05,      /* J = 11 */
(PID.TID 0000.0001)                 3.597778613338689E+05,      /* J = 12 */
(PID.TID 0000.0001)                 3.771353784467131E+05,      /* J = 13 */
(PID.TID 0000.0001)                 3.926555299052806E+05,      /* J = 14 */
(PID.TID 0000.0001)                 4.062627030917454E+05,      /* J = 15 */
(PID.TID 0000.0001)                 4.178906052261313E+05,      /* J = 16 */
(PID.TID 0000.0001)                 4.274825863380723E+05,      /* J = 17 */
(PID.TID 0000.0001)                 4.349919152597734E+05,      /* J = 18 */
(PID.TID 0000.0001)                 4.403820072955634E+05,      /* J = 19 */
(PID.TID 0000.0001)                 4.436266024588540E+05,      /* J = 20 */
(PID.TID 0000.0001)                 4.447098934081552E+05,      /* J = 21 */
(PID.TID 0000.0001)                 4.436266024588540E+05,      /* J = 22 */
(PID.TID 0000.0001)                 4.403820072955634E+05,      /* J = 23 */
(PID.TID 0000.0001)                 4.349919152597734E+05,      /* J = 24 */
(PID.TID 0000.0001)                 4.274825863380723E+05,      /* J = 25 */
(PID.TID 0000.0001)                 4.178906052261313E+05,      /* J = 26 */
(PID.TID 0000.0001)                 4.062627030917454E+05,      /* J = 27 */
(PID.TID 0000.0001)                 3.926555299052806E+05,      /* J = 28 */
(PID.TID 0000.0001)                 3.771353784467131E+05,      /* J = 29 */
(PID.TID 0000.0001)                 3.597778613338689E+05,      /* J = 30 */
(PID.TID 0000.0001)                 3.406675426453503E+05,      /* J = 31 */
(PID.TID 0000.0001)                 3.198975259328452E+05,      /* J = 32 */
(PID.TID 0000.0001)                 2.975690006299820E+05,      /* J = 33 */
(PID.TID 0000.0001)                 2.737907490675810E+05,      /* J = 34 */
(PID.TID 0000.0001)                 2.486786164970726E+05,      /* J = 35 */
(PID.TID 0000.0001)                 2.223549467040776E+05,      /* J = 36 */
(PID.TID 0000.0001)                 1.949479859617814E+05,      /* J = 37 */
(PID.TID 0000.0001)                 1.665912582279823E+05,      /* J = 38 */
(PID.TID 0000.0001)                 1.374229146297914E+05,      /* J = 39 */
(PID.TID 0000.0001)                 1.075850604052271E+05       /* J = 40 */
(PID.TID 0000.0001)     ;
(PID.TID 0000.0001) dyU =  /* dyU(:,1,:,1) ( m - cartesian, degrees - spherical ) */
(PID.TID 0000.0001)    90 @  4.447098934081552E+05              /* I =  1: 90 */
(PID.TID 0000.0001)     ;
(PID.TID 0000.0001) dyU =  /* dyU(1,:,1,:) ( m - cartesian, degrees - spherical ) */
(PID.TID 0000.0001)    40 @  4.447098934081552E+05              /* J =  1: 40 */
(PID.TID 0000.0001)     ;
(PID.TID 0000.0001) rA =  /* rA(:,1,:,1) ( m - cartesian, degrees - spherical ) */
(PID.TID 0000.0001)    90 @  4.110969866729054E+10              /* I =  1: 90 */
(PID.TID 0000.0001)     ;
(PID.TID 0000.0001) rA =  /* rA(1,:,1,:) ( m - cartesian, degrees - spherical ) */
(PID.TID 0000.0001)                 4.110969866729054E+10,      /* J =  1 */
(PID.TID 0000.0001)                 5.450087291636668E+10,      /* J =  2 */
(PID.TID 0000.0001)                 6.762652439100243E+10,      /* J =  3 */
(PID.TID 0000.0001)                 8.042270623659999E+10,      /* J =  4 */
(PID.TID 0000.0001)                 9.282707674147508E+10,      /* J =  5 */
(PID.TID 0000.0001)                 1.047792030594103E+11,      /* J =  6 */
(PID.TID 0000.0001)                 1.162208556324092E+11,      /* J =  7 */
(PID.TID 0000.0001)                 1.270962918792467E+11,      /* J =  8 */
(PID.TID 0000.0001)                 1.373525277677230E+11,      /* J =  9 */
(PID.TID 0000.0001)                 1.469395959475425E+11,      /* J = 10 */
(PID.TID 0000.0001)                 1.558107891862221E+11,      /* J = 11 */
(PID.TID 0000.0001)                 1.639228879220325E+11,      /* J = 12 */
(PID.TID 0000.0001)                 1.712363708253575E+11,      /* J = 13 */
(PID.TID 0000.0001)                 1.777156073426414E+11,      /* J = 14 */
(PID.TID 0000.0001)                 1.833290312848624E+11,      /* J = 15 */
(PID.TID 0000.0001)                 1.880492946148330E+11,      /* J = 16 */
(PID.TID 0000.0001)                 1.918534006840893E+11,      /* J = 17 */
(PID.TID 0000.0001)                 1.947228162702492E+11,      /* J = 18 */
(PID.TID 0000.0001)                 1.966435618690094E+11,      /* J = 19 */
(PID.TID 0000.0001)                 1.976062798008855E+11,      /* J = 20 */
(PID.TID 0000.0001)                 1.976062798008856E+11,      /* J = 21 */
(PID.TID 0000.0001)                 1.966435618690094E+11,      /* J = 22 */
(PID.TID 0000.0001)                 1.947228162702492E+11,      /* J = 23 */
(PID.TID 0000.0001)                 1.918534006840893E+11,      /* J = 24 */
(PID.TID 0000.0001)                 1.880492946148330E+11,      /* J = 25 */
(PID.TID 0000.0001)                 1.833290312848623E+11,      /* J = 26 */
(PID.TID 0000.0001)                 1.777156073426414E+11,      /* J = 27 */
(PID.TID 0000.0001)                 1.712363708253574E+11,      /* J = 28 */
(PID.TID 0000.0001)                 1.639228879220325E+11,      /* J = 29 */
(PID.TID 0000.0001)                 1.558107891862220E+11,      /* J = 30 */
(PID.TID 0000.0001)                 1.469395959475424E+11,      /* J = 31 */
(PID.TID 0000.0001)                 1.373525277677230E+11,      /* J = 32 */
(PID.TID 0000.0001)                 1.270962918792467E+11,      /* J = 33 */
(PID.TID 0000.0001)                 1.162208556324095E+11,      /* J = 34 */
(PID.TID 0000.0001)                 1.047792030594104E+11,      /* J = 35 */
(PID.TID 0000.0001)                 9.282707674147527E+10,      /* J = 36 */
(PID.TID 0000.0001)                 8.042270623660011E+10,      /* J = 37 */
(PID.TID 0000.0001)                 6.762652439100233E+10,      /* J = 38 */
(PID.TID 0000.0001)                 5.450087291636658E+10,      /* J = 39 */
(PID.TID 0000.0001)                 4.110969866729044E+10       /* J = 40 */
(PID.TID 0000.0001)     ;
(PID.TID 0000.0001) rAw =  /* rAw(:,1,:,1) ( m - cartesian, degrees - spherical ) */
(PID.TID 0000.0001)    90 @  4.110969866729054E+10              /* I =  1: 90 */
(PID.TID 0000.0001)     ;
(PID.TID 0000.0001) rAw =  /* rAw(1,:,1,:) ( m - cartesian, degrees - spherical ) */
(PID.TID 0000.0001)                 4.110969866729054E+10,      /* J =  1 */
(PID.TID 0000.0001)                 5.450087291636668E+10,      /* J =  2 */
(PID.TID 0000.0001)                 6.762652439100243E+10,      /* J =  3 */
(PID.TID 0000.0001)                 8.042270623659999E+10,      /* J =  4 */
(PID.TID 0000.0001)                 9.282707674147508E+10,      /* J =  5 */
(PID.TID 0000.0001)                 1.047792030594103E+11,      /* J =  6 */
(PID.TID 0000.0001)                 1.162208556324092E+11,      /* J =  7 */
(PID.TID 0000.0001)                 1.270962918792467E+11,      /* J =  8 */
(PID.TID 0000.0001)                 1.373525277677230E+11,      /* J =  9 */
(PID.TID 0000.0001)                 1.469395959475425E+11,      /* J = 10 */
(PID.TID 0000.0001)                 1.558107891862221E+11,      /* J = 11 */
(PID.TID 0000.0001)                 1.639228879220325E+11,      /* J = 12 */
(PID.TID 0000.0001)                 1.712363708253575E+11,      /* J = 13 */
(PID.TID 0000.0001)                 1.777156073426414E+11,      /* J = 14 */
(PID.TID 0000.0001)                 1.833290312848624E+11,      /* J = 15 */
(PID.TID 0000.0001)                 1.880492946148330E+11,      /* J = 16 */
(PID.TID 0000.0001)                 1.918534006840893E+11,      /* J = 17 */
(PID.TID 0000.0001)                 1.947228162702492E+11,      /* J = 18 */
(PID.TID 0000.0001)                 1.966435618690094E+11,      /* J = 19 */
(PID.TID 0000.0001)                 1.976062798008855E+11,      /* J = 20 */
(PID.TID 0000.0001)                 1.976062798008856E+11,      /* J = 21 */
(PID.TID 0000.0001)                 1.966435618690094E+11,      /* J = 22 */
(PID.TID 0000.0001)                 1.947228162702492E+11,      /* J = 23 */
(PID.TID 0000.0001)                 1.918534006840893E+11,      /* J = 24 */
(PID.TID 0000.0001)                 1.880492946148330E+11,      /* J = 25 */
(PID.TID 0000.0001)                 1.833290312848623E+11,      /* J = 26 */
(PID.TID 0000.0001)                 1.777156073426414E+11,      /* J = 27 */
(PID.TID 0000.0001)                 1.712363708253574E+11,      /* J = 28 */
(PID.TID 0000.0001)                 1.639228879220325E+11,      /* J = 29 */
(PID.TID 0000.0001)                 1.558107891862220E+11,      /* J = 30 */
(PID.TID 0000.0001)                 1.469395959475424E+11,      /* J = 31 */
(PID.TID 0000.0001)                 1.373525277677230E+11,      /* J = 32 */
(PID.TID 0000.0001)                 1.270962918792467E+11,      /* J = 33 */
(PID.TID 0000.0001)                 1.162208556324095E+11,      /* J = 34 */
(PID.TID 0000.0001)                 1.047792030594104E+11,      /* J = 35 */
(PID.TID 0000.0001)                 9.282707674147527E+10,      /* J = 36 */
(PID.TID 0000.0001)                 8.042270623660011E+10,      /* J = 37 */
(PID.TID 0000.0001)                 6.762652439100233E+10,      /* J = 38 */
(PID.TID 0000.0001)                 5.450087291636658E+10,      /* J = 39 */
(PID.TID 0000.0001)                 4.110969866729044E+10       /* J = 40 */
(PID.TID 0000.0001)     ;
(PID.TID 0000.0001) rAs =  /* rAs(:,1,:,1) ( m - cartesian, degrees - spherical ) */
(PID.TID 0000.0001)    90 @  3.433488626798236E+10              /* I =  1: 90 */
(PID.TID 0000.0001)     ;
(PID.TID 0000.0001) rAs =  /* rAs(1,:,1,:) ( m - cartesian, degrees - spherical ) */
(PID.TID 0000.0001)                 3.433488626798236E+10,      /* J =  1 */
(PID.TID 0000.0001)                 4.783442523123635E+10,      /* J =  2 */
(PID.TID 0000.0001)                 6.110091968306405E+10,      /* J =  3 */
(PID.TID 0000.0001)                 7.406973659603827E+10,      /* J =  4 */
(PID.TID 0000.0001)                 8.667769319778091E+10,      /* J =  5 */
(PID.TID 0000.0001)                 9.886336479107472E+10,      /* J =  6 */
(PID.TID 0000.0001)                 1.105673840088174E+11,      /* J =  7 */
(PID.TID 0000.0001)                 1.217327300458637E+11,      /* J =  8 */
(PID.TID 0000.0001)                 1.323050064586579E+11,      /* J =  9 */
(PID.TID 0000.0001)                 1.422327061792379E+11,      /* J = 10 */
(PID.TID 0000.0001)                 1.514674624524945E+11,      /* J = 11 */
(PID.TID 0000.0001)                 1.599642844741385E+11,      /* J = 12 */
(PID.TID 0000.0001)                 1.676817765813787E+11,      /* J = 13 */
(PID.TID 0000.0001)                 1.745823399284268E+11,      /* J = 14 */
(PID.TID 0000.0001)                 1.806323556642997E+11,      /* J = 15 */
(PID.TID 0000.0001)                 1.858023487204767E+11,      /* J = 16 */
(PID.TID 0000.0001)                 1.900671314104744E+11,      /* J = 17 */
(PID.TID 0000.0001)                 1.934059261417216E+11,      /* J = 18 */
(PID.TID 0000.0001)                 1.958024666419019E+11,      /* J = 19 */
(PID.TID 0000.0001)                 1.972450772065981E+11,      /* J = 20 */
(PID.TID 0000.0001)                 1.977267295821495E+11,      /* J = 21 */
(PID.TID 0000.0001)                 1.972450772065981E+11,      /* J = 22 */
(PID.TID 0000.0001)                 1.958024666419019E+11,      /* J = 23 */
(PID.TID 0000.0001)                 1.934059261417216E+11,      /* J = 24 */
(PID.TID 0000.0001)                 1.900671314104744E+11,      /* J = 25 */
(PID.TID 0000.0001)                 1.858023487204767E+11,      /* J = 26 */
(PID.TID 0000.0001)                 1.806323556642997E+11,      /* J = 27 */
(PID.TID 0000.0001)                 1.745823399284267E+11,      /* J = 28 */
(PID.TID 0000.0001)                 1.676817765813788E+11,      /* J = 29 */
(PID.TID 0000.0001)                 1.599642844741386E+11,      /* J = 30 */
(PID.TID 0000.0001)                 1.514674624524945E+11,      /* J = 31 */
(PID.TID 0000.0001)                 1.422327061792377E+11,      /* J = 32 */
(PID.TID 0000.0001)                 1.323050064586577E+11,      /* J = 33 */
(PID.TID 0000.0001)                 1.217327300458638E+11,      /* J = 34 */
(PID.TID 0000.0001)                 1.105673840088174E+11,      /* J = 35 */
(PID.TID 0000.0001)                 9.886336479107451E+10,      /* J = 36 */
(PID.TID 0000.0001)                 8.667769319778070E+10,      /* J = 37 */
(PID.TID 0000.0001)                 7.406973659603806E+10,      /* J = 38 */
(PID.TID 0000.0001)                 6.110091968306404E+10,      /* J = 39 */
(PID.TID 0000.0001)                 4.783442523123634E+10       /* J = 40 */
(PID.TID 0000.0001)     ;
(PID.TID 0000.0001) 
(PID.TID 0000.0001)  MDSREADFIELD: opening global file: lev_t.bin
(PID.TID 0000.0001) // =======================================================
(PID.TID 0000.0001) // Field Initial Temperature at iteration          1
(PID.TID 0000.0001) // CMIN =         -8.538625820175458E-01
(PID.TID 0000.0001) // CMAX =          2.012045717433744E+00
(PID.TID 0000.0001) // CINT =          1.061447518315292E-01
(PID.TID 0000.0001) // SYMBOLS (CMIN->CMAX): -abcdefghijklmnopqrstuvwxyz+
(PID.TID 0000.0001) //                  0.0: .
(PID.TID 0000.0001) // RANGE I (Lo:Hi:Step):(   1:  90:   1)
(PID.TID 0000.0001) // RANGE J (Lo:Hi:Step):(  40:   1:  -1)
(PID.TID 0000.0001) // RANGE K (Lo:Hi:Step):(   1:   1:   1)
(PID.TID 0000.0001) // =======================================================
(PID.TID 0000.0001) K =   1
(PID.TID 0000.0001)                I=10      I=20      I=30      I=40      I=50      I=60      I=70      I=80      I=90
(PID.TID 0000.0001) |--J--|123456789|123456789|123456789|123456789|123456789|123456789|123456789|123456789|123456789|
(PID.TID 0000.0001)     40 ..........................................................................................
(PID.TID 0000.0001)     39 ..........................................................................................
(PID.TID 0000.0001)     38 ..........................................................................................
(PID.TID 0000.0001)     37 ..........................................................................................
(PID.TID 0000.0001)     36 ..........................................................................................
(PID.TID 0000.0001)     35 ..........................................................................................
(PID.TID 0000.0001)     34 ..........................................................................................
(PID.TID 0000.0001)     33 .......................................rrr.rrrrrrsss......................................
(PID.TID 0000.0001)     32 ......................................rrrr.rrrrssssss.....................................
(PID.TID 0000.0001)     31 ....................................rrrrrr.rrrrssssss......................yy.............
(PID.TID 0000.0001)     30 ....................................rrrr.rr.rrsssssssssss................yyyy.............
(PID.TID 0000.0001)     29 ...................................rrrr.rrr...rssrsrrssss...............yy.yyy.....++.....
(PID.TID 0000.0001)     28 ...................................rrrrrrrrrrrrrrrrrrr..................yyyxxx.....++.....
(PID.TID 0000.0001)     27 .....................................rrrrrrrr.r...rrr...................yyxxxx..zzzz+.....
(PID.TID 0000.0001)     26 ...............................tss..rrrrrrrrrrr....rrrrrr...............yyyxxx..zzzz......
(PID.TID 0000.0001)     25 ...............................stt..rrr..rq.....qrrrrqqqq.................www...zz........
(PID.TID 0000.0001)     24 ...............................tt...rrrrrqqqqqqqqqqqqqq.........................zzzz......
(PID.TID 0000.0001)     23 ....................................rrrr...qqqqq.qrrqrr.........................yzzz......
(PID.TID 0000.0001)     22 ...........................................qppppp..r.rr...................................
(PID.TID 0000.0001)     21 ...........................................pppppp.......................................yz
(PID.TID 0000.0001)     20 ............................................ppppppp...............................llp...zz
(PID.TID 0000.0001)     19 zz................qqq.......................pppp.pppp.............................lll.....
(PID.TID 0000.0001)     18 zz................qqq....oo.o.....................qpq.............................lll....z
(PID.TID 0000.0001)     17 zz................qqq.ooooooo.....................qp..............................lll....z
(PID.TID 0000.0001)     16 ++.................qq.oooooo...................nno................................llm....+
(PID.TID 0000.0001)     15 +......................noooo..................nnno................................llm....+
(PID.TID 0000.0001)     14 +...........nnn........nn.o...................nnnooo..............................mmm....+
(PID.TID 0000.0001)     13 .oo.........nnn...........oo..................nnnnnnoo....................................
(PID.TID 0000.0001)     12 nmm.......................nn..mmm.............ooooooooo...................................
(PID.TID 0000.0001)     11 oon.ll........ii...........mmmmmmmm...........n.noooooooo....................ggfgg........
(PID.TID 0000.0001)     10 on..l.hi......ii..............lmmmm.............mnnoooooo...................hhgggg........
(PID.TID 0000.0001)      9 .....ggg......................................nmmmmnnnnnn...................hhgggg........
(PID.TID 0000.0001)      8 .....fe......................................mmmmmm............................ff.........
(PID.TID 0000.0001)      7 .......bb...cc.............................llmmmm.................iii.....................
(PID.TID 0000.0001)      6 -aaaaabbbbbbccc............................lllm.............hhi.i.iii....................-
(PID.TID 0000.0001)      5 ---aaaaaaaaabbb...........................................hhhhhhhh.h.................-----
(PID.TID 0000.0001)      4 ..-aaaaa..................................................hhhhhhh....................----a
(PID.TID 0000.0001)      3 ..........................................................................................
(PID.TID 0000.0001)      2 ..........................................................................................
(PID.TID 0000.0001)      1 ..........................................................................................
(PID.TID 0000.0001) // =======================================================
(PID.TID 0000.0001) // END OF FIELD                                          =
(PID.TID 0000.0001) // =======================================================
(PID.TID 0000.0001) 
(PID.TID 0000.0001)  MDSREADFIELD: opening global file: lev_s.bin
(PID.TID 0000.0001) // =======================================================
(PID.TID 0000.0001) // Field Initial Salinity at iteration          1
(PID.TID 0000.0001) // CMIN =          3.464784170881562E+01
(PID.TID 0000.0001) // CMAX =          3.490372370636981E+01
(PID.TID 0000.0001) // CINT =          9.477111020525586E-03
(PID.TID 0000.0001) // SYMBOLS (CMIN->CMAX): -abcdefghijklmnopqrstuvwxyz+
(PID.TID 0000.0001) //                  0.0: .
(PID.TID 0000.0001) // RANGE I (Lo:Hi:Step):(   1:  90:   1)
(PID.TID 0000.0001) // RANGE J (Lo:Hi:Step):(  40:   1:  -1)
(PID.TID 0000.0001) // RANGE K (Lo:Hi:Step):(   1:   1:   1)
(PID.TID 0000.0001) // =======================================================
(PID.TID 0000.0001) K =   1
(PID.TID 0000.0001)                I=10      I=20      I=30      I=40      I=50      I=60      I=70      I=80      I=90
(PID.TID 0000.0001) |--J--|123456789|123456789|123456789|123456789|123456789|123456789|123456789|123456789|123456789|
(PID.TID 0000.0001)     40 ..........................................................................................
(PID.TID 0000.0001)     39 ..........................................................................................
(PID.TID 0000.0001)     38 ..........................................................................................
(PID.TID 0000.0001)     37 ..........................................................................................
(PID.TID 0000.0001)     36 ..........................................................................................
(PID.TID 0000.0001)     35 ..........................................................................................
(PID.TID 0000.0001)     34 ..........................................................................................
(PID.TID 0000.0001)     33 .......................................ddd.ddeeeeddd......................................
(PID.TID 0000.0001)     32 ......................................dddd.dddddddddd.....................................
(PID.TID 0000.0001)     31 ....................................edddde.eeedddddde......................+z.............
(PID.TID 0000.0001)     30 ....................................eefe.ee.eddddddddddee................+++z.............
(PID.TID 0000.0001)     29 ...................................ddee.dee...dddddeddddd...............++.zyy.....yz.....
(PID.TID 0000.0001)     28 ...................................cceebdeeeeeeddddded..................zzzyxx.....zz.....
(PID.TID 0000.0001)     27 .....................................deddeedd.e...dde...................zyyxxx..zzyzz.....
(PID.TID 0000.0001)     26 ...............................ddd..feeeeeeedef....eeeeee...............yzywww..z+zz......
(PID.TID 0000.0001)     25 ...............................ddc..edd..fe.....eeffffeee.................wwv...++........
(PID.TID 0000.0001)     24 ...............................dd...ddeffffeffefeeffeee.........................yyyz......
(PID.TID 0000.0001)     23 ....................................eded...effff.dffeee.........................yyzz......
(PID.TID 0000.0001)     22 ...........................................efffff..e.ee...................................
(PID.TID 0000.0001)     21 ...........................................fffgff.......................................yx
(PID.TID 0000.0001)     20 ............................................fghgffg...............................hin...xx
(PID.TID 0000.0001)     19 xy................ggf.......................fggg.ffff.............................iii.....
(PID.TID 0000.0001)     18 yy................cdd....gh.h.....................fff.............................ihh....y
(PID.TID 0000.0001)     17 yy................ddf.gggghhh.....................ff..............................ijj....y
(PID.TID 0000.0001)     16 yy.................fh.gggggi...................gff................................hii....y
(PID.TID 0000.0001)     15 y......................fgggh..................gggg................................gii....y
(PID.TID 0000.0001)     14 y...........ggg........gg.g...................gggggg..............................ijj....y
(PID.TID 0000.0001)     13 .ii.........ggg...........gg..................gggggfgg....................................
(PID.TID 0000.0001)     12 hhh.......................gg..ggg.............gggggfggg...................................
(PID.TID 0000.0001)     11 ggg.gf........dd...........hggggggg...........f.fggffffgg....................ccbcc........
(PID.TID 0000.0001)     10 gg..f.de......dd..............hgggg.............gfgggfggg...................edcccb........
(PID.TID 0000.0001)      9 .....ccd......................................fffffgggffg...................ccccbb........
(PID.TID 0000.0001)      8 .....cc......................................ffffff............................bb.........
(PID.TID 0000.0001)      7 .......bb...bb.............................efffff.................fff.....................
(PID.TID 0000.0001)      6 ---aaaaaaaabbbb............................efff.............fff.f.fff....................-
(PID.TID 0000.0001)      5 ---aaabaaaaaaaa...........................................ffgfffgf.f.................-----
(PID.TID 0000.0001)      4 ..-aabba..................................................fffffff....................-----
(PID.TID 0000.0001)      3 ..........................................................................................
(PID.TID 0000.0001)      2 ..........................................................................................
(PID.TID 0000.0001)      1 ..........................................................................................
(PID.TID 0000.0001) // =======================================================
(PID.TID 0000.0001) // END OF FIELD                                          =
(PID.TID 0000.0001) // =======================================================
(PID.TID 0000.0001) 
(PID.TID 0000.0001) Start initial hydrostatic pressure computation
(PID.TID 0000.0001) Pressure is predetermined for buoyancyRelation OCEANICP
(PID.TID 0000.0001) 
(PID.TID 0000.0001)  MDSREADFIELD: opening global file: trenberth_taux.bin
(PID.TID 0000.0001)  MDSREADFIELD: opening global file: trenberth_tauy.bin
(PID.TID 0000.0001)  MDSREADFIELD: opening global file: shi_qnet.bin
(PID.TID 0000.0001)  MDSREADFIELD: opening global file: shi_empmr.bin
(PID.TID 0000.0001)  MDSREADFIELD: opening global file: lev_sst.bin
(PID.TID 0000.0001)  MDSREADFIELD: opening global file: deltageopotjmd95.bin
(PID.TID 0000.0001) // =======================================================
(PID.TID 0000.0001) // Model current state
(PID.TID 0000.0001) // =======================================================
(PID.TID 0000.0001) 
(PID.TID 0000.0001) // =======================================================
(PID.TID 0000.0001) // Begin MONITOR dynamic field statistics
(PID.TID 0000.0001) // =======================================================
(PID.TID 0000.0001) %MON time_tsnumber                =                     0
(PID.TID 0000.0001) %MON time_secondsf                =   0.0000000000000E+00
(PID.TID 0000.0001) %MON dynstat_eta_max              =   0.0000000000000E+00
(PID.TID 0000.0001) %MON dynstat_eta_min              =   0.0000000000000E+00
(PID.TID 0000.0001) %MON dynstat_eta_mean             =   0.0000000000000E+00
(PID.TID 0000.0001) %MON dynstat_eta_sd               =   0.0000000000000E+00
(PID.TID 0000.0001) %MON dynstat_eta_del2             =   0.0000000000000E+00
(PID.TID 0000.0001) %MON dynstat_uvel_max             =   0.0000000000000E+00
(PID.TID 0000.0001) %MON dynstat_uvel_min             =   0.0000000000000E+00
(PID.TID 0000.0001) %MON dynstat_uvel_mean            =   0.0000000000000E+00
(PID.TID 0000.0001) %MON dynstat_uvel_sd              =   0.0000000000000E+00
(PID.TID 0000.0001) %MON dynstat_uvel_del2            =   0.0000000000000E+00
(PID.TID 0000.0001) %MON dynstat_vvel_max             =   0.0000000000000E+00
(PID.TID 0000.0001) %MON dynstat_vvel_min             =   0.0000000000000E+00
(PID.TID 0000.0001) %MON dynstat_vvel_mean            =   0.0000000000000E+00
(PID.TID 0000.0001) %MON dynstat_vvel_sd              =   0.0000000000000E+00
(PID.TID 0000.0001) %MON dynstat_vvel_del2            =   0.0000000000000E+00
(PID.TID 0000.0001) %MON dynstat_wvel_max             =   0.0000000000000E+00
(PID.TID 0000.0001) %MON dynstat_wvel_min             =   0.0000000000000E+00
(PID.TID 0000.0001) %MON dynstat_wvel_mean            =   0.0000000000000E+00
(PID.TID 0000.0001) %MON dynstat_wvel_sd              =   0.0000000000000E+00
(PID.TID 0000.0001) %MON dynstat_wvel_del2            =   0.0000000000000E+00
(PID.TID 0000.0001) %MON dynstat_theta_max            =   2.9733511003948E+01
(PID.TID 0000.0001) %MON dynstat_theta_min            =  -2.6263839329562E+00
(PID.TID 0000.0001) %MON dynstat_theta_mean           =   3.6018664655652E+00
(PID.TID 0000.0001) %MON dynstat_theta_sd             =   4.4018845380979E+00
(PID.TID 0000.0001) %MON dynstat_theta_del2           =   1.5429255071065E-01
(PID.TID 0000.0001) %MON dynstat_salt_max             =   3.7475629659304E+01
(PID.TID 0000.0001) %MON dynstat_salt_min             =   2.9752769471420E+01
(PID.TID 0000.0001) %MON dynstat_salt_mean            =   3.4718001015836E+01
(PID.TID 0000.0001) %MON dynstat_salt_sd              =   2.9462524950603E-01
(PID.TID 0000.0001) %MON dynstat_salt_del2            =   2.6846692931047E-02
(PID.TID 0000.0001) %MON advcfl_uvel_max              =   0.0000000000000E+00
(PID.TID 0000.0001) %MON advcfl_vvel_max              =   0.0000000000000E+00
(PID.TID 0000.0001) %MON advcfl_wvel_max              =   0.0000000000000E+00
(PID.TID 0000.0001) %MON advcfl_W_hf_max              =   0.0000000000000E+00
(PID.TID 0000.0001) %MON pe_b_mean                    =   0.0000000000000E+00
(PID.TID 0000.0001) %MON ke_max                       =   0.0000000000000E+00
(PID.TID 0000.0001) %MON ke_mean                      =   0.0000000000000E+00
(PID.TID 0000.0001) %MON ke_vol                       =   1.3442141716555E+22
(PID.TID 0000.0001) %MON vort_r_min                   =   0.0000000000000E+00
(PID.TID 0000.0001) %MON vort_r_max                   =   0.0000000000000E+00
(PID.TID 0000.0001) %MON vort_a_mean                  =  -2.4531015880769E-05
(PID.TID 0000.0001) %MON vort_a_sd                    =   7.3436042941019E-05
(PID.TID 0000.0001) %MON vort_p_mean                  =  -2.9390264918854E-05
(PID.TID 0000.0001) %MON vort_p_sd                    =   1.0331963168452E-04
(PID.TID 0000.0001) %MON surfExpan_theta_mean         =   0.0000000000000E+00
(PID.TID 0000.0001) %MON surfExpan_salt_mean          =   0.0000000000000E+00
(PID.TID 0000.0001) // =======================================================
(PID.TID 0000.0001) // End MONITOR dynamic field statistics
(PID.TID 0000.0001) // =======================================================
 S/R EXTERNAL_FIELDS_LOAD: Reading new data  0. 0
(PID.TID 0000.0001)  MDSREADFIELD: opening global file: trenberth_taux.bin
(PID.TID 0000.0001)  MDSREADFIELD: opening global file: trenberth_taux.bin
(PID.TID 0000.0001)  MDSREADFIELD: opening global file: trenberth_tauy.bin
(PID.TID 0000.0001)  MDSREADFIELD: opening global file: trenberth_tauy.bin
(PID.TID 0000.0001)  MDSREADFIELD: opening global file: shi_qnet.bin
(PID.TID 0000.0001)  MDSREADFIELD: opening global file: shi_qnet.bin
(PID.TID 0000.0001)  MDSREADFIELD: opening global file: shi_empmr.bin
(PID.TID 0000.0001)  MDSREADFIELD: opening global file: shi_empmr.bin
(PID.TID 0000.0001)  MDSREADFIELD: opening global file: lev_sst.bin
(PID.TID 0000.0001)  MDSREADFIELD: opening global file: lev_sst.bin
(PID.TID 0000.0001)  MDSREADFIELD: opening global file: deltageopotjmd95.bin
(PID.TID 0000.0001)  MDSREADFIELD: opening global file: deltageopotjmd95.bin
time,SST,SSS,fu,fv,Q,E-P,i0,i1,a,b =   0.0000E+00  1.1337E-01  0.0000E+00 -4.0176E-02 -6.3320E-02  1.7257E+02 -2.0964E-09    12     1  5.3333E-01  4.6667E-01
time,fu0,fu1,fu =   0.0000E+00 -4.5368E-02 -3.5633E-02 -4.0176E-02  5.3333E-01  4.6667E-01
 cg2d: Sum(rhs),rhsMax =   4.85722573273506E-16  1.71163423876591E+02
(PID.TID 0000.0001)                    cg2d_init_res =    9.36692222671517E+00
(PID.TID 0000.0001)                       cg2d_iters =   127
(PID.TID 0000.0001)                         cg2d_res =    9.87474841276712E-10
(PID.TID 0000.0001) // =======================================================
(PID.TID 0000.0001) // Begin MONITOR dynamic field statistics
(PID.TID 0000.0001) // =======================================================
(PID.TID 0000.0001) %MON time_tsnumber                =                     1
(PID.TID 0000.0001) %MON time_secondsf                =   1.7280000000000E+05
(PID.TID 0000.0001) %MON dynstat_eta_max              =   4.1657164210641E+04
(PID.TID 0000.0001) %MON dynstat_eta_min              =  -8.8276374845670E+04
(PID.TID 0000.0001) %MON dynstat_eta_mean             =  -2.2799633753378E-12
(PID.TID 0000.0001) %MON dynstat_eta_sd               =   3.6901405582339E+04
(PID.TID 0000.0001) %MON dynstat_eta_del2             =   2.3562066923203E+04
(PID.TID 0000.0001) %MON dynstat_uvel_max             =   3.5125732100584E-02
(PID.TID 0000.0001) %MON dynstat_uvel_min             =  -3.5357448065036E-02
(PID.TID 0000.0001) %MON dynstat_uvel_mean            =  -8.4137049180802E-04
(PID.TID 0000.0001) %MON dynstat_uvel_sd              =   2.2142813776119E-03
(PID.TID 0000.0001) %MON dynstat_uvel_del2            =   7.7406251858179E-04
(PID.TID 0000.0001) %MON dynstat_vvel_max             =   3.5008028164325E-02
(PID.TID 0000.0001) %MON dynstat_vvel_min             =  -2.4496078954003E-02
(PID.TID 0000.0001) %MON dynstat_vvel_mean            =   1.0871907853326E-03
(PID.TID 0000.0001) %MON dynstat_vvel_sd              =   2.2888132791031E-03
(PID.TID 0000.0001) %MON dynstat_vvel_del2            =   7.6102756434894E-04
(PID.TID 0000.0001) %MON dynstat_wvel_max             =   5.0250185981276E-01
(PID.TID 0000.0001) %MON dynstat_wvel_min             =  -6.2689460754028E-01
(PID.TID 0000.0001) %MON dynstat_wvel_mean            =  -6.6718508614515E-03
(PID.TID 0000.0001) %MON dynstat_wvel_sd              =   1.5353628628154E-01
(PID.TID 0000.0001) %MON dynstat_wvel_del2            =   6.1610670023033E-02
(PID.TID 0000.0001) %MON dynstat_theta_max            =   2.9713265304180E+01
(PID.TID 0000.0001) %MON dynstat_theta_min            =  -2.6183664565810E+00
(PID.TID 0000.0001) %MON dynstat_theta_mean           =   3.6019910573989E+00
(PID.TID 0000.0001) %MON dynstat_theta_sd             =   4.4015315967483E+00
(PID.TID 0000.0001) %MON dynstat_theta_del2           =   1.5479567598383E-01
(PID.TID 0000.0001) %MON dynstat_salt_max             =   3.7478618521905E+01
(PID.TID 0000.0001) %MON dynstat_salt_min             =   2.9762213911218E+01
(PID.TID 0000.0001) %MON dynstat_salt_mean            =   3.4718001015835E+01
(PID.TID 0000.0001) %MON dynstat_salt_sd              =   2.9451022507207E-01
(PID.TID 0000.0001) %MON dynstat_salt_del2            =   2.6959492538962E-02
(PID.TID 0000.0001) %MON advcfl_uvel_max              =   2.1969227686561E-02
(PID.TID 0000.0001) %MON advcfl_vvel_max              =   1.3602996822118E-02
(PID.TID 0000.0001) %MON advcfl_wvel_max              =   4.1333629933018E-02
(PID.TID 0000.0001) %MON advcfl_W_hf_max              =   4.1333629933018E-02
(PID.TID 0000.0001) %MON pe_b_mean                    =  -6.4369790450436E-03
(PID.TID 0000.0001) %MON ke_max                       =   5.7559084779391E-04
(PID.TID 0000.0001) %MON ke_mean                      =   5.4209038556704E-06
(PID.TID 0000.0001) %MON ke_vol                       =   1.3442141716555E+22
(PID.TID 0000.0001) %MON vort_r_min                   =  -1.1938223648217E-07
(PID.TID 0000.0001) %MON vort_r_max                   =   1.5595003097447E-07
(PID.TID 0000.0001) %MON vort_a_mean                  =  -2.4531015891588E-05
(PID.TID 0000.0001) %MON vort_a_sd                    =   7.3435845880052E-05
(PID.TID 0000.0001) %MON vort_p_mean                  =  -2.9390264931816E-05
(PID.TID 0000.0001) %MON vort_p_sd                    =   1.0331909362888E-04
(PID.TID 0000.0001) %MON surfExpan_theta_mean         =   6.7340147193248E-02
(PID.TID 0000.0001) %MON surfExpan_salt_mean          =  -2.2622016031573E-04
(PID.TID 0000.0001) // =======================================================
(PID.TID 0000.0001) // End MONITOR dynamic field statistics
(PID.TID 0000.0001) // =======================================================
time,SST,SSS,fu,fv,Q,E-P,i0,i1,a,b =   1.7280E+05  2.3410E-01  0.0000E+00 -3.9527E-02 -6.2453E-02  1.6404E+02 -2.0964E-09    12     1  6.0000E-01  4.0000E-01
time,fu0,fu1,fu =   1.7280E+05 -4.5368E-02 -3.5633E-02 -3.9527E-02  6.0000E-01  4.0000E-01
 cg2d: Sum(rhs),rhsMax =  -4.30211422042248E-16  1.74491047757144E+02
(PID.TID 0000.0001)                    cg2d_init_res =    2.47708196787290E-01
(PID.TID 0000.0001)                       cg2d_iters =   124
(PID.TID 0000.0001)                         cg2d_res =    8.77658682422957E-10
(PID.TID 0000.0001) // =======================================================
(PID.TID 0000.0001) // Begin MONITOR dynamic field statistics
(PID.TID 0000.0001) // =======================================================
(PID.TID 0000.0001) %MON time_tsnumber                =                     2
(PID.TID 0000.0001) %MON time_secondsf                =   3.4560000000000E+05
(PID.TID 0000.0001) %MON dynstat_eta_max              =   4.8801003636593E+04
(PID.TID 0000.0001) %MON dynstat_eta_min              =  -8.9519127542673E+04
(PID.TID 0000.0001) %MON dynstat_eta_mean             =  -2.6726574319968E-12
(PID.TID 0000.0001) %MON dynstat_eta_sd               =   3.9643961850018E+04
(PID.TID 0000.0001) %MON dynstat_eta_del2             =   2.4287467933458E+04
(PID.TID 0000.0001) %MON dynstat_uvel_max             =   6.3634223900647E-02
(PID.TID 0000.0001) %MON dynstat_uvel_min             =  -4.0770528536825E-02
(PID.TID 0000.0001) %MON dynstat_uvel_mean            =  -1.1816102454305E-03
(PID.TID 0000.0001) %MON dynstat_uvel_sd              =   2.2777926391684E-03
(PID.TID 0000.0001) %MON dynstat_uvel_del2            =   8.3222316089977E-04
(PID.TID 0000.0001) %MON dynstat_vvel_max             =   5.2235073724093E-02
(PID.TID 0000.0001) %MON dynstat_vvel_min             =  -3.0675681870784E-02
(PID.TID 0000.0001) %MON dynstat_vvel_mean            =   1.5483556753766E-03
(PID.TID 0000.0001) %MON dynstat_vvel_sd              =   2.9966041391977E-03
(PID.TID 0000.0001) %MON dynstat_vvel_del2            =   9.0390644480253E-04
(PID.TID 0000.0001) %MON dynstat_wvel_max             =   6.3728869620747E-01
(PID.TID 0000.0001) %MON dynstat_wvel_min             =  -7.8830959125937E-01
(PID.TID 0000.0001) %MON dynstat_wvel_mean            =  -3.3033341521055E-03
(PID.TID 0000.0001) %MON dynstat_wvel_sd              =   8.9420032037949E-02
(PID.TID 0000.0001) %MON dynstat_wvel_del2            =   4.6781541275615E-02
(PID.TID 0000.0001) %MON dynstat_theta_max            =   2.9688317749420E+01
(PID.TID 0000.0001) %MON dynstat_theta_min            =  -2.6127583359442E+00
(PID.TID 0000.0001) %MON dynstat_theta_mean           =   3.6019450086208E+00
(PID.TID 0000.0001) %MON dynstat_theta_sd             =   4.4012662190688E+00
(PID.TID 0000.0001) %MON dynstat_theta_del2           =   1.5406689430949E-01
(PID.TID 0000.0001) %MON dynstat_salt_max             =   3.7481694673612E+01
(PID.TID 0000.0001) %MON dynstat_salt_min             =   2.9765580136600E+01
(PID.TID 0000.0001) %MON dynstat_salt_mean            =   3.4718001573791E+01
(PID.TID 0000.0001) %MON dynstat_salt_sd              =   2.9441685774606E-01
(PID.TID 0000.0001) %MON dynstat_salt_del2            =   2.7040206794657E-02
(PID.TID 0000.0001) %MON advcfl_uvel_max              =   3.3744577699388E-02
(PID.TID 0000.0001) %MON advcfl_vvel_max              =   2.0296874149456E-02
(PID.TID 0000.0001) %MON advcfl_wvel_max              =   5.3361722342022E-02
(PID.TID 0000.0001) %MON advcfl_W_hf_max              =   5.3361722342021E-02
(PID.TID 0000.0001) %MON pe_b_mean                    =  -7.1801700020762E-03
(PID.TID 0000.0001) %MON ke_max                       =   1.7108502027182E-03
(PID.TID 0000.0001) %MON ke_mean                      =   8.0817994965424E-06
(PID.TID 0000.0001) %MON ke_vol                       =   1.3442141716555E+22
(PID.TID 0000.0001) %MON vort_r_min                   =  -1.7583725357611E-07
(PID.TID 0000.0001) %MON vort_r_max                   =   1.8567143800078E-07
(PID.TID 0000.0001) %MON vort_a_mean                  =  -2.4531016005855E-05
(PID.TID 0000.0001) %MON vort_a_sd                    =   7.3435759247753E-05
(PID.TID 0000.0001) %MON vort_p_mean                  =  -2.9399877552689E-05
(PID.TID 0000.0001) %MON vort_p_sd                    =   1.0336783841406E-04
(PID.TID 0000.0001) %MON surfExpan_theta_mean         =   3.6681877482746E-02
(PID.TID 0000.0001) %MON surfExpan_salt_mean          =  -9.6953769888839E-05
(PID.TID 0000.0001) // =======================================================
(PID.TID 0000.0001) // End MONITOR dynamic field statistics
(PID.TID 0000.0001) // =======================================================
time,SST,SSS,fu,fv,Q,E-P,i0,i1,a,b =   3.4560E+05  3.5483E-01  0.0000E+00 -3.8878E-02 -6.1587E-02  1.5550E+02 -2.0964E-09    12     1  6.6667E-01  3.3333E-01
time,fu0,fu1,fu =   3.4560E+05 -4.5368E-02 -3.5633E-02 -3.8878E-02  6.6667E-01  3.3333E-01
 cg2d: Sum(rhs),rhsMax =   2.20656826144250E-15  1.72945928435633E+02
(PID.TID 0000.0001)                    cg2d_init_res =    1.06014916505570E-01
(PID.TID 0000.0001)                       cg2d_iters =   119
(PID.TID 0000.0001)                         cg2d_res =    8.79386083132799E-10
(PID.TID 0000.0001) // =======================================================
(PID.TID 0000.0001) // Begin MONITOR dynamic field statistics
(PID.TID 0000.0001) // =======================================================
(PID.TID 0000.0001) %MON time_tsnumber                =                     3
(PID.TID 0000.0001) %MON time_secondsf                =   5.1840000000000E+05
(PID.TID 0000.0001) %MON dynstat_eta_max              =   5.1297753506197E+04
(PID.TID 0000.0001) %MON dynstat_eta_min              =  -9.1295481774601E+04
(PID.TID 0000.0001) %MON dynstat_eta_mean             =  -7.1627479793776E-13
(PID.TID 0000.0001) %MON dynstat_eta_sd               =   3.9696774472346E+04
(PID.TID 0000.0001) %MON dynstat_eta_del2             =   2.3981509389667E+04
(PID.TID 0000.0001) %MON dynstat_uvel_max             =   7.1974518374935E-02
(PID.TID 0000.0001) %MON dynstat_uvel_min             =  -5.1968821542977E-02
(PID.TID 0000.0001) %MON dynstat_uvel_mean            =  -1.1614093933561E-03
(PID.TID 0000.0001) %MON dynstat_uvel_sd              =   2.7063575004646E-03
(PID.TID 0000.0001) %MON dynstat_uvel_del2            =   1.1074016776557E-03
(PID.TID 0000.0001) %MON dynstat_vvel_max             =   5.4077397652332E-02
(PID.TID 0000.0001) %MON dynstat_vvel_min             =  -4.5486543270885E-02
(PID.TID 0000.0001) %MON dynstat_vvel_mean            =   1.5247168492347E-03
(PID.TID 0000.0001) %MON dynstat_vvel_sd              =   4.1663366896082E-03
(PID.TID 0000.0001) %MON dynstat_vvel_del2            =   1.2424151007033E-03
(PID.TID 0000.0001) %MON dynstat_wvel_max             =   8.8862456268626E-01
(PID.TID 0000.0001) %MON dynstat_wvel_min             =  -1.0818412024509E+00
(PID.TID 0000.0001) %MON dynstat_wvel_mean            =  -1.5498459739965E-03
(PID.TID 0000.0001) %MON dynstat_wvel_sd              =   1.2224221993115E-01
(PID.TID 0000.0001) %MON dynstat_wvel_del2            =   6.2569737666879E-02
(PID.TID 0000.0001) %MON dynstat_theta_max            =   2.9675051403673E+01
(PID.TID 0000.0001) %MON dynstat_theta_min            =  -2.6038579339895E+00
(PID.TID 0000.0001) %MON dynstat_theta_mean           =   3.6021604296617E+00
(PID.TID 0000.0001) %MON dynstat_theta_sd             =   4.4012819003172E+00
(PID.TID 0000.0001) %MON dynstat_theta_del2           =   1.5212462215980E-01
(PID.TID 0000.0001) %MON dynstat_salt_max             =   3.7435160943014E+01
(PID.TID 0000.0001) %MON dynstat_salt_min             =   2.9770563574225E+01
(PID.TID 0000.0001) %MON dynstat_salt_mean            =   3.4718001226692E+01
(PID.TID 0000.0001) %MON dynstat_salt_sd              =   2.9442255048466E-01
(PID.TID 0000.0001) %MON dynstat_salt_del2            =   2.6913038679306E-02
(PID.TID 0000.0001) %MON advcfl_uvel_max              =   4.2013948178634E-02
(PID.TID 0000.0001) %MON advcfl_vvel_max              =   2.1012742133323E-02
(PID.TID 0000.0001) %MON advcfl_wvel_max              =   6.7819189419354E-02
(PID.TID 0000.0001) %MON advcfl_W_hf_max              =   6.7819189419354E-02
(PID.TID 0000.0001) %MON pe_b_mean                    =  -8.1526783473191E-03
(PID.TID 0000.0001) %MON ke_max                       =   2.0313787723637E-03
(PID.TID 0000.0001) %MON ke_mean                      =   1.2750686469536E-05
(PID.TID 0000.0001) %MON ke_vol                       =   1.3442141716555E+22
(PID.TID 0000.0001) %MON vort_r_min                   =  -2.0971588223444E-07
(PID.TID 0000.0001) %MON vort_r_max                   =   2.3823144865821E-07
(PID.TID 0000.0001) %MON vort_a_mean                  =  -2.4531016156362E-05
(PID.TID 0000.0001) %MON vort_a_sd                    =   7.3435757775054E-05
(PID.TID 0000.0001) %MON vort_p_mean                  =  -2.9400606306567E-05
(PID.TID 0000.0001) %MON vort_p_sd                    =   1.0337416740297E-04
(PID.TID 0000.0001) %MON surfExpan_theta_mean         =   1.7624275902875E-02
(PID.TID 0000.0001) %MON surfExpan_salt_mean          =  -2.8926311166651E-04
(PID.TID 0000.0001) // =======================================================
(PID.TID 0000.0001) // End MONITOR dynamic field statistics
(PID.TID 0000.0001) // =======================================================
time,SST,SSS,fu,fv,Q,E-P,i0,i1,a,b =   5.1840E+05  4.7556E-01  0.0000E+00 -3.8229E-02 -6.0721E-02  1.4696E+02 -2.0964E-09    12     1  7.3333E-01  2.6667E-01
time,fu0,fu1,fu =   5.1840E+05 -4.5368E-02 -3.5633E-02 -3.8229E-02  7.3333E-01  2.6667E-01
 cg2d: Sum(rhs),rhsMax =   1.94289029309402E-16  1.72905618478986E+02
(PID.TID 0000.0001)                    cg2d_init_res =    8.88324044979046E-03
(PID.TID 0000.0001)                       cg2d_iters =   116
(PID.TID 0000.0001)                         cg2d_res =    9.83051095943596E-10
(PID.TID 0000.0001) // =======================================================
(PID.TID 0000.0001) // Begin MONITOR dynamic field statistics
(PID.TID 0000.0001) // =======================================================
(PID.TID 0000.0001) %MON time_tsnumber                =                     4
(PID.TID 0000.0001) %MON time_secondsf                =   6.9120000000000E+05
(PID.TID 0000.0001) %MON dynstat_eta_max              =   5.1013831911443E+04
(PID.TID 0000.0001) %MON dynstat_eta_min              =  -9.2901641546561E+04
(PID.TID 0000.0001) %MON dynstat_eta_mean             =   2.5390842744956E-12
(PID.TID 0000.0001) %MON dynstat_eta_sd               =   4.0207170752199E+04
(PID.TID 0000.0001) %MON dynstat_eta_del2             =   2.3955142845295E+04
(PID.TID 0000.0001) %MON dynstat_uvel_max             =   6.1609534628693E-02
(PID.TID 0000.0001) %MON dynstat_uvel_min             =  -7.8157092157814E-02
(PID.TID 0000.0001) %MON dynstat_uvel_mean            =  -8.8769619007456E-04
(PID.TID 0000.0001) %MON dynstat_uvel_sd              =   3.1026057445501E-03
(PID.TID 0000.0001) %MON dynstat_uvel_del2            =   1.3422797073098E-03
(PID.TID 0000.0001) %MON dynstat_vvel_max             =   5.0830165290836E-02
(PID.TID 0000.0001) %MON dynstat_vvel_min             =  -5.9423759510843E-02
(PID.TID 0000.0001) %MON dynstat_vvel_mean            =   1.2053479108432E-03
(PID.TID 0000.0001) %MON dynstat_vvel_sd              =   5.2716610568999E-03
(PID.TID 0000.0001) %MON dynstat_vvel_del2            =   1.5552159998682E-03
(PID.TID 0000.0001) %MON dynstat_wvel_max             =   1.1534444310757E+00
(PID.TID 0000.0001) %MON dynstat_wvel_min             =  -1.3278287837295E+00
(PID.TID 0000.0001) %MON dynstat_wvel_mean            =  -9.7457879918555E-04
(PID.TID 0000.0001) %MON dynstat_wvel_sd              =   1.4928687955067E-01
(PID.TID 0000.0001) %MON dynstat_wvel_del2            =   7.3883508078939E-02
(PID.TID 0000.0001) %MON dynstat_theta_max            =   2.9664831878877E+01
(PID.TID 0000.0001) %MON dynstat_theta_min            =  -2.5955295787869E+00
(PID.TID 0000.0001) %MON dynstat_theta_mean           =   3.6023453974627E+00
(PID.TID 0000.0001) %MON dynstat_theta_sd             =   4.4013280688690E+00
(PID.TID 0000.0001) %MON dynstat_theta_del2           =   1.4997265830148E-01
(PID.TID 0000.0001) %MON dynstat_salt_max             =   3.7435137772559E+01
(PID.TID 0000.0001) %MON dynstat_salt_min             =   2.9775143547666E+01
(PID.TID 0000.0001) %MON dynstat_salt_mean            =   3.4718001734933E+01
(PID.TID 0000.0001) %MON dynstat_salt_sd              =   2.9441625376935E-01
(PID.TID 0000.0001) %MON dynstat_salt_del2            =   2.6758708238433E-02
(PID.TID 0000.0001) %MON advcfl_uvel_max              =   4.9444188953481E-02
(PID.TID 0000.0001) %MON advcfl_vvel_max              =   2.3090166860869E-02
(PID.TID 0000.0001) %MON advcfl_wvel_max              =   8.2187501650798E-02
(PID.TID 0000.0001) %MON advcfl_W_hf_max              =   8.2187501650798E-02
(PID.TID 0000.0001) %MON pe_b_mean                    =  -8.3977544900615E-03
(PID.TID 0000.0001) %MON ke_max                       =   2.4116842733454E-03
(PID.TID 0000.0001) %MON ke_mean                      =   1.7824362711473E-05
(PID.TID 0000.0001) %MON ke_vol                       =   1.3442141716555E+22
(PID.TID 0000.0001) %MON vort_r_min                   =  -2.2419310176361E-07
(PID.TID 0000.0001) %MON vort_r_max                   =   2.8406279771126E-07
(PID.TID 0000.0001) %MON vort_a_mean                  =  -2.4531016293402E-05
(PID.TID 0000.0001) %MON vort_a_sd                    =   7.3435817992283E-05
(PID.TID 0000.0001) %MON vort_p_mean                  =  -2.9400708520661E-05
(PID.TID 0000.0001) %MON vort_p_sd                    =   1.0337649615555E-04
(PID.TID 0000.0001) %MON surfExpan_theta_mean         =   1.0062359541706E-02
(PID.TID 0000.0001) %MON surfExpan_salt_mean          =  -2.3718670087665E-04
(PID.TID 0000.0001) // =======================================================
(PID.TID 0000.0001) // End MONITOR dynamic field statistics
(PID.TID 0000.0001) // =======================================================
time,SST,SSS,fu,fv,Q,E-P,i0,i1,a,b =   6.9120E+05  5.9629E-01  0.0000E+00 -3.7580E-02 -5.9855E-02  1.3842E+02 -2.0964E-09    12     1  8.0000E-01  2.0000E-01
time,fu0,fu1,fu =   6.9120E+05 -4.5368E-02 -3.5633E-02 -3.7580E-02  8.0000E-01  2.0000E-01
 cg2d: Sum(rhs),rhsMax =  -9.02056207507940E-16  1.72918685651461E+02
(PID.TID 0000.0001)                    cg2d_init_res =    4.68681031464541E-03
(PID.TID 0000.0001)                       cg2d_iters =   113
(PID.TID 0000.0001)                         cg2d_res =    9.05370300080273E-10
(PID.TID 0000.0001) // =======================================================
(PID.TID 0000.0001) // Begin MONITOR dynamic field statistics
(PID.TID 0000.0001) // =======================================================
(PID.TID 0000.0001) %MON time_tsnumber                =                     5
(PID.TID 0000.0001) %MON time_secondsf                =   8.6400000000000E+05
(PID.TID 0000.0001) %MON dynstat_eta_max              =   5.8773428789935E+04
(PID.TID 0000.0001) %MON dynstat_eta_min              =  -9.4342806419492E+04
(PID.TID 0000.0001) %MON dynstat_eta_mean             =  -9.1878112422155E-14
(PID.TID 0000.0001) %MON dynstat_eta_sd               =   4.0653016513268E+04
(PID.TID 0000.0001) %MON dynstat_eta_del2             =   2.3953583514949E+04
(PID.TID 0000.0001) %MON dynstat_uvel_max             =   5.9543736462860E-02
(PID.TID 0000.0001) %MON dynstat_uvel_min             =  -9.1775118917990E-02
(PID.TID 0000.0001) %MON dynstat_uvel_mean            =  -4.7330518031493E-04
(PID.TID 0000.0001) %MON dynstat_uvel_sd              =   3.5781752327585E-03
(PID.TID 0000.0001) %MON dynstat_uvel_del2            =   1.5504532230413E-03
(PID.TID 0000.0001) %MON dynstat_vvel_max             =   6.0695130298508E-02
(PID.TID 0000.0001) %MON dynstat_vvel_min             =  -7.2172497350089E-02
(PID.TID 0000.0001) %MON dynstat_vvel_mean            =   7.4645434758855E-04
(PID.TID 0000.0001) %MON dynstat_vvel_sd              =   6.3128256802677E-03
(PID.TID 0000.0001) %MON dynstat_vvel_del2            =   1.8433814983402E-03
(PID.TID 0000.0001) %MON dynstat_wvel_max             =   1.4020032119645E+00
(PID.TID 0000.0001) %MON dynstat_wvel_min             =  -1.5220719284956E+00
(PID.TID 0000.0001) %MON dynstat_wvel_mean            =  -6.8519359827659E-04
(PID.TID 0000.0001) %MON dynstat_wvel_sd              =   1.7381308374659E-01
(PID.TID 0000.0001) %MON dynstat_wvel_del2            =   8.3626762878628E-02
(PID.TID 0000.0001) %MON dynstat_theta_max            =   2.9661584826092E+01
(PID.TID 0000.0001) %MON dynstat_theta_min            =  -2.5873153223557E+00
(PID.TID 0000.0001) %MON dynstat_theta_mean           =   3.6024982629909E+00
(PID.TID 0000.0001) %MON dynstat_theta_sd             =   4.4013883502429E+00
(PID.TID 0000.0001) %MON dynstat_theta_del2           =   1.4774209040950E-01
(PID.TID 0000.0001) %MON dynstat_salt_max             =   3.7435038902263E+01
(PID.TID 0000.0001) %MON dynstat_salt_min             =   2.9777804453659E+01
(PID.TID 0000.0001) %MON dynstat_salt_mean            =   3.4718001594747E+01
(PID.TID 0000.0001) %MON dynstat_salt_sd              =   2.9441805887817E-01
(PID.TID 0000.0001) %MON dynstat_salt_del2            =   2.6634288478235E-02
(PID.TID 0000.0001) %MON advcfl_uvel_max              =   5.3867626849718E-02
(PID.TID 0000.0001) %MON advcfl_vvel_max              =   2.8043917454854E-02
(PID.TID 0000.0001) %MON advcfl_wvel_max              =   9.5633393238294E-02
(PID.TID 0000.0001) %MON advcfl_W_hf_max              =   9.5633393238294E-02
(PID.TID 0000.0001) %MON pe_b_mean                    =  -8.4403862022165E-03
(PID.TID 0000.0001) %MON ke_max                       =   3.6258455164581E-03
(PID.TID 0000.0001) %MON ke_mean                      =   2.4012661417653E-05
(PID.TID 0000.0001) %MON ke_vol                       =   1.3442141716555E+22
(PID.TID 0000.0001) %MON vort_r_min                   =  -2.5879791326297E-07
(PID.TID 0000.0001) %MON vort_r_max                   =   3.0035023050577E-07
(PID.TID 0000.0001) %MON vort_a_mean                  =  -2.4531016372285E-05
(PID.TID 0000.0001) %MON vort_a_sd                    =   7.3435913020472E-05
(PID.TID 0000.0001) %MON vort_p_mean                  =  -2.9400840474317E-05
(PID.TID 0000.0001) %MON vort_p_sd                    =   1.0337802947332E-04
(PID.TID 0000.0001) %MON surfExpan_theta_mean         =   6.0157020277408E-03
(PID.TID 0000.0001) %MON surfExpan_salt_mean          =  -1.1548440493422E-04
(PID.TID 0000.0001) // =======================================================
(PID.TID 0000.0001) // End MONITOR dynamic field statistics
(PID.TID 0000.0001) // =======================================================
time,SST,SSS,fu,fv,Q,E-P,i0,i1,a,b =   8.6400E+05  7.1702E-01  0.0000E+00 -3.6931E-02 -5.8989E-02  1.2989E+02 -2.0964E-09    12     1  8.6667E-01  1.3333E-01
time,fu0,fu1,fu =   8.6400E+05 -4.5368E-02 -3.5633E-02 -3.6931E-02  8.6667E-01  1.3333E-01
 cg2d: Sum(rhs),rhsMax =   0.00000000000000E+00  1.72928021404951E+02
(PID.TID 0000.0001)                    cg2d_init_res =    3.45139364558879E-03
(PID.TID 0000.0001)                       cg2d_iters =   110
(PID.TID 0000.0001)                         cg2d_res =    9.77918502491663E-10
(PID.TID 0000.0001) // =======================================================
(PID.TID 0000.0001) // Begin MONITOR dynamic field statistics
(PID.TID 0000.0001) // =======================================================
(PID.TID 0000.0001) %MON time_tsnumber                =                     6
(PID.TID 0000.0001) %MON time_secondsf                =   1.0368000000000E+06
(PID.TID 0000.0001) %MON dynstat_eta_max              =   6.2209409104610E+04
(PID.TID 0000.0001) %MON dynstat_eta_min              =  -9.5072852017383E+04
(PID.TID 0000.0001) %MON dynstat_eta_mean             =   3.1416586372417E-12
(PID.TID 0000.0001) %MON dynstat_eta_sd               =   4.0801322068913E+04
(PID.TID 0000.0001) %MON dynstat_eta_del2             =   2.3953933516497E+04
(PID.TID 0000.0001) %MON dynstat_uvel_max             =   7.3968233238931E-02
(PID.TID 0000.0001) %MON dynstat_uvel_min             =  -9.0172291387101E-02
(PID.TID 0000.0001) %MON dynstat_uvel_mean            =  -3.8964185560173E-05
(PID.TID 0000.0001) %MON dynstat_uvel_sd              =   4.2141440571451E-03
(PID.TID 0000.0001) %MON dynstat_uvel_del2            =   1.7359279209464E-03
(PID.TID 0000.0001) %MON dynstat_vvel_max             =   6.9116494110804E-02
(PID.TID 0000.0001) %MON dynstat_vvel_min             =  -8.3440815289322E-02
(PID.TID 0000.0001) %MON dynstat_vvel_mean            =   2.7833871245529E-04
(PID.TID 0000.0001) %MON dynstat_vvel_sd              =   7.2913719397502E-03
(PID.TID 0000.0001) %MON dynstat_vvel_del2            =   2.1078935086268E-03
(PID.TID 0000.0001) %MON dynstat_wvel_max             =   1.6176784935534E+00
(PID.TID 0000.0001) %MON dynstat_wvel_min             =  -1.6533396912405E+00
(PID.TID 0000.0001) %MON dynstat_wvel_mean            =  -3.9198024004183E-04
(PID.TID 0000.0001) %MON dynstat_wvel_sd              =   1.9514667911395E-01
(PID.TID 0000.0001) %MON dynstat_wvel_del2            =   9.1433753547270E-02
(PID.TID 0000.0001) %MON dynstat_theta_max            =   2.9706282897749E+01
(PID.TID 0000.0001) %MON dynstat_theta_min            =  -2.5961459502976E+00
(PID.TID 0000.0001) %MON dynstat_theta_mean           =   3.6026389662625E+00
(PID.TID 0000.0001) %MON dynstat_theta_sd             =   4.4014686043614E+00
(PID.TID 0000.0001) %MON dynstat_theta_del2           =   1.4563318568555E-01
(PID.TID 0000.0001) %MON dynstat_salt_max             =   3.7434857875570E+01
(PID.TID 0000.0001) %MON dynstat_salt_min             =   2.9778878944149E+01
(PID.TID 0000.0001) %MON dynstat_salt_mean            =   3.4718001268950E+01
(PID.TID 0000.0001) %MON dynstat_salt_sd              =   2.9441940442650E-01
(PID.TID 0000.0001) %MON dynstat_salt_del2            =   2.6516191993228E-02
(PID.TID 0000.0001) %MON advcfl_uvel_max              =   5.3801157600217E-02
(PID.TID 0000.0001) %MON advcfl_vvel_max              =   3.2422424361856E-02
(PID.TID 0000.0001) %MON advcfl_wvel_max              =   1.0549015570834E-01
(PID.TID 0000.0001) %MON advcfl_W_hf_max              =   1.0549015570834E-01
(PID.TID 0000.0001) %MON pe_b_mean                    =  -8.5184392964386E-03
(PID.TID 0000.0001) %MON ke_max                       =   3.8298313188329E-03
(PID.TID 0000.0001) %MON ke_mean                      =   3.1908181088589E-05
(PID.TID 0000.0001) %MON ke_vol                       =   1.3442141716555E+22
(PID.TID 0000.0001) %MON vort_r_min                   =  -2.9329899731370E-07
(PID.TID 0000.0001) %MON vort_r_max                   =   3.0148725777390E-07
(PID.TID 0000.0001) %MON vort_a_mean                  =  -2.4531016356480E-05
(PID.TID 0000.0001) %MON vort_a_sd                    =   7.3436014131469E-05
(PID.TID 0000.0001) %MON vort_p_mean                  =  -2.9400918690534E-05
(PID.TID 0000.0001) %MON vort_p_sd                    =   1.0337864360063E-04
(PID.TID 0000.0001) %MON surfExpan_theta_mean         =   2.1317183404615E-03
(PID.TID 0000.0001) %MON surfExpan_salt_mean          =  -6.0616715561312E-05
(PID.TID 0000.0001) // =======================================================
(PID.TID 0000.0001) // End MONITOR dynamic field statistics
(PID.TID 0000.0001) // =======================================================
time,SST,SSS,fu,fv,Q,E-P,i0,i1,a,b =   1.0368E+06  8.3775E-01  0.0000E+00 -3.6282E-02 -5.8123E-02  1.2135E+02 -2.0964E-09    12     1  9.3333E-01  6.6667E-02
time,fu0,fu1,fu =   1.0368E+06 -4.5368E-02 -3.5633E-02 -3.6282E-02  9.3333E-01  6.6667E-02
 cg2d: Sum(rhs),rhsMax =  -2.47024622979097E-15  1.72940039371614E+02
(PID.TID 0000.0001)                    cg2d_init_res =    3.58751764029567E-03
(PID.TID 0000.0001)                       cg2d_iters =   110
(PID.TID 0000.0001)                         cg2d_res =    9.59147534937074E-10
(PID.TID 0000.0001) // =======================================================
(PID.TID 0000.0001) // Begin MONITOR dynamic field statistics
(PID.TID 0000.0001) // =======================================================
(PID.TID 0000.0001) %MON time_tsnumber                =                     7
(PID.TID 0000.0001) %MON time_secondsf                =   1.2096000000000E+06
(PID.TID 0000.0001) %MON dynstat_eta_max              =   6.1155547259711E+04
(PID.TID 0000.0001) %MON dynstat_eta_min              =  -9.5059620617522E+04
(PID.TID 0000.0001) %MON dynstat_eta_mean             =   9.3245163560683E-12
(PID.TID 0000.0001) %MON dynstat_eta_sd               =   4.0659437797635E+04
(PID.TID 0000.0001) %MON dynstat_eta_del2             =   2.3955577269916E+04
(PID.TID 0000.0001) %MON dynstat_uvel_max             =   8.8189836937172E-02
(PID.TID 0000.0001) %MON dynstat_uvel_min             =  -7.5475971550684E-02
(PID.TID 0000.0001) %MON dynstat_uvel_mean            =   3.1900301578944E-04
(PID.TID 0000.0001) %MON dynstat_uvel_sd              =   4.9839450387810E-03
(PID.TID 0000.0001) %MON dynstat_uvel_del2            =   1.8998665217006E-03
(PID.TID 0000.0001) %MON dynstat_vvel_max             =   7.6043254878141E-02
(PID.TID 0000.0001) %MON dynstat_vvel_min             =  -9.4863250791963E-02
(PID.TID 0000.0001) %MON dynstat_vvel_mean            =  -9.9610548437656E-05
(PID.TID 0000.0001) %MON dynstat_vvel_sd              =   8.1826612262905E-03
(PID.TID 0000.0001) %MON dynstat_vvel_del2            =   2.3434668458406E-03
(PID.TID 0000.0001) %MON dynstat_wvel_max             =   1.7915102878786E+00
(PID.TID 0000.0001) %MON dynstat_wvel_min             =  -1.7236786130580E+00
(PID.TID 0000.0001) %MON dynstat_wvel_mean            =  -8.5393502424676E-05
(PID.TID 0000.0001) %MON dynstat_wvel_sd              =   2.1276769786606E-01
(PID.TID 0000.0001) %MON dynstat_wvel_del2            =   9.7203108114344E-02
(PID.TID 0000.0001) %MON dynstat_theta_max            =   2.9752525179057E+01
(PID.TID 0000.0001) %MON dynstat_theta_min            =  -2.6766339727772E+00
(PID.TID 0000.0001) %MON dynstat_theta_mean           =   3.6027764357490E+00
(PID.TID 0000.0001) %MON dynstat_theta_sd             =   4.4015744414526E+00
(PID.TID 0000.0001) %MON dynstat_theta_del2           =   1.4394313834691E-01
(PID.TID 0000.0001) %MON dynstat_salt_max             =   3.7434632087701E+01
(PID.TID 0000.0001) %MON dynstat_salt_min             =   2.9778945279620E+01
(PID.TID 0000.0001) %MON dynstat_salt_mean            =   3.4718001120682E+01
(PID.TID 0000.0001) %MON dynstat_salt_sd              =   2.9442001374999E-01
(PID.TID 0000.0001) %MON dynstat_salt_del2            =   2.6437662472673E-02
(PID.TID 0000.0001) %MON advcfl_uvel_max              =   5.8299764599842E-02
(PID.TID 0000.0001) %MON advcfl_vvel_max              =   3.6860816410500E-02
(PID.TID 0000.0001) %MON advcfl_wvel_max              =   1.1178102756307E-01
(PID.TID 0000.0001) %MON advcfl_W_hf_max              =   1.1178102756307E-01
(PID.TID 0000.0001) %MON pe_b_mean                    =  -8.6507613866757E-03
(PID.TID 0000.0001) %MON ke_max                       =   5.0511133534859E-03
(PID.TID 0000.0001) %MON ke_mean                      =   4.1311917186645E-05
(PID.TID 0000.0001) %MON ke_vol                       =   1.3442141716555E+22
(PID.TID 0000.0001) %MON vort_r_min                   =  -2.7681521719905E-07
(PID.TID 0000.0001) %MON vort_r_max                   =   2.6892707074412E-07
(PID.TID 0000.0001) %MON vort_a_mean                  =  -2.4531016238591E-05
(PID.TID 0000.0001) %MON vort_a_sd                    =   7.3436098291150E-05
(PID.TID 0000.0001) %MON vort_p_mean                  =  -2.9400918832569E-05
(PID.TID 0000.0001) %MON vort_p_sd                    =   1.0337849785355E-04
(PID.TID 0000.0001) %MON surfExpan_theta_mean         =  -1.6209611267960E-03
(PID.TID 0000.0001) %MON surfExpan_salt_mean          =  -5.5062160681601E-05
(PID.TID 0000.0001) // =======================================================
(PID.TID 0000.0001) // End MONITOR dynamic field statistics
(PID.TID 0000.0001) // =======================================================
 S/R EXTERNAL_FIELDS_LOAD: Reading new data  1209600. 7
(PID.TID 0000.0001)  MDSREADFIELD: opening global file: trenberth_taux.bin
(PID.TID 0000.0001)  MDSREADFIELD: opening global file: trenberth_taux.bin
(PID.TID 0000.0001)  MDSREADFIELD: opening global file: trenberth_tauy.bin
(PID.TID 0000.0001)  MDSREADFIELD: opening global file: trenberth_tauy.bin
(PID.TID 0000.0001)  MDSREADFIELD: opening global file: shi_qnet.bin
(PID.TID 0000.0001)  MDSREADFIELD: opening global file: shi_qnet.bin
(PID.TID 0000.0001)  MDSREADFIELD: opening global file: shi_empmr.bin
(PID.TID 0000.0001)  MDSREADFIELD: opening global file: shi_empmr.bin
(PID.TID 0000.0001)  MDSREADFIELD: opening global file: lev_sst.bin
(PID.TID 0000.0001)  MDSREADFIELD: opening global file: lev_sst.bin
(PID.TID 0000.0001)  MDSREADFIELD: opening global file: deltageopotjmd95.bin
(PID.TID 0000.0001)  MDSREADFIELD: opening global file: deltageopotjmd95.bin
time,SST,SSS,fu,fv,Q,E-P,i0,i1,a,b =   1.2096E+06  9.5848E-01  0.0000E+00 -3.5633E-02 -5.7257E-02  1.1281E+02 -2.0964E-09     1     2  0.0000E+00  1.0000E+00
time,fu0,fu1,fu =   1.2096E+06 -3.5633E-02 -1.4435E-02 -3.5633E-02  0.0000E+00  1.0000E+00
 cg2d: Sum(rhs),rhsMax =  -3.06699110552699E-15  1.72953754987979E+02
(PID.TID 0000.0001)                    cg2d_init_res =    3.93575465743242E-03
(PID.TID 0000.0001)                       cg2d_iters =   109
(PID.TID 0000.0001)                         cg2d_res =    9.43283032459102E-10
(PID.TID 0000.0001) // =======================================================
(PID.TID 0000.0001) // Begin MONITOR dynamic field statistics
(PID.TID 0000.0001) // =======================================================
(PID.TID 0000.0001) %MON time_tsnumber                =                     8
(PID.TID 0000.0001) %MON time_secondsf                =   1.3824000000000E+06
(PID.TID 0000.0001) %MON dynstat_eta_max              =   5.6617514559677E+04
(PID.TID 0000.0001) %MON dynstat_eta_min              =  -9.4430062912016E+04
(PID.TID 0000.0001) %MON dynstat_eta_mean             =   2.2931397075724E-12
(PID.TID 0000.0001) %MON dynstat_eta_sd               =   4.0356617829095E+04
(PID.TID 0000.0001) %MON dynstat_eta_del2             =   2.3957808575857E+04
(PID.TID 0000.0001) %MON dynstat_uvel_max             =   1.0172737089129E-01
(PID.TID 0000.0001) %MON dynstat_uvel_min             =  -6.5374030255621E-02
(PID.TID 0000.0001) %MON dynstat_uvel_mean            =   5.4566233308756E-04
(PID.TID 0000.0001) %MON dynstat_uvel_sd              =   5.8261907463725E-03
(PID.TID 0000.0001) %MON dynstat_uvel_del2            =   2.0399793956143E-03
(PID.TID 0000.0001) %MON dynstat_vvel_max             =   8.1474832907388E-02
(PID.TID 0000.0001) %MON dynstat_vvel_min             =  -1.0475388128951E-01
(PID.TID 0000.0001) %MON dynstat_vvel_mean            =  -3.3374680080239E-04
(PID.TID 0000.0001) %MON dynstat_vvel_sd              =   8.9610190318341E-03
(PID.TID 0000.0001) %MON dynstat_vvel_del2            =   2.5440447862133E-03
(PID.TID 0000.0001) %MON dynstat_wvel_max             =   1.9170802565346E+00
(PID.TID 0000.0001) %MON dynstat_wvel_min             =  -1.7392509116403E+00
(PID.TID 0000.0001) %MON dynstat_wvel_mean            =   1.7826807826770E-04
(PID.TID 0000.0001) %MON dynstat_wvel_sd              =   2.2630218040204E-01
(PID.TID 0000.0001) %MON dynstat_wvel_del2            =   1.0084102217877E-01
(PID.TID 0000.0001) %MON dynstat_theta_max            =   2.9804736284576E+01
(PID.TID 0000.0001) %MON dynstat_theta_min            =  -2.7604594239739E+00
(PID.TID 0000.0001) %MON dynstat_theta_mean           =   3.6029089375575E+00
(PID.TID 0000.0001) %MON dynstat_theta_sd             =   4.4017029756346E+00
(PID.TID 0000.0001) %MON dynstat_theta_del2           =   1.4262763834354E-01
(PID.TID 0000.0001) %MON dynstat_salt_max             =   3.7434376362799E+01
(PID.TID 0000.0001) %MON dynstat_salt_min             =   2.9778314483902E+01
(PID.TID 0000.0001) %MON dynstat_salt_mean            =   3.4718001104348E+01
(PID.TID 0000.0001) %MON dynstat_salt_sd              =   2.9442253807831E-01
(PID.TID 0000.0001) %MON dynstat_salt_del2            =   2.6382091186554E-02
(PID.TID 0000.0001) %MON advcfl_uvel_max              =   6.7249038917578E-02
(PID.TID 0000.0001) %MON advcfl_vvel_max              =   4.0703998168562E-02
(PID.TID 0000.0001) %MON advcfl_wvel_max              =   1.1933299027381E-01
(PID.TID 0000.0001) %MON advcfl_W_hf_max              =   1.1933299027381E-01
(PID.TID 0000.0001) %MON pe_b_mean                    =  -8.7595464766288E-03
(PID.TID 0000.0001) %MON ke_max                       =   6.3510652489060E-03
(PID.TID 0000.0001) %MON ke_mean                      =   5.1550707977968E-05
(PID.TID 0000.0001) %MON ke_vol                       =   1.3442141716555E+22
(PID.TID 0000.0001) %MON vort_r_min                   =  -2.4490678726351E-07
(PID.TID 0000.0001) %MON vort_r_max                   =   2.1345205503147E-07
(PID.TID 0000.0001) %MON vort_a_mean                  =  -2.4531016037795E-05
(PID.TID 0000.0001) %MON vort_a_sd                    =   7.3436152146030E-05
(PID.TID 0000.0001) %MON vort_p_mean                  =  -2.9400853010837E-05
(PID.TID 0000.0001) %MON vort_p_sd                    =   1.0337784306210E-04
(PID.TID 0000.0001) %MON surfExpan_theta_mean         =  -4.3265482061709E-03
(PID.TID 0000.0001) %MON surfExpan_salt_mean          =  -5.6964632903810E-05
(PID.TID 0000.0001) // =======================================================
(PID.TID 0000.0001) // End MONITOR dynamic field statistics
(PID.TID 0000.0001) // =======================================================
time,SST,SSS,fu,fv,Q,E-P,i0,i1,a,b =   1.3824E+06  8.5911E-01  0.0000E+00 -3.4220E-02 -5.4615E-02  1.1534E+02 -2.0964E-09     1     2  6.6667E-02  9.3333E-01
time,fu0,fu1,fu =   1.3824E+06 -3.5633E-02 -1.4435E-02 -3.4220E-02  6.6667E-02  9.3333E-01
 cg2d: Sum(rhs),rhsMax =   1.11022302462516E-15  1.72967906285809E+02
(PID.TID 0000.0001)                    cg2d_init_res =    3.96270518130987E-03
(PID.TID 0000.0001)                       cg2d_iters =   108
(PID.TID 0000.0001)                         cg2d_res =    9.22527526355229E-10
(PID.TID 0000.0001) // =======================================================
(PID.TID 0000.0001) // Begin MONITOR dynamic field statistics
(PID.TID 0000.0001) // =======================================================
(PID.TID 0000.0001) %MON time_tsnumber                =                     9
(PID.TID 0000.0001) %MON time_secondsf                =   1.5552000000000E+06
(PID.TID 0000.0001) %MON dynstat_eta_max              =   5.2268304002971E+04
(PID.TID 0000.0001) %MON dynstat_eta_min              =  -9.3568483385563E+04
(PID.TID 0000.0001) %MON dynstat_eta_mean             =  -8.6510637225138E-12
(PID.TID 0000.0001) %MON dynstat_eta_sd               =   4.0032063945662E+04
(PID.TID 0000.0001) %MON dynstat_eta_del2             =   2.3959225240637E+04
(PID.TID 0000.0001) %MON dynstat_uvel_max             =   1.1448767282219E-01
(PID.TID 0000.0001) %MON dynstat_uvel_min             =  -6.6937232150917E-02
(PID.TID 0000.0001) %MON dynstat_uvel_mean            =   6.2892029299305E-04
(PID.TID 0000.0001) %MON dynstat_uvel_sd              =   6.7070490592126E-03
(PID.TID 0000.0001) %MON dynstat_uvel_del2            =   2.1577253055184E-03
(PID.TID 0000.0001) %MON dynstat_vvel_max             =   8.4913125305578E-02
(PID.TID 0000.0001) %MON dynstat_vvel_min             =  -1.1294488938051E-01
(PID.TID 0000.0001) %MON dynstat_vvel_mean            =  -4.1852408390549E-04
(PID.TID 0000.0001) %MON dynstat_vvel_sd              =   9.6114317823747E-03
(PID.TID 0000.0001) %MON dynstat_vvel_del2            =   2.7078707500121E-03
(PID.TID 0000.0001) %MON dynstat_wvel_max             =   1.9910166065475E+00
(PID.TID 0000.0001) %MON dynstat_wvel_min             =  -1.7055307322331E+00
(PID.TID 0000.0001) %MON dynstat_wvel_mean            =   3.5988323648853E-04
(PID.TID 0000.0001) %MON dynstat_wvel_sd              =   2.3569587512432E-01
(PID.TID 0000.0001) %MON dynstat_wvel_del2            =   1.0250588535761E-01
(PID.TID 0000.0001) %MON dynstat_theta_max            =   2.9845474780651E+01
(PID.TID 0000.0001) %MON dynstat_theta_min            =  -2.8334015778040E+00
(PID.TID 0000.0001) %MON dynstat_theta_mean           =   3.6030340945551E+00
(PID.TID 0000.0001) %MON dynstat_theta_sd             =   4.4018516081011E+00
(PID.TID 0000.0001) %MON dynstat_theta_del2           =   1.4178839696621E-01
(PID.TID 0000.0001) %MON dynstat_salt_max             =   3.7434103472412E+01
(PID.TID 0000.0001) %MON dynstat_salt_min             =   2.9777172508938E+01
(PID.TID 0000.0001) %MON dynstat_salt_mean            =   3.4718001108532E+01
(PID.TID 0000.0001) %MON dynstat_salt_sd              =   2.9442158836479E-01
(PID.TID 0000.0001) %MON dynstat_salt_del2            =   2.6367947340940E-02
(PID.TID 0000.0001) %MON advcfl_uvel_max              =   7.5684507500249E-02
(PID.TID 0000.0001) %MON advcfl_vvel_max              =   4.3886761176773E-02
(PID.TID 0000.0001) %MON advcfl_wvel_max              =   1.2739493494013E-01
(PID.TID 0000.0001) %MON advcfl_W_hf_max              =   1.2739493494013E-01
(PID.TID 0000.0001) %MON pe_b_mean                    =  -8.7721726645649E-03
(PID.TID 0000.0001) %MON ke_max                       =   7.7151372283217E-03
(PID.TID 0000.0001) %MON ke_mean                      =   6.2037973476182E-05
(PID.TID 0000.0001) %MON ke_vol                       =   1.3442141716555E+22
(PID.TID 0000.0001) %MON vort_r_min                   =  -3.2430526581854E-07
(PID.TID 0000.0001) %MON vort_r_max                   =   2.8388635246267E-07
(PID.TID 0000.0001) %MON vort_a_mean                  =  -2.4531015789581E-05
(PID.TID 0000.0001) %MON vort_a_sd                    =   7.3436172394649E-05
(PID.TID 0000.0001) %MON vort_p_mean                  =  -2.9400747424823E-05
(PID.TID 0000.0001) %MON vort_p_sd                    =   1.0337690673248E-04
(PID.TID 0000.0001) %MON surfExpan_theta_mean         =  -5.4609908899953E-03
(PID.TID 0000.0001) %MON surfExpan_salt_mean          =  -5.4001607737741E-05
(PID.TID 0000.0001) // =======================================================
(PID.TID 0000.0001) // End MONITOR dynamic field statistics
(PID.TID 0000.0001) // =======================================================
time,SST,SSS,fu,fv,Q,E-P,i0,i1,a,b =   1.5552E+06  7.5973E-01  0.0000E+00 -3.2807E-02 -5.1974E-02  1.1787E+02 -2.0964E-09     1     2  1.3333E-01  8.6667E-01
time,fu0,fu1,fu =   1.5552E+06 -3.5633E-02 -1.4435E-02 -3.2807E-02  1.3333E-01  8.6667E-01
 cg2d: Sum(rhs),rhsMax =  -4.71844785465692E-16  1.72980800670702E+02
(PID.TID 0000.0001)                    cg2d_init_res =    3.62696444982555E-03
(PID.TID 0000.0001)                       cg2d_iters =   108
(PID.TID 0000.0001)                         cg2d_res =    8.89964540597631E-10
(PID.TID 0000.0001) // =======================================================
(PID.TID 0000.0001) // Begin MONITOR dynamic field statistics
(PID.TID 0000.0001) // =======================================================
(PID.TID 0000.0001) %MON time_tsnumber                =                    10
(PID.TID 0000.0001) %MON time_secondsf                =   1.7280000000000E+06
(PID.TID 0000.0001) %MON dynstat_eta_max              =   5.1372738272098E+04
(PID.TID 0000.0001) %MON dynstat_eta_min              =  -9.2841923912577E+04
(PID.TID 0000.0001) %MON dynstat_eta_mean             =   7.5248928555314E-12
(PID.TID 0000.0001) %MON dynstat_eta_sd               =   3.9769766035521E+04
(PID.TID 0000.0001) %MON dynstat_eta_del2             =   2.3960643170387E+04
(PID.TID 0000.0001) %MON dynstat_uvel_max             =   1.2630603090943E-01
(PID.TID 0000.0001) %MON dynstat_uvel_min             =  -6.6697547809685E-02
(PID.TID 0000.0001) %MON dynstat_uvel_mean            =   5.9161923702317E-04
(PID.TID 0000.0001) %MON dynstat_uvel_sd              =   7.6230662901722E-03
(PID.TID 0000.0001) %MON dynstat_uvel_del2            =   2.2639205742603E-03
(PID.TID 0000.0001) %MON dynstat_vvel_max             =   8.6873279219843E-02
(PID.TID 0000.0001) %MON dynstat_vvel_min             =  -1.1933262089968E-01
(PID.TID 0000.0001) %MON dynstat_vvel_mean            =  -3.8445031055540E-04
(PID.TID 0000.0001) %MON dynstat_vvel_sd              =   1.0130009593586E-02
(PID.TID 0000.0001) %MON dynstat_vvel_del2            =   2.8365043599865E-03
(PID.TID 0000.0001) %MON dynstat_wvel_max             =   2.0207514291905E+00
(PID.TID 0000.0001) %MON dynstat_wvel_min             =  -1.6345195483224E+00
(PID.TID 0000.0001) %MON dynstat_wvel_mean            =   4.4775869790834E-04
(PID.TID 0000.0001) %MON dynstat_wvel_sd              =   2.4123949917369E-01
(PID.TID 0000.0001) %MON dynstat_wvel_del2            =   1.0254506387775E-01
(PID.TID 0000.0001) %MON dynstat_theta_max            =   2.9880790568036E+01
(PID.TID 0000.0001) %MON dynstat_theta_min            =  -2.9013489060235E+00
(PID.TID 0000.0001) %MON dynstat_theta_mean           =   3.6031509461308E+00
(PID.TID 0000.0001) %MON dynstat_theta_sd             =   4.4020171607628E+00
(PID.TID 0000.0001) %MON dynstat_theta_del2           =   1.4123755502911E-01
(PID.TID 0000.0001) %MON dynstat_salt_max             =   3.7433823896848E+01
(PID.TID 0000.0001) %MON dynstat_salt_min             =   2.9775824839502E+01
(PID.TID 0000.0001) %MON dynstat_salt_mean            =   3.4718001099163E+01
(PID.TID 0000.0001) %MON dynstat_salt_sd              =   2.9442386318405E-01
(PID.TID 0000.0001) %MON dynstat_salt_del2            =   2.6379631475802E-02
(PID.TID 0000.0001) %MON advcfl_uvel_max              =   8.3497284100959E-02
(PID.TID 0000.0001) %MON advcfl_vvel_max              =   4.6368828751328E-02
(PID.TID 0000.0001) %MON advcfl_wvel_max              =   1.3317599447943E-01
(PID.TID 0000.0001) %MON advcfl_W_hf_max              =   1.3317599447943E-01
(PID.TID 0000.0001) %MON pe_b_mean                    =  -8.6739271028188E-03
(PID.TID 0000.0001) %MON ke_max                       =   9.1174084206140E-03
(PID.TID 0000.0001) %MON ke_mean                      =   7.2538708803482E-05
(PID.TID 0000.0001) %MON ke_vol                       =   1.3442141716555E+22
(PID.TID 0000.0001) %MON vort_r_min                   =  -4.0597716626397E-07
(PID.TID 0000.0001) %MON vort_r_max                   =   3.6468893510484E-07
(PID.TID 0000.0001) %MON vort_a_mean                  =  -2.4531015535714E-05
(PID.TID 0000.0001) %MON vort_a_sd                    =   7.3436164012589E-05
(PID.TID 0000.0001) %MON vort_p_mean                  =  -2.9400633754471E-05
(PID.TID 0000.0001) %MON vort_p_sd                    =   1.0337595053036E-04
(PID.TID 0000.0001) %MON surfExpan_theta_mean         =  -5.1197733321353E-03
(PID.TID 0000.0001) %MON surfExpan_salt_mean          =  -5.2476317199090E-05
(PID.TID 0000.0001) // =======================================================
(PID.TID 0000.0001) // End MONITOR dynamic field statistics
(PID.TID 0000.0001) // =======================================================
time,SST,SSS,fu,fv,Q,E-P,i0,i1,a,b =   1.7280E+06  6.6036E-01  0.0000E+00 -3.1393E-02 -4.9332E-02  1.2039E+02 -2.0964E-09     1     2  2.0000E-01  8.0000E-01
time,fu0,fu1,fu =   1.7280E+06 -3.5633E-02 -1.4435E-02 -3.1393E-02  2.0000E-01  8.0000E-01
 cg2d: Sum(rhs),rhsMax =  -1.69309011255336E-15  1.72990806708660E+02
(PID.TID 0000.0001)                    cg2d_init_res =    3.12693632593083E-03
(PID.TID 0000.0001)                       cg2d_iters =   107
(PID.TID 0000.0001)                         cg2d_res =    9.45641398074866E-10
(PID.TID 0000.0001) // =======================================================
(PID.TID 0000.0001) // Begin MONITOR dynamic field statistics
(PID.TID 0000.0001) // =======================================================
(PID.TID 0000.0001) %MON time_tsnumber                =                    11
(PID.TID 0000.0001) %MON time_secondsf                =   1.9008000000000E+06
(PID.TID 0000.0001) %MON dynstat_eta_max              =   4.7513739743259E+04
(PID.TID 0000.0001) %MON dynstat_eta_min              =  -9.2588065195538E+04
(PID.TID 0000.0001) %MON dynstat_eta_mean             =  -3.9731576888031E-12
(PID.TID 0000.0001) %MON dynstat_eta_sd               =   3.9595096950574E+04
(PID.TID 0000.0001) %MON dynstat_eta_del2             =   2.3961818294951E+04
(PID.TID 0000.0001) %MON dynstat_uvel_max             =   1.3711742234075E-01
(PID.TID 0000.0001) %MON dynstat_uvel_min             =  -6.4754327074219E-02
(PID.TID 0000.0001) %MON dynstat_uvel_mean            =   4.7896958642303E-04
(PID.TID 0000.0001) %MON dynstat_uvel_sd              =   8.5766912754461E-03
(PID.TID 0000.0001) %MON dynstat_uvel_del2            =   2.3669394312876E-03
(PID.TID 0000.0001) %MON dynstat_vvel_max             =   8.9472864377915E-02
(PID.TID 0000.0001) %MON dynstat_vvel_min             =  -1.2387115870718E-01
(PID.TID 0000.0001) %MON dynstat_vvel_mean            =  -2.8045047261344E-04
(PID.TID 0000.0001) %MON dynstat_vvel_sd              =   1.0519087505316E-02
(PID.TID 0000.0001) %MON dynstat_vvel_del2            =   2.9318056326194E-03
(PID.TID 0000.0001) %MON dynstat_wvel_max             =   2.1374447217003E+00
(PID.TID 0000.0001) %MON dynstat_wvel_min             =  -1.5548489680637E+00
(PID.TID 0000.0001) %MON dynstat_wvel_mean            =   4.5215439502489E-04
(PID.TID 0000.0001) %MON dynstat_wvel_sd              =   2.4343836618349E-01
(PID.TID 0000.0001) %MON dynstat_wvel_del2            =   1.0143198538846E-01
(PID.TID 0000.0001) %MON dynstat_theta_max            =   2.9910876643037E+01
(PID.TID 0000.0001) %MON dynstat_theta_min            =  -2.9643081178279E+00
(PID.TID 0000.0001) %MON dynstat_theta_mean           =   3.6032596462686E+00
(PID.TID 0000.0001) %MON dynstat_theta_sd             =   4.4021927271561E+00
(PID.TID 0000.0001) %MON dynstat_theta_del2           =   1.4115161655774E-01
(PID.TID 0000.0001) %MON dynstat_salt_max             =   3.7433555552766E+01
(PID.TID 0000.0001) %MON dynstat_salt_min             =   2.9774406627111E+01
(PID.TID 0000.0001) %MON dynstat_salt_mean            =   3.4718001095458E+01
(PID.TID 0000.0001) %MON dynstat_salt_sd              =   2.9442147470366E-01
(PID.TID 0000.0001) %MON dynstat_salt_del2            =   2.6410165917751E-02
(PID.TID 0000.0001) %MON advcfl_uvel_max              =   9.0644384008760E-02
(PID.TID 0000.0001) %MON advcfl_vvel_max              =   4.8132358964533E-02
(PID.TID 0000.0001) %MON advcfl_wvel_max              =   1.3649302428434E-01
(PID.TID 0000.0001) %MON advcfl_W_hf_max              =   1.3649302428434E-01
(PID.TID 0000.0001) %MON pe_b_mean                    =  -8.5000508451637E-03
(PID.TID 0000.0001) %MON ke_max                       =   1.0551185535181E-02
(PID.TID 0000.0001) %MON ke_mean                      =   8.3050547139053E-05
(PID.TID 0000.0001) %MON ke_vol                       =   1.3442141716555E+22
(PID.TID 0000.0001) %MON vort_r_min                   =  -4.6845104388510E-07
(PID.TID 0000.0001) %MON vort_r_max                   =   4.2580599901870E-07
(PID.TID 0000.0001) %MON vort_a_mean                  =  -2.4531015314924E-05
(PID.TID 0000.0001) %MON vort_a_sd                    =   7.3436137276270E-05
(PID.TID 0000.0001) %MON vort_p_mean                  =  -2.9400538993499E-05
(PID.TID 0000.0001) %MON vort_p_sd                    =   1.0337519794243E-04
(PID.TID 0000.0001) %MON surfExpan_theta_mean         =  -3.7970450609494E-03
(PID.TID 0000.0001) %MON surfExpan_salt_mean          =  -5.6064629299098E-05
(PID.TID 0000.0001) // =======================================================
(PID.TID 0000.0001) // End MONITOR dynamic field statistics
(PID.TID 0000.0001) // =======================================================
time,SST,SSS,fu,fv,Q,E-P,i0,i1,a,b =   1.9008E+06  5.6099E-01  0.0000E+00 -2.9980E-02 -4.6691E-02  1.2292E+02 -2.0964E-09     1     2  2.6667E-01  7.3333E-01
time,fu0,fu1,fu =   1.9008E+06 -3.5633E-02 -1.4435E-02 -2.9980E-02  2.6667E-01  7.3333E-01
 cg2d: Sum(rhs),rhsMax =  -1.95676808090184E-15  1.72997154602894E+02
(PID.TID 0000.0001)                    cg2d_init_res =    2.73182875781094E-03
(PID.TID 0000.0001)                       cg2d_iters =   102
(PID.TID 0000.0001)                         cg2d_res =    9.22503936468164E-10
(PID.TID 0000.0001) // =======================================================
(PID.TID 0000.0001) // Begin MONITOR dynamic field statistics
(PID.TID 0000.0001) // =======================================================
(PID.TID 0000.0001) %MON time_tsnumber                =                    12
(PID.TID 0000.0001) %MON time_secondsf                =   2.0736000000000E+06
(PID.TID 0000.0001) %MON dynstat_eta_max              =   4.2957375098558E+04
(PID.TID 0000.0001) %MON dynstat_eta_min              =  -9.2540142545818E+04
(PID.TID 0000.0001) %MON dynstat_eta_mean             =   2.2429513048771E-12
(PID.TID 0000.0001) %MON dynstat_eta_sd               =   3.9503389597956E+04
(PID.TID 0000.0001) %MON dynstat_eta_del2             =   2.3962703336965E+04
(PID.TID 0000.0001) %MON dynstat_uvel_max             =   1.4843376993281E-01
(PID.TID 0000.0001) %MON dynstat_uvel_min             =  -6.9027728544927E-02
(PID.TID 0000.0001) %MON dynstat_uvel_mean            =   3.4368353449675E-04
(PID.TID 0000.0001) %MON dynstat_uvel_sd              =   9.5587069147112E-03
(PID.TID 0000.0001) %MON dynstat_uvel_del2            =   2.4639827050166E-03
(PID.TID 0000.0001) %MON dynstat_vvel_max             =   9.0793661507793E-02
(PID.TID 0000.0001) %MON dynstat_vvel_min             =  -1.2719203333503E-01
(PID.TID 0000.0001) %MON dynstat_vvel_mean            =  -1.5660025961602E-04
(PID.TID 0000.0001) %MON dynstat_vvel_sd              =   1.0783416681635E-02
(PID.TID 0000.0001) %MON dynstat_vvel_del2            =   2.9991184102497E-03
(PID.TID 0000.0001) %MON dynstat_wvel_max             =   2.2828403636846E+00
(PID.TID 0000.0001) %MON dynstat_wvel_min             =  -1.4727510154869E+00
(PID.TID 0000.0001) %MON dynstat_wvel_mean            =   3.9594038377539E-04
(PID.TID 0000.0001) %MON dynstat_wvel_sd              =   2.4285440822658E-01
(PID.TID 0000.0001) %MON dynstat_wvel_del2            =   9.9697378120111E-02
(PID.TID 0000.0001) %MON dynstat_theta_max            =   2.9935979696708E+01
(PID.TID 0000.0001) %MON dynstat_theta_min            =  -3.0223750554588E+00
(PID.TID 0000.0001) %MON dynstat_theta_mean           =   3.6033618821423E+00
(PID.TID 0000.0001) %MON dynstat_theta_sd             =   4.4023807984278E+00
(PID.TID 0000.0001) %MON dynstat_theta_del2           =   1.4124664194298E-01
(PID.TID 0000.0001) %MON dynstat_salt_max             =   3.7433320138559E+01
(PID.TID 0000.0001) %MON dynstat_salt_min             =   2.9773042501367E+01
(PID.TID 0000.0001) %MON dynstat_salt_mean            =   3.4718001105605E+01
(PID.TID 0000.0001) %MON dynstat_salt_sd              =   2.9441709983099E-01
(PID.TID 0000.0001) %MON dynstat_salt_del2            =   2.6441632429648E-02
(PID.TID 0000.0001) %MON advcfl_uvel_max              =   9.7107977321008E-02
(PID.TID 0000.0001) %MON advcfl_vvel_max              =   4.9422744324063E-02
(PID.TID 0000.0001) %MON advcfl_wvel_max              =   1.3719975125340E-01
(PID.TID 0000.0001) %MON advcfl_W_hf_max              =   1.3719975125340E-01
(PID.TID 0000.0001) %MON pe_b_mean                    =  -8.2992363434698E-03
(PID.TID 0000.0001) %MON ke_max                       =   1.1974233283065E-02
(PID.TID 0000.0001) %MON ke_mean                      =   9.3565124459475E-05
(PID.TID 0000.0001) %MON ke_vol                       =   1.3442141716555E+22
(PID.TID 0000.0001) %MON vort_r_min                   =  -5.0685699353163E-07
(PID.TID 0000.0001) %MON vort_r_max                   =   4.6224508215647E-07
(PID.TID 0000.0001) %MON vort_a_mean                  =  -2.4531015157075E-05
(PID.TID 0000.0001) %MON vort_a_sd                    =   7.3436104282730E-05
(PID.TID 0000.0001) %MON vort_p_mean                  =  -2.9400476001119E-05
(PID.TID 0000.0001) %MON vort_p_sd                    =   1.0337477620819E-04
(PID.TID 0000.0001) %MON surfExpan_theta_mean         =  -2.1023864795489E-03
(PID.TID 0000.0001) %MON surfExpan_salt_mean          =  -6.1239417046022E-05
(PID.TID 0000.0001) // =======================================================
(PID.TID 0000.0001) // End MONITOR dynamic field statistics
(PID.TID 0000.0001) // =======================================================
time,SST,SSS,fu,fv,Q,E-P,i0,i1,a,b =   2.0736E+06  4.6162E-01  0.0000E+00 -2.8567E-02 -4.4050E-02  1.2545E+02 -2.0964E-09     1     2  3.3333E-01  6.6667E-01
time,fu0,fu1,fu =   2.0736E+06 -3.5633E-02 -1.4435E-02 -2.8567E-02  3.3333E-01  6.6667E-01
 cg2d: Sum(rhs),rhsMax =  -1.56819002228303E-15  1.73000010639310E+02
(PID.TID 0000.0001)                    cg2d_init_res =    2.58836926127092E-03
(PID.TID 0000.0001)                       cg2d_iters =   101
(PID.TID 0000.0001)                         cg2d_res =    9.37845017051801E-10
(PID.TID 0000.0001) // =======================================================
(PID.TID 0000.0001) // Begin MONITOR dynamic field statistics
(PID.TID 0000.0001) // =======================================================
(PID.TID 0000.0001) %MON time_tsnumber                =                    13
(PID.TID 0000.0001) %MON time_secondsf                =   2.2464000000000E+06
(PID.TID 0000.0001) %MON dynstat_eta_max              =   4.2948340427306E+04
(PID.TID 0000.0001) %MON dynstat_eta_min              =  -9.2455782052641E+04
(PID.TID 0000.0001) %MON dynstat_eta_mean             =  -5.8802759822436E-12
(PID.TID 0000.0001) %MON dynstat_eta_sd               =   3.9482745959336E+04
(PID.TID 0000.0001) %MON dynstat_eta_del2             =   2.3963388006447E+04
(PID.TID 0000.0001) %MON dynstat_uvel_max             =   1.5902780883536E-01
(PID.TID 0000.0001) %MON dynstat_uvel_min             =  -7.3961501052757E-02
(PID.TID 0000.0001) %MON dynstat_uvel_mean            =   2.3222278224606E-04
(PID.TID 0000.0001) %MON dynstat_uvel_sd              =   1.0547398758373E-02
(PID.TID 0000.0001) %MON dynstat_uvel_del2            =   2.5592693827930E-03
(PID.TID 0000.0001) %MON dynstat_vvel_max             =   9.1003856215167E-02
(PID.TID 0000.0001) %MON dynstat_vvel_min             =  -1.3058526260473E-01
(PID.TID 0000.0001) %MON dynstat_vvel_mean            =  -5.1752341728549E-05
(PID.TID 0000.0001) %MON dynstat_vvel_sd              =   1.0929001104791E-02
(PID.TID 0000.0001) %MON dynstat_vvel_del2            =   3.0421866865258E-03
(PID.TID 0000.0001) %MON dynstat_wvel_max             =   2.4171444748854E+00
(PID.TID 0000.0001) %MON dynstat_wvel_min             =  -1.4411326862353E+00
(PID.TID 0000.0001) %MON dynstat_wvel_mean            =   3.0735617910321E-04
(PID.TID 0000.0001) %MON dynstat_wvel_sd              =   2.4000459787958E-01
(PID.TID 0000.0001) %MON dynstat_wvel_del2            =   9.7676201863280E-02
(PID.TID 0000.0001) %MON dynstat_theta_max            =   2.9956271897393E+01
(PID.TID 0000.0001) %MON dynstat_theta_min            =  -3.0756285164778E+00
(PID.TID 0000.0001) %MON dynstat_theta_mean           =   3.6034590870229E+00
(PID.TID 0000.0001) %MON dynstat_theta_sd             =   4.4025855155067E+00
(PID.TID 0000.0001) %MON dynstat_theta_del2           =   1.4163298955298E-01
(PID.TID 0000.0001) %MON dynstat_salt_max             =   3.7433142404383E+01
(PID.TID 0000.0001) %MON dynstat_salt_min             =   2.9771788619521E+01
(PID.TID 0000.0001) %MON dynstat_salt_mean            =   3.4718001120255E+01
(PID.TID 0000.0001) %MON dynstat_salt_sd              =   2.9441789102481E-01
(PID.TID 0000.0001) %MON dynstat_salt_del2            =   2.6500694611509E-02
(PID.TID 0000.0001) %MON advcfl_uvel_max              =   1.0286601788527E-01
(PID.TID 0000.0001) %MON advcfl_vvel_max              =   5.0741244376559E-02
(PID.TID 0000.0001) %MON advcfl_wvel_max              =   1.3519869381872E-01
(PID.TID 0000.0001) %MON advcfl_W_hf_max              =   1.3519869381872E-01
(PID.TID 0000.0001) %MON pe_b_mean                    =  -8.1066591595374E-03
(PID.TID 0000.0001) %MON ke_max                       =   1.3355692198245E-02
(PID.TID 0000.0001) %MON ke_mean                      =   1.0394546978915E-04
(PID.TID 0000.0001) %MON ke_vol                       =   1.3442141716555E+22
(PID.TID 0000.0001) %MON vort_r_min                   =  -5.2049879877070E-07
(PID.TID 0000.0001) %MON vort_r_max                   =   4.7336685582374E-07
(PID.TID 0000.0001) %MON vort_a_mean                  =  -2.4531015079028E-05
(PID.TID 0000.0001) %MON vort_a_sd                    =   7.3436075752450E-05
(PID.TID 0000.0001) %MON vort_p_mean                  =  -2.9400449433596E-05
(PID.TID 0000.0001) %MON vort_p_sd                    =   1.0337471428656E-04
(PID.TID 0000.0001) %MON surfExpan_theta_mean         =  -5.6026012925525E-04
(PID.TID 0000.0001) %MON surfExpan_salt_mean          =  -6.0358530014466E-05
(PID.TID 0000.0001) // =======================================================
(PID.TID 0000.0001) // End MONITOR dynamic field statistics
(PID.TID 0000.0001) // =======================================================
time,SST,SSS,fu,fv,Q,E-P,i0,i1,a,b =   2.2464E+06  3.6224E-01  0.0000E+00 -2.7154E-02 -4.1408E-02  1.2798E+02 -2.0964E-09     1     2  4.0000E-01  6.0000E-01
time,fu0,fu1,fu =   2.2464E+06 -3.5633E-02 -1.4435E-02 -2.7154E-02  4.0000E-01  6.0000E-01
 cg2d: Sum(rhs),rhsMax =   1.76247905159244E-15  1.73000150464259E+02
(PID.TID 0000.0001)                    cg2d_init_res =    2.58971235088484E-03
(PID.TID 0000.0001)                       cg2d_iters =   107
(PID.TID 0000.0001)                         cg2d_res =    8.03619644982363E-10
(PID.TID 0000.0001) // =======================================================
(PID.TID 0000.0001) // Begin MONITOR dynamic field statistics
(PID.TID 0000.0001) // =======================================================
(PID.TID 0000.0001) %MON time_tsnumber                =                    14
(PID.TID 0000.0001) %MON time_secondsf                =   2.4192000000000E+06
(PID.TID 0000.0001) %MON dynstat_eta_max              =   4.3130163473111E+04
(PID.TID 0000.0001) %MON dynstat_eta_min              =  -9.2543606349963E+04
(PID.TID 0000.0001) %MON dynstat_eta_mean             =  -6.2038623727188E-12
(PID.TID 0000.0001) %MON dynstat_eta_sd               =   3.9518068126725E+04
(PID.TID 0000.0001) %MON dynstat_eta_del2             =   2.3964255773912E+04
(PID.TID 0000.0001) %MON dynstat_uvel_max             =   1.6830304585737E-01
(PID.TID 0000.0001) %MON dynstat_uvel_min             =  -7.9853832849520E-02
(PID.TID 0000.0001) %MON dynstat_uvel_mean            =   1.7504257782322E-04
(PID.TID 0000.0001) %MON dynstat_uvel_sd              =   1.1517398651184E-02
(PID.TID 0000.0001) %MON dynstat_uvel_del2            =   2.6532815428537E-03
(PID.TID 0000.0001) %MON dynstat_vvel_max             =   9.0201401373263E-02
(PID.TID 0000.0001) %MON dynstat_vvel_min             =  -1.3247689008560E-01
(PID.TID 0000.0001) %MON dynstat_vvel_mean            =   1.2558115471396E-05
(PID.TID 0000.0001) %MON dynstat_vvel_sd              =   1.0964164707583E-02
(PID.TID 0000.0001) %MON dynstat_vvel_del2            =   3.0637084892377E-03
(PID.TID 0000.0001) %MON dynstat_wvel_max             =   2.5417069616273E+00
(PID.TID 0000.0001) %MON dynstat_wvel_min             =  -1.5100963572504E+00
(PID.TID 0000.0001) %MON dynstat_wvel_mean            =   2.1249082015211E-04
(PID.TID 0000.0001) %MON dynstat_wvel_sd              =   2.3537484454549E-01
(PID.TID 0000.0001) %MON dynstat_wvel_del2            =   9.5583509220865E-02
(PID.TID 0000.0001) %MON dynstat_theta_max            =   2.9971857892290E+01
(PID.TID 0000.0001) %MON dynstat_theta_min            =  -3.1241396002028E+00
(PID.TID 0000.0001) %MON dynstat_theta_mean           =   3.6035544691786E+00
(PID.TID 0000.0001) %MON dynstat_theta_sd             =   4.4027941440261E+00
(PID.TID 0000.0001) %MON dynstat_theta_del2           =   1.4211884526714E-01
(PID.TID 0000.0001) %MON dynstat_salt_max             =   3.7433047498344E+01
(PID.TID 0000.0001) %MON dynstat_salt_min             =   2.9770641036644E+01
(PID.TID 0000.0001) %MON dynstat_salt_mean            =   3.4718001118987E+01
(PID.TID 0000.0001) %MON dynstat_salt_sd              =   2.9440980335523E-01
(PID.TID 0000.0001) %MON dynstat_salt_del2            =   2.6562663679549E-02
(PID.TID 0000.0001) %MON advcfl_uvel_max              =   1.0788275266257E-01
(PID.TID 0000.0001) %MON advcfl_vvel_max              =   5.1476270139510E-02
(PID.TID 0000.0001) %MON advcfl_wvel_max              =   1.3045314080658E-01
(PID.TID 0000.0001) %MON advcfl_W_hf_max              =   1.3045314080658E-01
(PID.TID 0000.0001) %MON pe_b_mean                    =  -7.9405779680980E-03
(PID.TID 0000.0001) %MON ke_max                       =   1.4667009164950E-02
(PID.TID 0000.0001) %MON ke_mean                      =   1.1397125015088E-04
(PID.TID 0000.0001) %MON ke_vol                       =   1.3442141716555E+22
(PID.TID 0000.0001) %MON vort_r_min                   =  -5.1258018252925E-07
(PID.TID 0000.0001) %MON vort_r_max                   =   4.6624569730454E-07
(PID.TID 0000.0001) %MON vort_a_mean                  =  -2.4531015083494E-05
(PID.TID 0000.0001) %MON vort_a_sd                    =   7.3436058777075E-05
(PID.TID 0000.0001) %MON vort_p_mean                  =  -2.9400455784770E-05
(PID.TID 0000.0001) %MON vort_p_sd                    =   1.0337495417178E-04
(PID.TID 0000.0001) %MON surfExpan_theta_mean         =   4.9385547811770E-04
(PID.TID 0000.0001) %MON surfExpan_salt_mean          =  -4.7717268888761E-05
(PID.TID 0000.0001) // =======================================================
(PID.TID 0000.0001) // End MONITOR dynamic field statistics
(PID.TID 0000.0001) // =======================================================
time,SST,SSS,fu,fv,Q,E-P,i0,i1,a,b =   2.4192E+06  2.6287E-01  0.0000E+00 -2.5740E-02 -3.8767E-02  1.3050E+02 -2.0964E-09     1     2  4.6667E-01  5.3333E-01
time,fu0,fu1,fu =   2.4192E+06 -3.5633E-02 -1.4435E-02 -2.5740E-02  4.6667E-01  5.3333E-01
 cg2d: Sum(rhs),rhsMax =   2.70616862252382E-15  1.72998547201264E+02
(PID.TID 0000.0001)                    cg2d_init_res =    2.55874251667664E-03
(PID.TID 0000.0001)                       cg2d_iters =   106
(PID.TID 0000.0001)                         cg2d_res =    9.61969247826708E-10
(PID.TID 0000.0001) // =======================================================
(PID.TID 0000.0001) // Begin MONITOR dynamic field statistics
(PID.TID 0000.0001) // =======================================================
(PID.TID 0000.0001) %MON time_tsnumber                =                    15
(PID.TID 0000.0001) %MON time_secondsf                =   2.5920000000000E+06
(PID.TID 0000.0001) %MON dynstat_eta_max              =   4.4272746396074E+04
(PID.TID 0000.0001) %MON dynstat_eta_min              =  -9.2733331644209E+04
(PID.TID 0000.0001) %MON dynstat_eta_mean             =   8.5328295979505E-12
(PID.TID 0000.0001) %MON dynstat_eta_sd               =   3.9586691501008E+04
(PID.TID 0000.0001) %MON dynstat_eta_del2             =   2.3965700270042E+04
(PID.TID 0000.0001) %MON dynstat_uvel_max             =   1.7615302498542E-01
(PID.TID 0000.0001) %MON dynstat_uvel_min             =  -8.4389753396772E-02
(PID.TID 0000.0001) %MON dynstat_uvel_mean            =   1.8262574506499E-04
(PID.TID 0000.0001) %MON dynstat_uvel_sd              =   1.2447549758105E-02
(PID.TID 0000.0001) %MON dynstat_uvel_del2            =   2.7472293308110E-03
(PID.TID 0000.0001) %MON dynstat_vvel_max             =   8.8498064408892E-02
(PID.TID 0000.0001) %MON dynstat_vvel_min             =  -1.3287236564645E-01
(PID.TID 0000.0001) %MON dynstat_vvel_mean            =   3.2384844906555E-05
(PID.TID 0000.0001) %MON dynstat_vvel_sd              =   1.0901195518851E-02
(PID.TID 0000.0001) %MON dynstat_vvel_del2            =   3.0698344248221E-03
(PID.TID 0000.0001) %MON dynstat_wvel_max             =   2.6569044764186E+00
(PID.TID 0000.0001) %MON dynstat_wvel_min             =  -1.5547931985794E+00
(PID.TID 0000.0001) %MON dynstat_wvel_mean            =   1.2979504894065E-04
(PID.TID 0000.0001) %MON dynstat_wvel_sd              =   2.2947306123327E-01
(PID.TID 0000.0001) %MON dynstat_wvel_del2            =   9.3649216860561E-02
(PID.TID 0000.0001) %MON dynstat_theta_max            =   2.9982785580698E+01
(PID.TID 0000.0001) %MON dynstat_theta_min            =  -3.1679769250467E+00
(PID.TID 0000.0001) %MON dynstat_theta_mean           =   3.6036486896854E+00
(PID.TID 0000.0001) %MON dynstat_theta_sd             =   4.4030320640187E+00
(PID.TID 0000.0001) %MON dynstat_theta_del2           =   1.4261321525145E-01
(PID.TID 0000.0001) %MON dynstat_salt_max             =   3.7433058134275E+01
(PID.TID 0000.0001) %MON dynstat_salt_min             =   2.9769554656678E+01
(PID.TID 0000.0001) %MON dynstat_salt_mean            =   3.4718001087010E+01
(PID.TID 0000.0001) %MON dynstat_salt_sd              =   2.9440921061610E-01
(PID.TID 0000.0001) %MON dynstat_salt_del2            =   2.6605029963573E-02
(PID.TID 0000.0001) %MON advcfl_uvel_max              =   1.1210750912782E-01
(PID.TID 0000.0001) %MON advcfl_vvel_max              =   5.1629939257126E-02
(PID.TID 0000.0001) %MON advcfl_wvel_max              =   1.2299767521399E-01
(PID.TID 0000.0001) %MON advcfl_W_hf_max              =   1.2299767521399E-01
(PID.TID 0000.0001) %MON pe_b_mean                    =  -7.8116846304583E-03
(PID.TID 0000.0001) %MON ke_max                       =   1.5884790988251E-02
(PID.TID 0000.0001) %MON ke_mean                      =   1.2345018060794E-04
(PID.TID 0000.0001) %MON ke_vol                       =   1.3442141716555E+22
(PID.TID 0000.0001) %MON vort_r_min                   =  -4.8909103005775E-07
(PID.TID 0000.0001) %MON vort_r_max                   =   4.9988509207821E-07
(PID.TID 0000.0001) %MON vort_a_mean                  =  -2.4531015159430E-05
(PID.TID 0000.0001) %MON vort_a_sd                    =   7.3436055917735E-05
(PID.TID 0000.0001) %MON vort_p_mean                  =  -2.9400485710286E-05
(PID.TID 0000.0001) %MON vort_p_sd                    =   1.0337537890263E-04
(PID.TID 0000.0001) %MON surfExpan_theta_mean         =   9.4388735601300E-04
(PID.TID 0000.0001) %MON surfExpan_salt_mean          =  -2.2212068670611E-05
(PID.TID 0000.0001) // =======================================================
(PID.TID 0000.0001) // End MONITOR dynamic field statistics
(PID.TID 0000.0001) // =======================================================
time,SST,SSS,fu,fv,Q,E-P,i0,i1,a,b =   2.5920E+06  1.6350E-01  0.0000E+00 -2.4327E-02 -3.6125E-02  1.3303E+02 -2.0964E-09     1     2  5.3333E-01  4.6667E-01
time,fu0,fu1,fu =   2.5920E+06 -3.5633E-02 -1.4435E-02 -2.4327E-02  5.3333E-01  4.6667E-01
 cg2d: Sum(rhs),rhsMax =   3.51108031537706E-15  1.72996021956776E+02
(PID.TID 0000.0001)                    cg2d_init_res =    2.45006137697742E-03
(PID.TID 0000.0001)                       cg2d_iters =   105
(PID.TID 0000.0001)                         cg2d_res =    9.73990819845573E-10
(PID.TID 0000.0001) // =======================================================
(PID.TID 0000.0001) // Begin MONITOR dynamic field statistics
(PID.TID 0000.0001) // =======================================================
(PID.TID 0000.0001) %MON time_tsnumber                =                    16
(PID.TID 0000.0001) %MON time_secondsf                =   2.7648000000000E+06
(PID.TID 0000.0001) %MON dynstat_eta_max              =   4.6789405485621E+04
(PID.TID 0000.0001) %MON dynstat_eta_min              =  -9.2852434058098E+04
(PID.TID 0000.0001) %MON dynstat_eta_mean             =   1.6760701344527E-12
(PID.TID 0000.0001) %MON dynstat_eta_sd               =   3.9659503873331E+04
(PID.TID 0000.0001) %MON dynstat_eta_del2             =   2.3966763322001E+04
(PID.TID 0000.0001) %MON dynstat_uvel_max             =   1.8326059209590E-01
(PID.TID 0000.0001) %MON dynstat_uvel_min             =  -8.7623465950469E-02
(PID.TID 0000.0001) %MON dynstat_uvel_mean            =   2.4727626065596E-04
(PID.TID 0000.0001) %MON dynstat_uvel_sd              =   1.3323140580962E-02
(PID.TID 0000.0001) %MON dynstat_uvel_del2            =   2.8447694517804E-03
(PID.TID 0000.0001) %MON dynstat_vvel_max             =   8.9080998780021E-02
(PID.TID 0000.0001) %MON dynstat_vvel_min             =  -1.3177977556010E-01
(PID.TID 0000.0001) %MON dynstat_vvel_mean            =   1.7431128565422E-05
(PID.TID 0000.0001) %MON dynstat_vvel_sd              =   1.0756937775683E-02
(PID.TID 0000.0001) %MON dynstat_vvel_del2            =   3.0670882857445E-03
(PID.TID 0000.0001) %MON dynstat_wvel_max             =   2.7623140600359E+00
(PID.TID 0000.0001) %MON dynstat_wvel_min             =  -1.5768143019171E+00
(PID.TID 0000.0001) %MON dynstat_wvel_mean            =   6.7075626856132E-05
(PID.TID 0000.0001) %MON dynstat_wvel_sd              =   2.2284687215842E-01
(PID.TID 0000.0001) %MON dynstat_wvel_del2            =   9.1870765803422E-02
(PID.TID 0000.0001) %MON dynstat_theta_max            =   2.9989060862991E+01
(PID.TID 0000.0001) %MON dynstat_theta_min            =  -3.2072080143165E+00
(PID.TID 0000.0001) %MON dynstat_theta_mean           =   3.6037435815480E+00
(PID.TID 0000.0001) %MON dynstat_theta_sd             =   4.4032904938860E+00
(PID.TID 0000.0001) %MON dynstat_theta_del2           =   1.4297894111408E-01
(PID.TID 0000.0001) %MON dynstat_salt_max             =   3.7433192125258E+01
(PID.TID 0000.0001) %MON dynstat_salt_min             =   2.9768463770245E+01
(PID.TID 0000.0001) %MON dynstat_salt_mean            =   3.4718001020331E+01
(PID.TID 0000.0001) %MON dynstat_salt_sd              =   2.9441201053631E-01
(PID.TID 0000.0001) %MON dynstat_salt_del2            =   2.6649050902299E-02
(PID.TID 0000.0001) %MON advcfl_uvel_max              =   1.1547897323047E-01
(PID.TID 0000.0001) %MON advcfl_vvel_max              =   5.1205393795647E-02
(PID.TID 0000.0001) %MON advcfl_wvel_max              =   1.1294530429132E-01
(PID.TID 0000.0001) %MON advcfl_W_hf_max              =   1.1294530429132E-01
(PID.TID 0000.0001) %MON pe_b_mean                    =  -7.7299703877232E-03
(PID.TID 0000.0001) %MON ke_max                       =   1.6992342881689E-02
(PID.TID 0000.0001) %MON ke_mean                      =   1.3228021476174E-04
(PID.TID 0000.0001) %MON ke_vol                       =   1.3442141716555E+22
(PID.TID 0000.0001) %MON vort_r_min                   =  -4.8631187425387E-07
(PID.TID 0000.0001) %MON vort_r_max                   =   5.2770228560869E-07
(PID.TID 0000.0001) %MON vort_a_mean                  =  -2.4531015284976E-05
(PID.TID 0000.0001) %MON vort_a_sd                    =   7.3436065618287E-05
(PID.TID 0000.0001) %MON vort_p_mean                  =  -2.9400527412207E-05
(PID.TID 0000.0001) %MON vort_p_sd                    =   1.0337585325676E-04
(PID.TID 0000.0001) %MON surfExpan_theta_mean         =   8.6715455560330E-04
(PID.TID 0000.0001) %MON surfExpan_salt_mean          =   1.2480413638498E-05
(PID.TID 0000.0001) // =======================================================
(PID.TID 0000.0001) // End MONITOR dynamic field statistics
(PID.TID 0000.0001) // =======================================================
time,SST,SSS,fu,fv,Q,E-P,i0,i1,a,b =   2.7648E+06  6.4124E-02  0.0000E+00 -2.2914E-02 -3.3484E-02  1.3556E+02 -2.0964E-09     1     2  6.0000E-01  4.0000E-01
time,fu0,fu1,fu =   2.7648E+06 -3.5633E-02 -1.4435E-02 -2.2914E-02  6.0000E-01  4.0000E-01
 cg2d: Sum(rhs),rhsMax =   2.23432383705813E-15  1.72993070143685E+02
(PID.TID 0000.0001)                    cg2d_init_res =    2.30541336203547E-03
(PID.TID 0000.0001)                       cg2d_iters =   105
(PID.TID 0000.0001)                         cg2d_res =    8.67386886238588E-10
(PID.TID 0000.0001) // =======================================================
(PID.TID 0000.0001) // Begin MONITOR dynamic field statistics
(PID.TID 0000.0001) // =======================================================
(PID.TID 0000.0001) %MON time_tsnumber                =                    17
(PID.TID 0000.0001) %MON time_secondsf                =   2.9376000000000E+06
(PID.TID 0000.0001) %MON dynstat_eta_max              =   4.8392796833119E+04
(PID.TID 0000.0001) %MON dynstat_eta_min              =  -9.2898952804427E+04
(PID.TID 0000.0001) %MON dynstat_eta_mean             =  -2.8827167339193E-12
(PID.TID 0000.0001) %MON dynstat_eta_sd               =   3.9709927305781E+04
(PID.TID 0000.0001) %MON dynstat_eta_del2             =   2.3967311189728E+04
(PID.TID 0000.0001) %MON dynstat_uvel_max             =   1.9076618947903E-01
(PID.TID 0000.0001) %MON dynstat_uvel_min             =  -9.1158802754353E-02
(PID.TID 0000.0001) %MON dynstat_uvel_mean            =   3.4910138457676E-04
(PID.TID 0000.0001) %MON dynstat_uvel_sd              =   1.4133812149036E-02
(PID.TID 0000.0001) %MON dynstat_uvel_del2            =   2.9457256093551E-03
(PID.TID 0000.0001) %MON dynstat_vvel_max             =   9.2144757772030E-02
(PID.TID 0000.0001) %MON dynstat_vvel_min             =  -1.2921766111982E-01
(PID.TID 0000.0001) %MON dynstat_vvel_mean            =  -1.5114350701228E-05
(PID.TID 0000.0001) %MON dynstat_vvel_sd              =   1.0552145670517E-02
(PID.TID 0000.0001) %MON dynstat_vvel_del2            =   3.0594166997013E-03
(PID.TID 0000.0001) %MON dynstat_wvel_max             =   2.8570474426081E+00
(PID.TID 0000.0001) %MON dynstat_wvel_min             =  -1.5805358458589E+00
(PID.TID 0000.0001) %MON dynstat_wvel_mean            =   2.3315391738595E-05
(PID.TID 0000.0001) %MON dynstat_wvel_sd              =   2.1606932852201E-01
(PID.TID 0000.0001) %MON dynstat_wvel_del2            =   9.0379056965271E-02
(PID.TID 0000.0001) %MON dynstat_theta_max            =   2.9990663773911E+01
(PID.TID 0000.0001) %MON dynstat_theta_min            =  -3.2418974116520E+00
(PID.TID 0000.0001) %MON dynstat_theta_mean           =   3.6038393020901E+00
(PID.TID 0000.0001) %MON dynstat_theta_sd             =   4.4035652004757E+00
(PID.TID 0000.0001) %MON dynstat_theta_del2           =   1.4327287477701E-01
(PID.TID 0000.0001) %MON dynstat_salt_max             =   3.7433460601986E+01
(PID.TID 0000.0001) %MON dynstat_salt_min             =   2.9767300644563E+01
(PID.TID 0000.0001) %MON dynstat_salt_mean            =   3.4718000930099E+01
(PID.TID 0000.0001) %MON dynstat_salt_sd              =   2.9441346812119E-01
(PID.TID 0000.0001) %MON dynstat_salt_del2            =   2.6687101279192E-02
(PID.TID 0000.0001) %MON advcfl_uvel_max              =   1.1878421815413E-01
(PID.TID 0000.0001) %MON advcfl_vvel_max              =   5.0209838306905E-02
(PID.TID 0000.0001) %MON advcfl_wvel_max              =   1.0048998816887E-01
(PID.TID 0000.0001) %MON advcfl_W_hf_max              =   1.0048998816887E-01
(PID.TID 0000.0001) %MON pe_b_mean                    =  -7.7031976541123E-03
(PID.TID 0000.0001) %MON ke_max                       =   1.7979383884298E-02
(PID.TID 0000.0001) %MON ke_mean                      =   1.4043121442991E-04
(PID.TID 0000.0001) %MON ke_vol                       =   1.3442141716555E+22
(PID.TID 0000.0001) %MON vort_r_min                   =  -5.1066411412655E-07
(PID.TID 0000.0001) %MON vort_r_max                   =   5.4986962306177E-07
(PID.TID 0000.0001) %MON vort_a_mean                  =  -2.4531015431941E-05
(PID.TID 0000.0001) %MON vort_a_sd                    =   7.3436083563406E-05
(PID.TID 0000.0001) %MON vort_p_mean                  =  -2.9400569134544E-05
(PID.TID 0000.0001) %MON vort_p_sd                    =   1.0337625318585E-04
(PID.TID 0000.0001) %MON surfExpan_theta_mean         =   4.6724501796957E-04
(PID.TID 0000.0001) %MON surfExpan_salt_mean          =   5.0635231784824E-05
(PID.TID 0000.0001) // =======================================================
(PID.TID 0000.0001) // End MONITOR dynamic field statistics
(PID.TID 0000.0001) // =======================================================
time,SST,SSS,fu,fv,Q,E-P,i0,i1,a,b =   2.9376E+06 -3.5249E-02  0.0000E+00 -2.1501E-02 -3.0843E-02  1.3808E+02 -2.0964E-09     1     2  6.6667E-01  3.3333E-01
time,fu0,fu1,fu =   2.9376E+06 -3.5633E-02 -1.4435E-02 -2.1501E-02  6.6667E-01  3.3333E-01
 cg2d: Sum(rhs),rhsMax =  -1.90125692967058E-15  1.72989818733298E+02
(PID.TID 0000.0001)                    cg2d_init_res =    2.20657385862429E-03
(PID.TID 0000.0001)                       cg2d_iters =    99
(PID.TID 0000.0001)                         cg2d_res =    9.07086841712403E-10
(PID.TID 0000.0001) // =======================================================
(PID.TID 0000.0001) // Begin MONITOR dynamic field statistics
(PID.TID 0000.0001) // =======================================================
(PID.TID 0000.0001) %MON time_tsnumber                =                    18
(PID.TID 0000.0001) %MON time_secondsf                =   3.1104000000000E+06
(PID.TID 0000.0001) %MON dynstat_eta_max              =   4.8834901577444E+04
(PID.TID 0000.0001) %MON dynstat_eta_min              =  -9.2835665516430E+04
(PID.TID 0000.0001) %MON dynstat_eta_mean             =   1.0670522354796E-11
(PID.TID 0000.0001) %MON dynstat_eta_sd               =   3.9723822753456E+04
(PID.TID 0000.0001) %MON dynstat_eta_del2             =   2.3967135679241E+04
(PID.TID 0000.0001) %MON dynstat_uvel_max             =   1.9673996485569E-01
(PID.TID 0000.0001) %MON dynstat_uvel_min             =  -9.5060538694863E-02
(PID.TID 0000.0001) %MON dynstat_uvel_mean            =   4.6370202498815E-04
(PID.TID 0000.0001) %MON dynstat_uvel_sd              =   1.4870643207727E-02
(PID.TID 0000.0001) %MON dynstat_uvel_del2            =   3.0459660703779E-03
(PID.TID 0000.0001) %MON dynstat_vvel_max             =   9.4736791350236E-02
(PID.TID 0000.0001) %MON dynstat_vvel_min             =  -1.2522379482924E-01
(PID.TID 0000.0001) %MON dynstat_vvel_mean            =  -4.6941415587393E-05
(PID.TID 0000.0001) %MON dynstat_vvel_sd              =   1.0310270044760E-02
(PID.TID 0000.0001) %MON dynstat_vvel_del2            =   3.0533328323769E-03
(PID.TID 0000.0001) %MON dynstat_wvel_max             =   2.9401062645862E+00
(PID.TID 0000.0001) %MON dynstat_wvel_min             =  -1.6425587565261E+00
(PID.TID 0000.0001) %MON dynstat_wvel_mean            =  -8.0936382525394E-06
(PID.TID 0000.0001) %MON dynstat_wvel_sd              =   2.0968400294034E-01
(PID.TID 0000.0001) %MON dynstat_wvel_del2            =   8.9285516395189E-02
(PID.TID 0000.0001) %MON dynstat_theta_max            =   2.9987563634928E+01
(PID.TID 0000.0001) %MON dynstat_theta_min            =  -3.2721039004232E+00
(PID.TID 0000.0001) %MON dynstat_theta_mean           =   3.6039358448376E+00
(PID.TID 0000.0001) %MON dynstat_theta_sd             =   4.4038589265704E+00
(PID.TID 0000.0001) %MON dynstat_theta_del2           =   1.4350319132513E-01
(PID.TID 0000.0001) %MON dynstat_salt_max             =   3.7433867092847E+01
(PID.TID 0000.0001) %MON dynstat_salt_min             =   2.9766010524143E+01
(PID.TID 0000.0001) %MON dynstat_salt_mean            =   3.4718000829492E+01
(PID.TID 0000.0001) %MON dynstat_salt_sd              =   2.9441390429801E-01
(PID.TID 0000.0001) %MON dynstat_salt_del2            =   2.6708400585491E-02
(PID.TID 0000.0001) %MON advcfl_uvel_max              =   1.2370205294510E-01
(PID.TID 0000.0001) %MON advcfl_vvel_max              =   4.8657949974214E-02
(PID.TID 0000.0001) %MON advcfl_wvel_max              =   9.8319616233432E-02
(PID.TID 0000.0001) %MON advcfl_W_hf_max              =   9.8319616233432E-02
(PID.TID 0000.0001) %MON pe_b_mean                    =  -7.7318655820816E-03
(PID.TID 0000.0001) %MON ke_max                       =   1.8840518493224E-02
(PID.TID 0000.0001) %MON ke_mean                      =   1.4789028421576E-04
(PID.TID 0000.0001) %MON ke_vol                       =   1.3442141716555E+22
(PID.TID 0000.0001) %MON vort_r_min                   =  -5.3031880555421E-07
(PID.TID 0000.0001) %MON vort_r_max                   =   5.6701062453316E-07
(PID.TID 0000.0001) %MON vort_a_mean                  =  -2.4531015571414E-05
(PID.TID 0000.0001) %MON vort_a_sd                    =   7.3436104415800E-05
(PID.TID 0000.0001) %MON vort_p_mean                  =  -2.9400602137692E-05
(PID.TID 0000.0001) %MON vort_p_sd                    =   1.0337650151501E-04
(PID.TID 0000.0001) %MON surfExpan_theta_mean         =  -1.3058199406786E-05
(PID.TID 0000.0001) %MON surfExpan_salt_mean          =   8.5133065485250E-05
(PID.TID 0000.0001) // =======================================================
(PID.TID 0000.0001) // End MONITOR dynamic field statistics
(PID.TID 0000.0001) // =======================================================
time,SST,SSS,fu,fv,Q,E-P,i0,i1,a,b =   3.1104E+06 -1.3462E-01  0.0000E+00 -2.0088E-02 -2.8201E-02  1.4061E+02 -2.0964E-09     1     2  7.3333E-01  2.6667E-01
time,fu0,fu1,fu =   3.1104E+06 -3.5633E-02 -1.4435E-02 -2.0088E-02  7.3333E-01  2.6667E-01
 cg2d: Sum(rhs),rhsMax =   2.63677968348475E-16  1.72986107073206E+02
(PID.TID 0000.0001)                    cg2d_init_res =    2.18102819230520E-03
(PID.TID 0000.0001)                       cg2d_iters =    99
(PID.TID 0000.0001)                         cg2d_res =    9.77786815335490E-10
(PID.TID 0000.0001) // =======================================================
(PID.TID 0000.0001) // Begin MONITOR dynamic field statistics
(PID.TID 0000.0001) // =======================================================
(PID.TID 0000.0001) %MON time_tsnumber                =                    19
(PID.TID 0000.0001) %MON time_secondsf                =   3.2832000000000E+06
(PID.TID 0000.0001) %MON dynstat_eta_max              =   4.8224387211641E+04
(PID.TID 0000.0001) %MON dynstat_eta_min              =  -9.2712798609891E+04
(PID.TID 0000.0001) %MON dynstat_eta_mean             =   5.1130249279368E-14
(PID.TID 0000.0001) %MON dynstat_eta_sd               =   3.9703080459930E+04
(PID.TID 0000.0001) %MON dynstat_eta_del2             =   2.3966250529997E+04
(PID.TID 0000.0001) %MON dynstat_uvel_max             =   2.0110488569554E-01
(PID.TID 0000.0001) %MON dynstat_uvel_min             =  -9.8447664121767E-02
(PID.TID 0000.0001) %MON dynstat_uvel_mean            =   5.6927869295696E-04
(PID.TID 0000.0001) %MON dynstat_uvel_sd              =   1.5524672098195E-02
(PID.TID 0000.0001) %MON dynstat_uvel_del2            =   3.1434729665534E-03
(PID.TID 0000.0001) %MON dynstat_vvel_max             =   9.6880621904960E-02
(PID.TID 0000.0001) %MON dynstat_vvel_min             =  -1.1986189030529E-01
(PID.TID 0000.0001) %MON dynstat_vvel_mean            =  -6.3709229706882E-05
(PID.TID 0000.0001) %MON dynstat_vvel_sd              =   1.0056186911624E-02
(PID.TID 0000.0001) %MON dynstat_vvel_del2            =   3.0513816214484E-03
(PID.TID 0000.0001) %MON dynstat_wvel_max             =   3.0106680272852E+00
(PID.TID 0000.0001) %MON dynstat_wvel_min             =  -1.7726738959718E+00
(PID.TID 0000.0001) %MON dynstat_wvel_mean            =  -3.4991362820023E-05
(PID.TID 0000.0001) %MON dynstat_wvel_sd              =   2.0415220989647E-01
(PID.TID 0000.0001) %MON dynstat_wvel_del2            =   8.8715894865255E-02
(PID.TID 0000.0001) %MON dynstat_theta_max            =   2.9979731581979E+01
(PID.TID 0000.0001) %MON dynstat_theta_min            =  -3.2978794210508E+00
(PID.TID 0000.0001) %MON dynstat_theta_mean           =   3.6040337120742E+00
(PID.TID 0000.0001) %MON dynstat_theta_sd             =   4.4041721426791E+00
(PID.TID 0000.0001) %MON dynstat_theta_del2           =   1.4382684937036E-01
(PID.TID 0000.0001) %MON dynstat_salt_max             =   3.7434407378920E+01
(PID.TID 0000.0001) %MON dynstat_salt_min             =   2.9764561512260E+01
(PID.TID 0000.0001) %MON dynstat_salt_mean            =   3.4718000738345E+01
(PID.TID 0000.0001) %MON dynstat_salt_sd              =   2.9441595825732E-01
(PID.TID 0000.0001) %MON dynstat_salt_del2            =   2.6751195257877E-02
(PID.TID 0000.0001) %MON advcfl_uvel_max              =   1.2742110726375E-01
(PID.TID 0000.0001) %MON advcfl_vvel_max              =   4.6574485865428E-02
(PID.TID 0000.0001) %MON advcfl_wvel_max              =   9.7953098637316E-02
(PID.TID 0000.0001) %MON advcfl_W_hf_max              =   9.7953098637316E-02
(PID.TID 0000.0001) %MON pe_b_mean                    =  -7.8070785544284E-03
(PID.TID 0000.0001) %MON ke_max                       =   1.9573379193384E-02
(PID.TID 0000.0001) %MON ke_mean                      =   1.5462324650260E-04
(PID.TID 0000.0001) %MON ke_vol                       =   1.3442141716555E+22
(PID.TID 0000.0001) %MON vort_r_min                   =  -5.4491986944599E-07
(PID.TID 0000.0001) %MON vort_r_max                   =   5.7991893463669E-07
(PID.TID 0000.0001) %MON vort_a_mean                  =  -2.4531015679743E-05
(PID.TID 0000.0001) %MON vort_a_sd                    =   7.3436123403870E-05
(PID.TID 0000.0001) %MON vort_p_mean                  =  -2.9400621938252E-05
(PID.TID 0000.0001) %MON vort_p_sd                    =   1.0337655976050E-04
(PID.TID 0000.0001) %MON surfExpan_theta_mean         =  -3.6261637967822E-04
(PID.TID 0000.0001) %MON surfExpan_salt_mean          =   1.1038367309285E-04
(PID.TID 0000.0001) // =======================================================
(PID.TID 0000.0001) // End MONITOR dynamic field statistics
(PID.TID 0000.0001) // =======================================================
time,SST,SSS,fu,fv,Q,E-P,i0,i1,a,b =   3.2832E+06 -2.3399E-01  0.0000E+00 -1.8674E-02 -2.5560E-02  1.4314E+02 -2.0964E-09     1     2  8.0000E-01  2.0000E-01
time,fu0,fu1,fu =   3.2832E+06 -3.5633E-02 -1.4435E-02 -1.8674E-02  8.0000E-01  2.0000E-01
 cg2d: Sum(rhs),rhsMax =   6.24500451351651E-16  1.72981617083791E+02
(PID.TID 0000.0001)                    cg2d_init_res =    2.20680566510663E-03
(PID.TID 0000.0001)                       cg2d_iters =   102
(PID.TID 0000.0001)                         cg2d_res =    9.91151776416491E-10
(PID.TID 0000.0001) // =======================================================
(PID.TID 0000.0001) // Begin MONITOR dynamic field statistics
(PID.TID 0000.0001) // =======================================================
(PID.TID 0000.0001) %MON time_tsnumber                =                    20
(PID.TID 0000.0001) %MON time_secondsf                =   3.4560000000000E+06
(PID.TID 0000.0001) %MON dynstat_eta_max              =   4.6919005134437E+04
(PID.TID 0000.0001) %MON dynstat_eta_min              =  -9.2592394703191E+04
(PID.TID 0000.0001) %MON dynstat_eta_mean             =   1.3495051528477E-12
(PID.TID 0000.0001) %MON dynstat_eta_sd               =   3.9661648676317E+04
(PID.TID 0000.0001) %MON dynstat_eta_del2             =   2.3964945541439E+04
(PID.TID 0000.0001) %MON dynstat_uvel_max             =   2.0380492243970E-01
(PID.TID 0000.0001) %MON dynstat_uvel_min             =  -1.0119271477787E-01
(PID.TID 0000.0001) %MON dynstat_uvel_mean            =   6.5145502351916E-04
(PID.TID 0000.0001) %MON dynstat_uvel_sd              =   1.6087071614403E-02
(PID.TID 0000.0001) %MON dynstat_uvel_del2            =   3.2340693054020E-03
(PID.TID 0000.0001) %MON dynstat_vvel_max             =   9.8610241266309E-02
(PID.TID 0000.0001) %MON dynstat_vvel_min             =  -1.1322532843705E-01
(PID.TID 0000.0001) %MON dynstat_vvel_mean            =  -5.8030621846014E-05
(PID.TID 0000.0001) %MON dynstat_vvel_sd              =   9.8150653841271E-03
(PID.TID 0000.0001) %MON dynstat_vvel_del2            =   3.0584558741068E-03
(PID.TID 0000.0001) %MON dynstat_wvel_max             =   3.0682364064731E+00
(PID.TID 0000.0001) %MON dynstat_wvel_min             =  -1.8897157038044E+00
(PID.TID 0000.0001) %MON dynstat_wvel_mean            =  -6.2928645148374E-05
(PID.TID 0000.0001) %MON dynstat_wvel_sd              =   1.9981011343927E-01
(PID.TID 0000.0001) %MON dynstat_wvel_del2            =   8.8540856725770E-02
(PID.TID 0000.0001) %MON dynstat_theta_max            =   2.9967149828674E+01
(PID.TID 0000.0001) %MON dynstat_theta_min            =  -3.3192712226251E+00
(PID.TID 0000.0001) %MON dynstat_theta_mean           =   3.6041327875064E+00
(PID.TID 0000.0001) %MON dynstat_theta_sd             =   4.4045043961971E+00
(PID.TID 0000.0001) %MON dynstat_theta_del2           =   1.4394224940901E-01
(PID.TID 0000.0001) %MON dynstat_salt_max             =   3.7435274147509E+01
(PID.TID 0000.0001) %MON dynstat_salt_min             =   2.9762948626642E+01
(PID.TID 0000.0001) %MON dynstat_salt_mean            =   3.4718000671543E+01
(PID.TID 0000.0001) %MON dynstat_salt_sd              =   2.9441587652996E-01
(PID.TID 0000.0001) %MON dynstat_salt_del2            =   2.6780454886275E-02
(PID.TID 0000.0001) %MON advcfl_uvel_max              =   1.2984289293251E-01
(PID.TID 0000.0001) %MON advcfl_vvel_max              =   4.3995730798743E-02
(PID.TID 0000.0001) %MON advcfl_wvel_max              =   9.7216025010557E-02
(PID.TID 0000.0001) %MON advcfl_W_hf_max              =   9.7216025010557E-02
(PID.TID 0000.0001) %MON pe_b_mean                    =  -7.9131751320920E-03
(PID.TID 0000.0001) %MON ke_max                       =   2.0295634603592E-02
(PID.TID 0000.0001) %MON ke_mean                      =   1.6057159230225E-04
(PID.TID 0000.0001) %MON ke_vol                       =   1.3442141716555E+22
(PID.TID 0000.0001) %MON vort_r_min                   =  -5.5421656598075E-07
(PID.TID 0000.0001) %MON vort_r_max                   =   5.8935153218728E-07
(PID.TID 0000.0001) %MON vort_a_mean                  =  -2.4531015741705E-05
(PID.TID 0000.0001) %MON vort_a_sd                    =   7.3436137405297E-05
(PID.TID 0000.0001) %MON vort_p_mean                  =  -2.9400628701735E-05
(PID.TID 0000.0001) %MON vort_p_sd                    =   1.0337644867767E-04
(PID.TID 0000.0001) %MON surfExpan_theta_mean         =  -4.5391083155108E-04
(PID.TID 0000.0001) %MON surfExpan_salt_mean          =   1.2287948337324E-04
(PID.TID 0000.0001) // =======================================================
(PID.TID 0000.0001) // End MONITOR dynamic field statistics
(PID.TID 0000.0001) // =======================================================
(PID.TID 0000.0001) %CHECKPOINT        20 ckptA
(PID.TID 0000.0001)   Seconds in section "ALL                    [THE_MODEL_MAIN]":
(PID.TID 0000.0001)           User time:  17.5400009
(PID.TID 0000.0001)         System time:  0.0599999987
(PID.TID 0000.0001)     Wall clock time:  18.462752
(PID.TID 0000.0001)          No. starts: 1
(PID.TID 0000.0001)           No. stops: 1
(PID.TID 0000.0001)   Seconds in section "INITIALISE_FIXED       [THE_MODEL_MAIN]":
(PID.TID 0000.0001)           User time:  0.159999996
(PID.TID 0000.0001)         System time:  0.00999999978
(PID.TID 0000.0001)     Wall clock time:  0.324476004
(PID.TID 0000.0001)          No. starts: 1
(PID.TID 0000.0001)           No. stops: 1
(PID.TID 0000.0001)   Seconds in section "THE_MAIN_LOOP          [THE_MODEL_MAIN]":
(PID.TID 0000.0001)           User time:  17.2800005
(PID.TID 0000.0001)         System time:  0.0299999993
(PID.TID 0000.0001)     Wall clock time:  17.652166
(PID.TID 0000.0001)          No. starts: 1
(PID.TID 0000.0001)           No. stops: 1
(PID.TID 0000.0001)   Seconds in section "INITIALISE_VARIA    [THE_MAIN_LOOP]":
(PID.TID 0000.0001)           User time:  0.159999996
(PID.TID 0000.0001)         System time:  0.0199999996
(PID.TID 0000.0001)     Wall clock time:  0.179758072
(PID.TID 0000.0001)          No. starts: 1
(PID.TID 0000.0001)           No. stops: 1
(PID.TID 0000.0001)   Seconds in section "WRITE_STATE         [THE_MAIN_LOOP]":
(PID.TID 0000.0001)           User time:  0.0600000024
(PID.TID 0000.0001)         System time:  0.
(PID.TID 0000.0001)     Wall clock time:  0.208938956
(PID.TID 0000.0001)          No. starts: 1
(PID.TID 0000.0001)           No. stops: 1
(PID.TID 0000.0001)   Seconds in section "MONITOR             [THE_MAIN_LOOP]":
(PID.TID 0000.0001)           User time:  0.0900000036
(PID.TID 0000.0001)         System time:  0.
(PID.TID 0000.0001)     Wall clock time:  0.0961440802
(PID.TID 0000.0001)          No. starts: 1
(PID.TID 0000.0001)           No. stops: 1
(PID.TID 0000.0001)   Seconds in section "MAIN LOOP           [THE_MAIN_LOOP]":
(PID.TID 0000.0001)           User time:  16.9700005
(PID.TID 0000.0001)         System time:  0.00999999978
(PID.TID 0000.0001)     Wall clock time:  17.167212
(PID.TID 0000.0001)          No. starts: 1
(PID.TID 0000.0001)           No. stops: 1
(PID.TID 0000.0001)   Seconds in section "FORWARD_STEP        [THE_MAIN_LOOP]":
(PID.TID 0000.0001)           User time:  16.9700005
(PID.TID 0000.0001)         System time:  0.00999999978
(PID.TID 0000.0001)     Wall clock time:  17.1667708
(PID.TID 0000.0001)          No. starts: 20
(PID.TID 0000.0001)           No. stops: 20
(PID.TID 0000.0001)   Seconds in section "UPDATE_ETAH        [FORWARD_STEP]":
(PID.TID 0000.0001)           User time:  0.
(PID.TID 0000.0001)         System time:  0.
(PID.TID 0000.0001)     Wall clock time:  0.00220799446
(PID.TID 0000.0001)          No. starts: 20
(PID.TID 0000.0001)           No. stops: 20
(PID.TID 0000.0001)   Seconds in section "CALC_SURF_DR      [FORWARD_STEP]":
(PID.TID 0000.0001)           User time:  0.039999485
(PID.TID 0000.0001)         System time:  0.
(PID.TID 0000.0001)     Wall clock time:  0.0286002159
(PID.TID 0000.0001)          No. starts: 20
(PID.TID 0000.0001)           No. stops: 20
(PID.TID 0000.0001)   Seconds in section "EXTERNAL_FIELDS_LOAD[FORWARD_STEP]":
(PID.TID 0000.0001)           User time:  0.0499987602
(PID.TID 0000.0001)         System time:  0.
(PID.TID 0000.0001)     Wall clock time:  0.0473557711
(PID.TID 0000.0001)          No. starts: 20
(PID.TID 0000.0001)           No. stops: 20
(PID.TID 0000.0001)   Seconds in section "THERMODYNAMICS      [FORWARD_STEP]":
(PID.TID 0000.0001)           User time:  4.83000162
(PID.TID 0000.0001)         System time:  0.00999999978
(PID.TID 0000.0001)     Wall clock time:  4.85136604
(PID.TID 0000.0001)          No. starts: 20
(PID.TID 0000.0001)           No. stops: 20
(PID.TID 0000.0001)   Seconds in section "BLOCKING_EXCHANGES  [FORWARD_STEP]":
(PID.TID 0000.0001)           User time:  0.0500001907
(PID.TID 0000.0001)         System time:  0.
(PID.TID 0000.0001)     Wall clock time:  0.04601264
(PID.TID 0000.0001)          No. starts: 40
(PID.TID 0000.0001)           No. stops: 40
(PID.TID 0000.0001)   Seconds in section "DYNAMICS            [FORWARD_STEP]":
(PID.TID 0000.0001)           User time:  4.75000089
(PID.TID 0000.0001)         System time:  0.
(PID.TID 0000.0001)     Wall clock time:  4.74455321
(PID.TID 0000.0001)          No. starts: 20
(PID.TID 0000.0001)           No. stops: 20
(PID.TID 0000.0001)   Seconds in section "UPDATE_SURF_DR     [FORWARD_STEP]":
(PID.TID 0000.0001)           User time:  0.0199999809
(PID.TID 0000.0001)         System time:  0.
(PID.TID 0000.0001)     Wall clock time:  0.0168049335
(PID.TID 0000.0001)          No. starts: 20
(PID.TID 0000.0001)           No. stops: 20
(PID.TID 0000.0001)   Seconds in section "UPDATE_CG2D        [FORWARD_STEP]":
(PID.TID 0000.0001)           User time:  0.139998972
(PID.TID 0000.0001)         System time:  0.
(PID.TID 0000.0001)     Wall clock time:  0.144957066
(PID.TID 0000.0001)          No. starts: 20
(PID.TID 0000.0001)           No. stops: 20
(PID.TID 0000.0001)   Seconds in section "SOLVE_FOR_PRESSURE  [FORWARD_STEP]":
(PID.TID 0000.0001)           User time:  3.77999747
(PID.TID 0000.0001)         System time:  0.
(PID.TID 0000.0001)     Wall clock time:  3.78986001
(PID.TID 0000.0001)          No. starts: 20
(PID.TID 0000.0001)           No. stops: 20
(PID.TID 0000.0001)   Seconds in section "THE_CORRECTION_STEP [FORWARD_STEP]":
(PID.TID 0000.0001)           User time:  1.30000305
(PID.TID 0000.0001)         System time:  0.
(PID.TID 0000.0001)     Wall clock time:  1.28258991
(PID.TID 0000.0001)          No. starts: 20
(PID.TID 0000.0001)           No. stops: 20
(PID.TID 0000.0001)   Seconds in section "MONITOR             [FORWARD_STEP]":
(PID.TID 0000.0001)           User time:  1.93999875
(PID.TID 0000.0001)         System time:  0.
(PID.TID 0000.0001)     Wall clock time:  1.95027113
(PID.TID 0000.0001)          No. starts: 20
(PID.TID 0000.0001)           No. stops: 20
(PID.TID 0000.0001)   Seconds in section "DO_THE_MODEL_IO     [FORWARD_STEP]":
(PID.TID 0000.0001)           User time:  0.0600013733
(PID.TID 0000.0001)         System time:  0.
(PID.TID 0000.0001)     Wall clock time:  0.255204678
(PID.TID 0000.0001)          No. starts: 20
(PID.TID 0000.0001)           No. stops: 20
(PID.TID 0000.0001)   Seconds in section "WRITE_CHECKPOINT    [FORWARD_STEP]":
(PID.TID 0000.0001)           User time:  0.
(PID.TID 0000.0001)         System time:  0.
(PID.TID 0000.0001)     Wall clock time:  0.000433802605
(PID.TID 0000.0001)          No. starts: 20
(PID.TID 0000.0001)           No. stops: 20
(PID.TID 0000.0001)   Seconds in section "WRITE_CHECKPOINT       [THE_MODEL_MAIN]":
(PID.TID 0000.0001)           User time:  0.100000381
(PID.TID 0000.0001)         System time:  0.0199999996
(PID.TID 0000.0001)     Wall clock time:  0.486006021
(PID.TID 0000.0001)          No. starts: 1
(PID.TID 0000.0001)           No. stops: 1
(PID.TID 0000.0001) // ======================================================
(PID.TID 0000.0001) // Tile <-> Tile communication statistics
(PID.TID 0000.0001) // ======================================================
(PID.TID 0000.0001) // o Tile number: 000001
(PID.TID 0000.0001) //         No. X exchanges =              0
(PID.TID 0000.0001) //            Max. X spins =              0
(PID.TID 0000.0001) //            Min. X spins =     1000000000
(PID.TID 0000.0001) //          Total. X spins =              0
(PID.TID 0000.0001) //            Avg. X spins =       0.00E+00
(PID.TID 0000.0001) //         No. Y exchanges =              0
(PID.TID 0000.0001) //            Max. Y spins =              0
(PID.TID 0000.0001) //            Min. Y spins =     1000000000
(PID.TID 0000.0001) //          Total. Y spins =              0
(PID.TID 0000.0001) //            Avg. Y spins =       0.00E+00
(PID.TID 0000.0001) // o Thread number: 000001
(PID.TID 0000.0001) //            No. barriers =          33758
(PID.TID 0000.0001) //      Max. barrier spins =              1
(PID.TID 0000.0001) //      Min. barrier spins =              1
(PID.TID 0000.0001) //     Total barrier spins =          33758
(PID.TID 0000.0001) //      Avg. barrier spins =       1.00E+00
