(PID.TID 0000.0001) 
(PID.TID 0000.0001) // ======================================================
(PID.TID 0000.0001) //                      MITgcm UV
(PID.TID 0000.0001) //                      =========
(PID.TID 0000.0001) // ======================================================
(PID.TID 0000.0001) // execution environment starting up...
(PID.TID 0000.0001) // Run starting Wed Apr  1 14:19:48 1998
(PID.TID 0000.0001) // on melville.lcs.mit.edu
(PID.TID 0000.0001) // account cnh
(PID.TID 0000.0001) // MITgcm UV Release: $Name:  $
(PID.TID 0000.0001) 
(PID.TID 0000.0001) // =======================================================
(PID.TID 0000.0001) // Execution Environment parameter file "eedata"
(PID.TID 0000.0001) // =======================================================
(PID.TID 0000.0001) ># Example "eedata" file
(PID.TID 0000.0001) ># Lines beginning "#" are comments
(PID.TID 0000.0001) ># nTx - No. threads per process in X
(PID.TID 0000.0001) ># nTy - No. threads per process in Y
(PID.TID 0000.0001) > &EEPARMS
(PID.TID 0000.0001) > nTx=1,nTy=1
(PID.TID 0000.0001) > /
(PID.TID 0000.0001) ># Note: Some systems use & as the
(PID.TID 0000.0001) ># namelist terminator. Other systems
(PID.TID 0000.0001) ># use a / character (as shown here).
(PID.TID 0000.0001) 
(PID.TID 0000.0001) // =======================================================
(PID.TID 0000.0001) // Computational Grid Specification ( see files "SIZE.h" )
(PID.TID 0000.0001) //                                  ( and "eedata"       )
(PID.TID 0000.0001) // =======================================================
(PID.TID 0000.0001)      nPx =    1 ; /* No. processes in X */
(PID.TID 0000.0001)      nPy =    1 ; /* No. processes in Y */
(PID.TID 0000.0001)      nSx =    1 ; /* No. tiles in X per process */
(PID.TID 0000.0001)      nSy =    1 ; /* No. tiles in Y per process */
(PID.TID 0000.0001)      sNx =   90 ; /* Tile size in X */
(PID.TID 0000.0001)      sNy =   40 ; /* Tile size in Y */
(PID.TID 0000.0001)      OLx =    3 ; /* Tile overlap distance in X */
(PID.TID 0000.0001)      OLy =    3 ; /* Tile overlap distance in Y */
(PID.TID 0000.0001)      nTx =    1 ; /* No. threads in X per process */
(PID.TID 0000.0001)      nTy =    1 ; /* No. threads in Y per process */
(PID.TID 0000.0001)       Nr =   15 ; /* No. levels in the vertical   */
(PID.TID 0000.0001)       nX =   90 ; /* Total domain size in X ( = nPx*nSx*sNx ) */
(PID.TID 0000.0001)       nY =   40 ; /* Total domain size in Y ( = nPy*nSy*sNy ) */
(PID.TID 0000.0001)   nTiles =    1 ; /* Total no. tiles per process ( = nSx*nSy ) */
(PID.TID 0000.0001)   nProcs =    1 ; /* Total no. processes ( = nPx*nPy ) */
(PID.TID 0000.0001) nThreads =    1 ; /* Total no. threads per process ( = nTx*nTy ) */
(PID.TID 0000.0001) usingMPI =    F ; /* Flag used to control whether MPI is in use */
(PID.TID 0000.0001)                   /*  note: To execute a program with MPI calls */
(PID.TID 0000.0001)                   /*  it must be launched appropriately e.g     */
(PID.TID 0000.0001)                   /*  "mpirun -np 64 ......"                    */
(PID.TID 0000.0001) 
(PID.TID 0000.0001) // ======================================================
(PID.TID 0000.0001) // Mapping of tiles to threads
(PID.TID 0000.0001) // ======================================================
(PID.TID 0000.0001) // -o- Thread   1, tiles (   1:   1,   1:   1)
(PID.TID 0000.0001) 
(PID.TID 0000.0001) // ======================================================
(PID.TID 0000.0001) // Tile <-> Tile connectvity table
(PID.TID 0000.0001) // ======================================================
(PID.TID 0000.0001) // Tile number: 000001 (process no. = 000001)
(PID.TID 0000.0001) //        WEST: Tile = 000001, Process = 000001, Comm = put
(PID.TID 0000.0001) //                bi = 000001, bj = 000001
(PID.TID 0000.0001) //        EAST: Tile = 000001, Process = 000001, Comm = put
(PID.TID 0000.0001) //                bi = 000001, bj = 000001
(PID.TID 0000.0001) //       SOUTH: Tile = 000001, Process = 000001, Comm = put
(PID.TID 0000.0001) //                bi = 000001, bj = 000001
(PID.TID 0000.0001) //       NORTH: Tile = 000001, Process = 000001, Comm = put
(PID.TID 0000.0001) //                bi = 000001, bj = 000001
(PID.TID 0000.0001) 
(PID.TID 0000.0001) // =======================================================
(PID.TID 0000.0001) // Model parameter file "data"
(PID.TID 0000.0001) // =======================================================
(PID.TID 0000.0001) ># ====================
(PID.TID 0000.0001) ># | Model parameters |
(PID.TID 0000.0001) ># ====================
(PID.TID 0000.0001) >#
(PID.TID 0000.0001) ># Continuous equation parameters
(PID.TID 0000.0001) > &PARM01
(PID.TID 0000.0001) > tRef=15*20.,
(PID.TID 0000.0001) > sRef=15*35.,
(PID.TID 0000.0001) > viscAh =3.E5,
(PID.TID 0000.0001) > no_slip_sides=.TRUE.,
(PID.TID 0000.0001) > viscAr =1.721611620915750e5,
(PID.TID 0000.0001) >#viscAz =1.67E-3,
(PID.TID 0000.0001) > no_slip_bottom=.FALSE.,
(PID.TID 0000.0001) > diffKhT=1.E3,
(PID.TID 0000.0001) > diffKrT=5.154525811125000e3,
(PID.TID 0000.0001) >#diffKzT=0.5E-4,
(PID.TID 0000.0001) > diffKhS=1.E3,
(PID.TID 0000.0001) > diffKrS=5.154525811125000e3,
(PID.TID 0000.0001) >#diffKzS=0.5E-4,
(PID.TID 0000.0001) > implicitDiffusion=.TRUE.,
(PID.TID 0000.0001) > ivdc_kappa=1.030905162225000e9,
(PID.TID 0000.0001) >#ivdc_kappa=10.0,
(PID.TID 0000.0001) > gravity=9.81,
(PID.TID 0000.0001) > gravitySign=-1.D0,
(PID.TID 0000.0001) > rhonil=1035.,
(PID.TID 0000.0001) > buoyancyRelation='OCEANICP',
(PID.TID 0000.0001) > eosType='JMD95P',
(PID.TID 0000.0001) > rigidLid=.FALSE.,
(PID.TID 0000.0001) > implicitFreeSurface=.TRUE.,
(PID.TID 0000.0001) > exactConserv=.TRUE.,
(PID.TID 0000.0001) > nonlinFreeSurf=3,
(PID.TID 0000.0001) > hFacInf=0.2,
(PID.TID 0000.0001) > hFacSup=2.0,
(PID.TID 0000.0001) > useRealFreshWaterFlux=.FALSE.,
(PID.TID 0000.0001) > readBinaryPrec=64,
(PID.TID 0000.0001) > writeBinaryPrec=64,
(PID.TID 0000.0001) > cosPower=0.5,
(PID.TID 0000.0001) > &
(PID.TID 0000.0001) >
(PID.TID 0000.0001) ># Elliptic solver parameters
(PID.TID 0000.0001) > &PARM02
(PID.TID 0000.0001) > cg2dMaxIters=200,
(PID.TID 0000.0001) > cg2dTargetResidual=1.E-9,
(PID.TID 0000.0001) > &
(PID.TID 0000.0001) >
(PID.TID 0000.0001) ># Time stepping parameters
(PID.TID 0000.0001) > &PARM03
(PID.TID 0000.0001) > startTime =           0.,
(PID.TID 0000.0001) > endTime   =     3456000.,
(PID.TID 0000.0001) ># after 100 years of intergration, one gets a reasonable flow field
(PID.TID 0000.0001) >#endTime   = 3110400000.,
(PID.TID 0000.0001) > deltaTmom      =   1200.0,
(PID.TID 0000.0001) > deltaTtracer   = 172800.0,
(PID.TID 0000.0001) > deltaTfreesurf = 172800.0,
(PID.TID 0000.0001) > deltaTClock    = 172800.0,
(PID.TID 0000.0001) > pChkptFreq  = 3110400000.,
(PID.TID 0000.0001) > dumpFreq    = 3110400000.,
(PID.TID 0000.0001) > taveFreq    = 3110400000.,
(PID.TID 0000.0001) > monitorFreq =   1.,
(PID.TID 0000.0001) > periodicExternalForcing=.TRUE.,
(PID.TID 0000.0001) > externForcingPeriod=2592000.,
(PID.TID 0000.0001) > externForcingCycle=31104000.,
(PID.TID 0000.0001) > tauThetaClimRelax=5184000.0,
(PID.TID 0000.0001) > abEps=0.1,
(PID.TID 0000.0001) > &
(PID.TID 0000.0001) >
(PID.TID 0000.0001) ># Gridding parameters
(PID.TID 0000.0001) > &PARM04
(PID.TID 0000.0001) > usingCartesianGrid=.FALSE.,
(PID.TID 0000.0001) > usingSphericalPolarGrid=.TRUE.,
(PID.TID 0000.0001) > dXspacing=4.,
(PID.TID 0000.0001) > dYspacing=4.,
(PID.TID 0000.0001) > Ro_SeaLevel=53023122.566084,
(PID.TID 0000.0001) > groundAtK1=.TRUE.,
(PID.TID 0000.0001) > delR=7103300.720021, 6570548.440790, 6041670.010249,
(PID.TID 0000.0001) >      5516436.666057, 4994602.034410, 4475903.435290,
(PID.TID 0000.0001) >      3960063.245801, 3446790.312651, 2935781.405664,
(PID.TID 0000.0001) >      2426722.705046, 1919291.315988, 1413156.804970,
(PID.TID 0000.0001) >      1008846.750166,  705919.025481,  504089.693499,
(PID.TID 0000.0001) > phiMin=-80.,
(PID.TID 0000.0001) > &
(PID.TID 0000.0001) >
(PID.TID 0000.0001) ># Input datasets
(PID.TID 0000.0001) > &PARM05
(PID.TID 0000.0001) > topoFile       ='topog.bin',
(PID.TID 0000.0001) > pLoadFile      ='deltageopotjmd95.bin',
(PID.TID 0000.0001) > hydrogThetaFile='lev_t.bin',
(PID.TID 0000.0001) > hydrogSaltFile ='lev_s.bin',
(PID.TID 0000.0001) > zonalWindFile  ='trenberth_taux.bin',
(PID.TID 0000.0001) > meridWindFile  ='trenberth_tauy.bin',
(PID.TID 0000.0001) > thetaClimFile  ='lev_sst.bin',
(PID.TID 0000.0001) >#saltClimFile   ='lev_sss.bin',
(PID.TID 0000.0001) > surfQFile      ='shi_qnet.bin',
(PID.TID 0000.0001) > EmPmRFile      ='shi_empmr.bin',
(PID.TID 0000.0001) > &
(PID.TID 0000.0001) 
(PID.TID 0000.0001) S/R INI_PARMS ; read PARM01 : OK
(PID.TID 0000.0001) S/R INI_PARMS ; read PARM02 : OK
(PID.TID 0000.0001) S/R INI_PARMS ; read PARM03 : OK
(PID.TID 0000.0001) S/R INI_PARMS ; read PARM04 : OK
(PID.TID 0000.0001) S/R INI_PARMS ; read PARM05 : OK
(PID.TID 0000.0001) %MON XC_max                       =   3.5800000000000E+02
(PID.TID 0000.0001) %MON XC_min                       =   2.0000000000000E+00
(PID.TID 0000.0001) %MON XC_mean                      =   1.8000000000000E+02
(PID.TID 0000.0001) %MON XC_sd                        =   1.0391663325314E+02
(PID.TID 0000.0001) %MON XG_max                       =   3.5600000000000E+02
(PID.TID 0000.0001) %MON XG_min                       =   4.0000000000000E+00
(PID.TID 0000.0001) %MON XG_mean                      =   1.8000000000000E+02
(PID.TID 0000.0001) %MON XG_sd                        =   1.0276186062932E+02
(PID.TID 0000.0001) %MON DXC_max                      =   4.4443898815675E+05
(PID.TID 0000.0001) %MON DXC_min                      =   9.2460385861875E+04
(PID.TID 0000.0001) %MON DXC_mean                     =   3.1372497618153E+05
(PID.TID 0000.0001) %MON DXC_sd                       =   1.1216447457560E+05
(PID.TID 0000.0001) %MON DXF_max                      =   4.4443898815675E+05
(PID.TID 0000.0001) %MON DXF_min                      =   9.2460385861875E+04
(PID.TID 0000.0001) %MON DXF_mean                     =   3.1372497618153E+05
(PID.TID 0000.0001) %MON DXF_sd                       =   1.1216447457560E+05
(PID.TID 0000.0001) %MON DXG_max                      =   4.4470989340816E+05
(PID.TID 0000.0001) %MON DXG_min                      =   7.7223062580781E+04
(PID.TID 0000.0001) %MON DXG_mean                     =   3.1353386340260E+05
(PID.TID 0000.0001) %MON DXG_sd                       =   1.1256651772502E+05
(PID.TID 0000.0001) %MON DXV_max                      =   4.4470989340816E+05
(PID.TID 0000.0001) %MON DXV_min                      =   7.7223062580781E+04
(PID.TID 0000.0001) %MON DXV_mean                     =   3.1353386340260E+05
(PID.TID 0000.0001) %MON DXV_sd                       =   1.1256651772502E+05
(PID.TID 0000.0001) %MON YC_max                       =   7.8000000000000E+01
(PID.TID 0000.0001) %MON YC_min                       =  -7.8000000000000E+01
(PID.TID 0000.0001) %MON YC_mean                      =   0.0000000000000E+00
(PID.TID 0000.0001) %MON YC_sd                        =   4.6173585522461E+01
(PID.TID 0000.0001) %MON YG_max                       =   7.6000000000000E+01
(PID.TID 0000.0001) %MON YG_min                       =  -8.0000000000000E+01
(PID.TID 0000.0001) %MON YG_mean                      =  -2.0512820512821E+00
(PID.TID 0000.0001) %MON YG_sd                        =   4.6760682979564E+01
(PID.TID 0000.0001) %MON DYC_max                      =   4.4470989340816E+05
(PID.TID 0000.0001) %MON DYC_min                      =   4.4470989340816E+05
(PID.TID 0000.0001) %MON DYC_mean                     =   4.4470989340814E+05
(PID.TID 0000.0001) %MON DYC_sd                       =   1.9848812371492E-08
(PID.TID 0000.0001) %MON DYF_max                      =   4.4470989340816E+05
(PID.TID 0000.0001) %MON DYF_min                      =   4.4470989340816E+05
(PID.TID 0000.0001) %MON DYF_mean                     =   4.4470989340814E+05
(PID.TID 0000.0001) %MON DYF_sd                       =   1.9848812371492E-08
(PID.TID 0000.0001) %MON DYG_max                      =   4.4470989340816E+05
(PID.TID 0000.0001) %MON DYG_min                      =   4.4470989340816E+05
(PID.TID 0000.0001) %MON DYG_mean                     =   4.4470989340814E+05
(PID.TID 0000.0001) %MON DYG_sd                       =   1.9848812371492E-08
(PID.TID 0000.0001) %MON DYU_max                      =   4.4470989340816E+05
(PID.TID 0000.0001) %MON DYU_min                      =   4.4470989340816E+05
(PID.TID 0000.0001) %MON DYU_mean                     =   4.4470989340814E+05
(PID.TID 0000.0001) %MON DYU_sd                       =   1.9848812371492E-08
(PID.TID 0000.0001) %MON RA_max                       =   1.9760627980089E+11
(PID.TID 0000.0001) %MON RA_min                       =   4.1109698667291E+10
(PID.TID 0000.0001) %MON RA_mean                      =   1.3948826965197E+11
(PID.TID 0000.0001) %MON RA_sd                        =   4.9870522472902E+10
(PID.TID 0000.0001) %MON RAW_max                      =   1.9760627980089E+11
(PID.TID 0000.0001) %MON RAW_min                      =   4.1109698667291E+10
(PID.TID 0000.0001) %MON RAW_mean                     =   1.3948826965197E+11
(PID.TID 0000.0001) %MON RAW_sd                       =   4.9870522472902E+10
(PID.TID 0000.0001) %MON RAS_max                      =   1.9772672958215E+11
(PID.TID 0000.0001) %MON RAS_min                      =   3.4334886267982E+10
(PID.TID 0000.0001) %MON RAS_mean                     =   1.3940329716694E+11
(PID.TID 0000.0001) %MON RAS_sd                       =   5.0049278732354E+10
(PID.TID 0000.0001) %MON RAZ_max                      =   1.9772672958215E+11
(PID.TID 0000.0001) %MON RAZ_min                      =   3.4334886267982E+10
(PID.TID 0000.0001) %MON RAZ_mean                     =   1.3940329716694E+11
(PID.TID 0000.0001) %MON RAZ_sd                       =   5.0049278732354E+10
(PID.TID 0000.0001) check_eos: Check the equation of state: Type JMD95P
(PID.TID 0000.0001) rho(35.5 PSU, 3.0 degC, 300. bar) = 1041.83267    -1.00000
(PID.TID 0000.0001) rho(find_rho)                     = 1041.83267 23069.54233
(PID.TID 0000.0001) rho(find_rho_scalar)              = 1041.83267     0.00000
(PID.TID 0000.0001) rho(35.0 PSU,20.0 degC, 200. bar) = 1033.21339    -1.00000
(PID.TID 0000.0001) rho(find_rho)                     = 1033.21283 24455.23234
(PID.TID 0000.0001) rho(find_rho_scalar)              = 1033.21283     0.00000
(PID.TID 0000.0001) rho(35.0 PSU,25.0 degC, 200. bar) = 1031.65423    -1.00000
(PID.TID 0000.0001) rho(find_rho)                     = 1031.65212 24831.95470
(PID.TID 0000.0001) rho(find_rho_scalar)              = 1031.65212     0.00000
(PID.TID 0000.0001) rho(20.0 PSU,20.0 degC, 100. bar) = 1017.72674    -1.00000
(PID.TID 0000.0001) rho(find_rho)                     = 1017.72885 23305.70425
(PID.TID 0000.0001) rho(find_rho_scalar)              = 1017.72885     0.00000
(PID.TID 0000.0001) rho(40.0 PSU,12.0 degC, 800. bar) = 1062.92826    -1.00000
(PID.TID 0000.0001) rho(find_rho)                     = 1062.93765 26197.90058
(PID.TID 0000.0001) rho(find_rho_scalar)              = 1062.93765     0.00000
(PID.TID 0000.0001) rho( 0.0 PSU, 5.0 degC,   0. bar) =  999.96675 20337.80375
(PID.TID 0000.0001) rho(find_rho)                     =  999.96675 20340.00932
(PID.TID 0000.0001) rho(find_rho_scalar)              =  999.96675     0.00000
(PID.TID 0000.0001) rho( 0.0 PSU,25.0 degC,   0. bar) =  997.04796 22100.72106
(PID.TID 0000.0001) rho(find_rho)                     =  997.04795 22338.16845
(PID.TID 0000.0001) rho(find_rho_scalar)              =  997.04795     0.00000
(PID.TID 0000.0001) rho(35.0 PSU, 5.0 degC,   0. bar) = 1027.67547 22185.93358
(PID.TID 0000.0001) rho(find_rho)                     = 1027.67546 22228.20795
(PID.TID 0000.0001) rho(find_rho_scalar)              = 1027.67546     0.00000
(PID.TID 0000.0001) rho(35.0 PSU,25.0 degC,   0. bar) = 1023.34306 23726.34949
(PID.TID 0000.0001) rho(find_rho)                     = 1023.34305 24093.88755
(PID.TID 0000.0001) rho(find_rho_scalar)              = 1023.34305     0.00000
(PID.TID 0000.0001) rho( 0.0 PSU, 4.0 degC,1000. bar) = 1044.12802 23643.52599
(PID.TID 0000.0001) rho(find_rho)                     = 1044.12328 23650.33430
(PID.TID 0000.0001) rho(find_rho_scalar)              = 1044.12328     0.00000
(PID.TID 0000.0001) rho( 0.0 PSU,22.8 degC,1000. bar) = 1037.90204 25405.09717
(PID.TID 0000.0001) rho(find_rho)                     = 1037.89958 25740.15017
(PID.TID 0000.0001) rho(find_rho_scalar)              = 1037.89958     0.00000
(PID.TID 0000.0001) rho(35.0 PSU, 3.6 degC,1000. bar) = 1069.48914 25577.49819
(PID.TID 0000.0001) rho(find_rho)                     = 1069.48678 25670.45688
(PID.TID 0000.0001) rho(find_rho_scalar)              = 1069.48678     0.00000
(PID.TID 0000.0001) rho(35.0 PSU,22.6 degC,1000. bar) = 1062.53817 27108.94504
(PID.TID 0000.0001) rho(find_rho)                     = 1062.53756 27602.20923
(PID.TID 0000.0001) rho(find_rho_scalar)              = 1062.53756     0.00000
(PID.TID 0000.0001) end check the equation of state
(PID.TID 0000.0001)  MDSREADFIELD: opening global file: topog.bin
(PID.TID 0000.0001) // =======================================================
(PID.TID 0000.0001) // Field Model R_low (ini_masks_etc) at iteration          1
(PID.TID 0000.0001) // CMIN =          1.008622348308563E-06
(PID.TID 0000.0001) // CMAX =          1.008622348308563E-06
(PID.TID 0000.0001) // CINT =          0.000000000000000E+00
(PID.TID 0000.0001) // SYMBOLS (CMIN->CMAX): -abcdefghijklmnopqrstuvwxyz+
(PID.TID 0000.0001) //                  0.0: .
(PID.TID 0000.0001) // RANGE I (Lo:Hi:Step):(  -2:  93:   1)
(PID.TID 0000.0001) // RANGE J (Lo:Hi:Step):(  43:  -2:  -1)
(PID.TID 0000.0001) // RANGE K (Lo:Hi:Step):(   1:   1:   1)
(PID.TID 0000.0001) // =======================================================
(PID.TID 0000.0001) K =   1
(PID.TID 0000.0001) //                I=7       I=17      I=27      I=37      I=47      I=57      I=67      I=77      I=87
(PID.TID 0000.0001) // |--J--|**0123456|890123456|890123456|890123456|890123456|890123456|890123456|890123456|890123456|890123
(PID.TID 0000.0001) //     43 ------------------------------------------------------------------------------------------------
(PID.TID 0000.0001) //     42 ------------------------------------------------------------------------------------------------
(PID.TID 0000.0001) //     41 ------------------------------------------------------------------------------------------------
(PID.TID 0000.0001) //     40 ------------------------------------------------------------------------------------------------
(PID.TID 0000.0001) //     39 ------------------------------------------------------------------------------------------------
(PID.TID 0000.0001) //     38 ------------------------------------------------------------------------------------------------
(PID.TID 0000.0001) //     37 ------------------------------------------------------------------------------------------------
(PID.TID 0000.0001) //     36 ------------------------------------------------------------------------------------------------
(PID.TID 0000.0001) //     35 ------------------------------------------------------------------------------------------------
(PID.TID 0000.0001) //     34 ------------------------------------------------------------------------------------------------
(PID.TID 0000.0001) //     33 ------------------------------------------------------------------------------------------------
(PID.TID 0000.0001) //     32 ------------------------------------------------------------------------------------------------
(PID.TID 0000.0001) //     31 ------------------------------------------------------------------------------------------------
(PID.TID 0000.0001) //     30 ------------------------------------------------------------------------------------------------
(PID.TID 0000.0001) //     29 ------------------------------------------------------------------------------------------------
(PID.TID 0000.0001) //     28 ------------------------------------------------------------------------------------------------
(PID.TID 0000.0001) //     27 ------------------------------------------------------------------------------------------------
(PID.TID 0000.0001) //     26 ------------------------------------------------------------------------------------------------
(PID.TID 0000.0001) //     25 ------------------------------------------------------------------------------------------------
(PID.TID 0000.0001) //     24 ------------------------------------------------------------------------------------------------
(PID.TID 0000.0001) //     23 ------------------------------------------------------------------------------------------------
(PID.TID 0000.0001) //     22 ------------------------------------------------------------------------------------------------
(PID.TID 0000.0001) //     21 ------------------------------------------------------------------------------------------------
(PID.TID 0000.0001) //     20 ------------------------------------------------------------------------------------------------
(PID.TID 0000.0001) //     19 ------------------------------------------------------------------------------------------------
(PID.TID 0000.0001) //     18 ------------------------------------------------------------------------------------------------
(PID.TID 0000.0001) //     17 ------------------------------------------------------------------------------------------------
(PID.TID 0000.0001) //     16 ------------------------------------------------------------------------------------------------
(PID.TID 0000.0001) //     15 ------------------------------------------------------------------------------------------------
(PID.TID 0000.0001) //     14 ------------------------------------------------------------------------------------------------
(PID.TID 0000.0001) //     13 ------------------------------------------------------------------------------------------------
(PID.TID 0000.0001) //     12 ------------------------------------------------------------------------------------------------
(PID.TID 0000.0001) //     11 ------------------------------------------------------------------------------------------------
(PID.TID 0000.0001) //     10 ------------------------------------------------------------------------------------------------
(PID.TID 0000.0001) //      9 ------------------------------------------------------------------------------------------------
(PID.TID 0000.0001) //      8 ------------------------------------------------------------------------------------------------
(PID.TID 0000.0001) //      7 ------------------------------------------------------------------------------------------------
(PID.TID 0000.0001) //      6 ------------------------------------------------------------------------------------------------
(PID.TID 0000.0001) //      5 ------------------------------------------------------------------------------------------------
(PID.TID 0000.0001) //      4 ------------------------------------------------------------------------------------------------
(PID.TID 0000.0001) //      3 ------------------------------------------------------------------------------------------------
(PID.TID 0000.0001) //      2 ------------------------------------------------------------------------------------------------
(PID.TID 0000.0001) //      1 ------------------------------------------------------------------------------------------------
(PID.TID 0000.0001) //      0 ------------------------------------------------------------------------------------------------
(PID.TID 0000.0001) //     -1 ------------------------------------------------------------------------------------------------
(PID.TID 0000.0001) //     -2 ------------------------------------------------------------------------------------------------
(PID.TID 0000.0001) // =======================================================
(PID.TID 0000.0001) // END OF FIELD                                          =
(PID.TID 0000.0001) // =======================================================
(PID.TID 0000.0001) 
(PID.TID 0000.0001) // =======================================================
(PID.TID 0000.0001) // Field Model Ro_surf (ini_masks_etc) at iteration          1
(PID.TID 0000.0001) // CMIN =          1.008622348308563E-06
(PID.TID 0000.0001) // CMAX =          5.302312256608400E+07
(PID.TID 0000.0001) // CINT =          1.963819354299370E+06
(PID.TID 0000.0001) // SYMBOLS (CMIN->CMAX): -abcdefghijklmnopqrstuvwxyz+
(PID.TID 0000.0001) //                  0.0: .
(PID.TID 0000.0001) // RANGE I (Lo:Hi:Step):(  -2:  93:   1)
(PID.TID 0000.0001) // RANGE J (Lo:Hi:Step):(  43:  -2:  -1)
(PID.TID 0000.0001) // RANGE K (Lo:Hi:Step):(   1:   1:   1)
(PID.TID 0000.0001) // =======================================================
(PID.TID 0000.0001) K =   1
(PID.TID 0000.0001) //                I=7       I=17      I=27      I=37      I=47      I=57      I=67      I=77      I=87
(PID.TID 0000.0001) // |--J--|**0123456|890123456|890123456|890123456|890123456|890123456|890123456|890123456|890123456|890123
(PID.TID 0000.0001) //     43 ------------------------------------------------------------------------------------------------
(PID.TID 0000.0001) //     42 ---------------------------------------------bbcdnttwwwttttqnnlfddc--abcc-----ccbcltttttba------
(PID.TID 0000.0001) //     41 ------------------------------------------------------------------------------------------------
(PID.TID 0000.0001) //     40 ainnllaa-aaaaaaaaaaaaa------------------------------------------------------------------aaainnll
(PID.TID 0000.0001) //     39 fgnnllibbaaaaaaaa---aa-----------------------------------------------------bdda--------abffgnnll
(PID.TID 0000.0001) //     38 gnllllibbaaaaaaa-----------------------------------------------------------bddca------bccfgnllll
(PID.TID 0000.0001) //     37 gnnnga------------------------------------------------------------------aa---bca---bggc--agnnnga
(PID.TID 0000.0001) //     36 cfgga-----------------------------------------nnaa--------------------aaaaaaabnnn-bllfggffcfgga-
(PID.TID 0000.0001) //     35 daaaa---------------------------------aaaa--iinnqqa---atttn-----------aaa----annqqqnglllgddaaaa-
(PID.TID 0000.0001) //     34 a-------------------------------------affc-tticcfab-wwwttttn------------------anqttqqqtttna-----
(PID.TID 0000.0001) //     33 da-------------------------------------ffa+++t+++++++++wwwtqna-----------------aifwwtnttttda----
(PID.TID 0000.0001) //     32 na-------------------------------------ag++++t++++++++++wwttnn----------------aaatwttqltttna----
(PID.TID 0000.0001) //     31 n--------------------------------------++++++w++++++++++wwwtqn--------------iw++twwwtiltwwn-----
(PID.TID 0000.0001) //     30 q-------------------------------------t++++w++w+++++++++++++ww------------at++++twwwlgqtwwq-----
(PID.TID 0000.0001) //     29 q-----------------------------------gf++++t+++tqt+++++++++++wwt-----------w++w+++wtnqq++wtq-----
(PID.TID 0000.0001) //     28 a---------------------------------actn+++++++++++++++++++wwwwwtq---------iw++++++wntww++wqa-----
(PID.TID 0000.0001) //     27 -----------------cc--------------aftttlt++++++++w+nnw+++wwwwwwttt---aaac-iw++++++qt+++++t-------
(PID.TID 0000.0001) //     26 -----------------cnn-----------afw+++wl+++++++++++qwtn++++++wwtttqg-aa-ii-c++++++tw++++wq-------
(PID.TID 0000.0001) //     25 -----------------qttq---lla---atfw+++wl+++ww++qqtnt+++++++++wwtttqnn---iifnac+++wqw++wwqq-------
(PID.TID 0000.0001) //     24 ---------------cntwwtg-qqqa---ftt-++twn+++++++++++++++++++wwwwwttqnqqqf-afnnddwwwtw++++wt-------
(PID.TID 0000.0001) //     23 ---------------dttwwtl-ttqd---fff--tqtq++++ttw+++++w++++++wwwwwttqqqqqql----bbqwwwt++++ww-------
(PID.TID 0000.0001) //     22 igii-----------wwwqttgnttqq---bb-dlqwwlltwwwwt++++++wt+w++wwwwwwtttqqqqii------dwwwttwwtwwigii--
(PID.TID 0000.0001) //     21 w++wqi--------nwwwwqtiwwwqqb-----dltwwqtttnwwt++++++wqwwwwwwwwwttttqnnill--------twwtqttwww++wqi
(PID.TID 0000.0001) //     20 w++wwi-------nwwwwwtqwwwwqww------b-fqqqgiltttt+++++++wwwwwwwwwwtttqttqqn---------ntt+++ttw++wwi
(PID.TID 0000.0001) //     19 tww++t-------qwwlittl+++qwwwwd---aba-----iannww++++t++++wwwwwwwwttqtttttt-----------w+++wqtww++t
(PID.TID 0000.0001) //     18 tw+++w-------qtnttfqq+++qwww++w+qfaa---iiblntwwwwtwtq+++wwtwwwwwtqtttttwwa----------w+++wqtw+++w
(PID.TID 0000.0001) //     17 tw+++w-------q-twwdqt+++l+++++++qf-----iilnninnnltwww++wwwttttttnqttqtwwwq---------tw+++wqtw+++w
(PID.TID 0000.0001) //     16 tw+++w------gn-wwtnntw++i++++++nf-------flnnfnnndf+++wwqflnttttqntttttwwwqt--------it+++wqtw+++w
(PID.TID 0000.0001) //     15 tw++wlb----aqq-wwwttnwwwnw+++++f---------lggdllnf++++wwwwwtqtttqqtttttwwqttt------atw+++wqtw++wl
(PID.TID 0000.0001) //     14 tw++nwn----dwwi+++tqqqtwnw++w+tb---------ttgglttg++++++wwtwttqqqnqttqqqqtttt-----aqtw+++wntw++nw
(PID.TID 0000.0001) //     13 twwn++t----nwwl+++qwwtqttliiw++n---------wwggittg++++++++wwwtttqqnqqttqttttl----aqttlwwwtntwwn++
(PID.TID 0000.0001) //     12 ttt+++wdaqttwwnwntwwwtntqttww++wt+++a----wwigiilw+++++++++wwqtttqqqqqtttttt-----qwwwwttttnttt+++
(PID.TID 0000.0001) //     11 qtw+++w++qtwwwnnt++wwtlttttwww++++++++--wwwwng-nw+w+++++++++wwwtqntttqqtttt----n+++++wwtqnqtw+++
(PID.TID 0000.0001) //     10 qtw++ww+w++wtiqqt++wwtqnnnqttwwww+++++w-wwwwtd-nbiw+++++++++wwwtqnttwwttqtq--ad++++++wwttnqtw++w
(PID.TID 0000.0001) //      9 nttwwwww+++llglntwtwtqqqttnnnttwwwwwwwwnwwwwt-fbt+++++++++++wwwtnqttwwwttqf-aad++++++wwwtqnttwww
(PID.TID 0000.0001) //      8 ntttqqqw++twwttwwwwfblqttttttnqqqttqqqtwtwwticfw++++++wwwwwwwttqnttwwwwwwta-aacttn++wtwwwtntttqq
(PID.TID 0000.0001) //      7 tninnwwqqt++wnw++wwtgcqtwwwttwwwwwwwttnttwwntw++++++wwwwtttqtqnnttwww+++wwt-aaaintgfqtqwwwtninnw
(PID.TID 0000.0001) //      6 ww++++++++++++++++wwwnggwwwwwwwwwwwwwwtqqqqttw++++wwwtqnnqnwtww+++w+w+++wwwtqqqqtilnniwtqtww++++
(PID.TID 0000.0001) //      5 ++++++++++++++++++wwwttttwwwwwwwwwwwwwtqqqlnlwwwwtttnnnqtwwww++++++++w+wwwwtqqqgitwwwwww++++++++
(PID.TID 0000.0001) //      4 +++tw++++++wwwqttttqqqttqqlbdnnllqqlnqqqqqnnnlnqlnnntttwwwwww+++++++wwwwwttnb--cqtwwwwww+++++tw+
(PID.TID 0000.0001) //      3 tttttilqqqdcc----------------------------cclgnqqqqttwwwwwwwwwtttttwwwwttqqbb--ciqtwwwwwwwwttttti
(PID.TID 0000.0001) //      2 ---------------------------------------------bbcdnttwwwttttqnnlfddc--abcc-----ccbcltttttba------
(PID.TID 0000.0001) //      1 ------------------------------------------------------------------------------------------------
(PID.TID 0000.0001) //      0 ainnllaa-aaaaaaaaaaaaa------------------------------------------------------------------aaainnll
(PID.TID 0000.0001) //     -1 fgnnllibbaaaaaaaa---aa-----------------------------------------------------bdda--------abffgnnll
(PID.TID 0000.0001) //     -2 ------------------------------------------------------------------------------------------------
(PID.TID 0000.0001) // =======================================================
(PID.TID 0000.0001) // END OF FIELD                                          =
(PID.TID 0000.0001) // =======================================================
(PID.TID 0000.0001) 
(PID.TID 0000.0001) // =======================================================
(PID.TID 0000.0001) // Field hFacC at iteration          1
(PID.TID 0000.0001) // CMIN =          1.000000000000000E+00
(PID.TID 0000.0001) // CMAX =          1.000000000000000E+00
(PID.TID 0000.0001) // CINT =          0.000000000000000E+00
(PID.TID 0000.0001) // SYMBOLS (CMIN->CMAX): -abcdefghijklmnopqrstuvwxyz+
(PID.TID 0000.0001) //                  0.0: .
(PID.TID 0000.0001) // RANGE I (Lo:Hi:Step):(  -2:  93:   1)
(PID.TID 0000.0001) // RANGE J (Lo:Hi:Step):(  43:  -2:  -1)
(PID.TID 0000.0001) // RANGE K (Lo:Hi:Step):(   1:   1:   1)
(PID.TID 0000.0001) // =======================================================
(PID.TID 0000.0001) K =   1
(PID.TID 0000.0001) //                I=7       I=17      I=27      I=37      I=47      I=57      I=67      I=77      I=87
(PID.TID 0000.0001) // |--J--|**0123456|890123456|890123456|890123456|890123456|890123456|890123456|890123456|890123456|890123
(PID.TID 0000.0001) //     43 ................................................................................................
(PID.TID 0000.0001) //     42 ................................................................................................
(PID.TID 0000.0001) //     41 ................................................................................................
(PID.TID 0000.0001) //     40 ................................................................................................
(PID.TID 0000.0001) //     39 ................................................................................................
(PID.TID 0000.0001) //     38 ................................................................................................
(PID.TID 0000.0001) //     37 ................................................................................................
(PID.TID 0000.0001) //     36 ................................................................................................
(PID.TID 0000.0001) //     35 ................................................................................................
(PID.TID 0000.0001) //     34 ................................................................................................
(PID.TID 0000.0001) //     33 ..........................................---.---------.........................................
(PID.TID 0000.0001) //     32 .........................................----.----------........................................
(PID.TID 0000.0001) //     31 .......................................------.----------......................--................
(PID.TID 0000.0001) //     30 .......................................----.--.-------------................----................
(PID.TID 0000.0001) //     29 ......................................----.---...-----------...............--.---.....--........
(PID.TID 0000.0001) //     28 ......................................-------------------..................------.....--........
(PID.TID 0000.0001) //     27 ........................................--------.-...---...................------..-----........
(PID.TID 0000.0001) //     26 ..................................---..-----------....------...............------..----.........
(PID.TID 0000.0001) //     25 ..................................---..---..--.....---------.................---...--...........
(PID.TID 0000.0001) //     24 ..................................--...-------------------.........................----.........
(PID.TID 0000.0001) //     23 .......................................----...-----.------.........................----.........
(PID.TID 0000.0001) //     22 ..............................................------..-.--......................................
(PID.TID 0000.0001) //     21 .--...........................................------.......................................--...
(PID.TID 0000.0001) //     20 .--............................................-------...............................---...--...
(PID.TID 0000.0001) //     19 ...--................---.......................----.----.............................---.....--.
(PID.TID 0000.0001) //     18 ..---................---....--.-.....................---.............................---....---.
(PID.TID 0000.0001) //     17 ..---................---.-------.....................--..............................---....---.
(PID.TID 0000.0001) //     16 ..---.................--.------...................---................................---....---.
(PID.TID 0000.0001) //     15 ..--......................-----..................----................................---....--..
(PID.TID 0000.0001) //     14 ..--...........---........--.-...................------..............................---....--..
(PID.TID 0000.0001) //     13 ....--.........---...........--..................--------.....................................--
(PID.TID 0000.0001) //     12 ...---.......................--..---.............---------...................................---
(PID.TID 0000.0001) //     11 ...---.--........--...........--------...........-.---------....................-----........---
(PID.TID 0000.0001) //     10 ...--..-.--......--..............-----.............---------...................------........--.
(PID.TID 0000.0001) //      9 ........---......................................-----------...................------...........
(PID.TID 0000.0001) //      8 ........--......................................------............................--............
(PID.TID 0000.0001) //      7 ..........--...--.............................------.................---........................
(PID.TID 0000.0001) //      6 ..----------------............................----.............---.-.---....................----
(PID.TID 0000.0001) //      5 ------------------...........................................--------.-.................--------
(PID.TID 0000.0001) //      4 ---..------..................................................-------....................-----..-
(PID.TID 0000.0001) //      3 ................................................................................................
(PID.TID 0000.0001) //      2 ................................................................................................
(PID.TID 0000.0001) //      1 ................................................................................................
(PID.TID 0000.0001) //      0 ................................................................................................
(PID.TID 0000.0001) //     -1 ................................................................................................
(PID.TID 0000.0001) //     -2 ................................................................................................
(PID.TID 0000.0001) // =======================================================
(PID.TID 0000.0001) // END OF FIELD                                          =
(PID.TID 0000.0001) // =======================================================
(PID.TID 0000.0001) 
(PID.TID 0000.0001) // =======================================================
(PID.TID 0000.0001) // Field hFacW at iteration          1
(PID.TID 0000.0001) // CMIN =          1.000000000000000E+00
(PID.TID 0000.0001) // CMAX =          1.000000000000000E+00
(PID.TID 0000.0001) // CINT =          0.000000000000000E+00
(PID.TID 0000.0001) // SYMBOLS (CMIN->CMAX): -abcdefghijklmnopqrstuvwxyz+
(PID.TID 0000.0001) //                  0.0: .
(PID.TID 0000.0001) // RANGE I (Lo:Hi:Step):(  -2:  93:   1)
(PID.TID 0000.0001) // RANGE J (Lo:Hi:Step):(  43:  -2:  -1)
(PID.TID 0000.0001) // RANGE K (Lo:Hi:Step):(   1:   1:   1)
(PID.TID 0000.0001) // =======================================================
(PID.TID 0000.0001) K =   1
(PID.TID 0000.0001) //                I=7       I=17      I=27      I=37      I=47      I=57      I=67      I=77      I=87
(PID.TID 0000.0001) // |--J--|**0123456|890123456|890123456|890123456|890123456|890123456|890123456|890123456|890123456|890123
(PID.TID 0000.0001) //     43 ................................................................................................
(PID.TID 0000.0001) //     42 ................................................................................................
(PID.TID 0000.0001) //     41 ................................................................................................
(PID.TID 0000.0001) //     40 ................................................................................................
(PID.TID 0000.0001) //     39 ................................................................................................
(PID.TID 0000.0001) //     38 ................................................................................................
(PID.TID 0000.0001) //     37 ................................................................................................
(PID.TID 0000.0001) //     36 ................................................................................................
(PID.TID 0000.0001) //     35 ................................................................................................
(PID.TID 0000.0001) //     34 ................................................................................................
(PID.TID 0000.0001) //     33 ...........................................--..--------.........................................
(PID.TID 0000.0001) //     32 ..........................................---..---------........................................
(PID.TID 0000.0001) //     31 ........................................-----..---------.......................-................
(PID.TID 0000.0001) //     30 ........................................---..-..------------.................---................
(PID.TID 0000.0001) //     29 .......................................---..--....----------................-..--......-........
(PID.TID 0000.0001) //     28 .......................................------------------...................-----......-........
(PID.TID 0000.0001) //     27 .........................................-------......--....................-----...----........
(PID.TID 0000.0001) //     26 ...................................--...----------.....-----................-----...---.........
(PID.TID 0000.0001) //     25 ...................................--...--...-......--------..................--....-...........
(PID.TID 0000.0001) //     24 ...................................-....------------------..........................---.........
(PID.TID 0000.0001) //     23 ........................................---....----..-----..........................---.........
(PID.TID 0000.0001) //     22 ...............................................-----.....-......................................
(PID.TID 0000.0001) //     21 ..-............................................-----........................................-...
(PID.TID 0000.0001) //     20 ..-.............................................------................................--....-...
(PID.TID 0000.0001) //     19 ....-.................--........................---..---..............................--......-.
(PID.TID 0000.0001) //     18 ...--.................--.....-........................--..............................--.....--.
(PID.TID 0000.0001) //     17 ...--.................--..------......................-...............................--.....--.
(PID.TID 0000.0001) //     16 ...--..................-..-----....................--.................................--.....--.
(PID.TID 0000.0001) //     15 ...-.......................----...................---.................................--.....-..
(PID.TID 0000.0001) //     14 ...-............--.........-......................-----...............................--.....-..
(PID.TID 0000.0001) //     13 .....-..........--............-...................-------......................................-
(PID.TID 0000.0001) //     12 ....--........................-...--..............--------....................................--
(PID.TID 0000.0001) //     11 ....--..-.........-............-------..............--------.....................----.........--
(PID.TID 0000.0001) //     10 ....-.....-.......-...............----..............--------....................-----.........-.
(PID.TID 0000.0001) //      9 .........--.......................................----------....................-----...........
(PID.TID 0000.0001) //      8 .........-.......................................-----.............................-............
(PID.TID 0000.0001) //      7 ...........-....-..............................-----..................--........................
(PID.TID 0000.0001) //      6 ...---------------.............................---..............--....--.....................---
(PID.TID 0000.0001) //      5 ------------------............................................-------....................-------
(PID.TID 0000.0001) //      4 ---...-----...................................................------.....................----...
(PID.TID 0000.0001) //      3 ................................................................................................
(PID.TID 0000.0001) //      2 ................................................................................................
(PID.TID 0000.0001) //      1 ................................................................................................
(PID.TID 0000.0001) //      0 ................................................................................................
(PID.TID 0000.0001) //     -1 ................................................................................................
(PID.TID 0000.0001) //     -2 ................................................................................................
(PID.TID 0000.0001) // =======================================================
(PID.TID 0000.0001) // END OF FIELD                                          =
(PID.TID 0000.0001) // =======================================================
(PID.TID 0000.0001) 
(PID.TID 0000.0001) // =======================================================
(PID.TID 0000.0001) // Field hFacS at iteration          1
(PID.TID 0000.0001) // CMIN =          1.000000000000000E+00
(PID.TID 0000.0001) // CMAX =          1.000000000000000E+00
(PID.TID 0000.0001) // CINT =          0.000000000000000E+00
(PID.TID 0000.0001) // SYMBOLS (CMIN->CMAX): -abcdefghijklmnopqrstuvwxyz+
(PID.TID 0000.0001) //                  0.0: .
(PID.TID 0000.0001) // RANGE I (Lo:Hi:Step):(  -2:  93:   1)
(PID.TID 0000.0001) // RANGE J (Lo:Hi:Step):(  43:  -2:  -1)
(PID.TID 0000.0001) // RANGE K (Lo:Hi:Step):(   1:   1:   1)
(PID.TID 0000.0001) // =======================================================
(PID.TID 0000.0001) K =   1
(PID.TID 0000.0001) //                I=7       I=17      I=27      I=37      I=47      I=57      I=67      I=77      I=87
(PID.TID 0000.0001) // |--J--|**0123456|890123456|890123456|890123456|890123456|890123456|890123456|890123456|890123456|890123
(PID.TID 0000.0001) //     43 ................................................................................................
(PID.TID 0000.0001) //     42 ................................................................................................
(PID.TID 0000.0001) //     41 ................................................................................................
(PID.TID 0000.0001) //     40 ................................................................................................
(PID.TID 0000.0001) //     39 ................................................................................................
(PID.TID 0000.0001) //     38 ................................................................................................
(PID.TID 0000.0001) //     37 ................................................................................................
(PID.TID 0000.0001) //     36 ................................................................................................
(PID.TID 0000.0001) //     35 ................................................................................................
(PID.TID 0000.0001) //     34 ................................................................................................
(PID.TID 0000.0001) //     33 ..........................................---.---------.........................................
(PID.TID 0000.0001) //     32 .........................................----.----------........................................
(PID.TID 0000.0001) //     31 .......................................----.-..---------......................--................
(PID.TID 0000.0001) //     30 .......................................---..--...-----------................-.--................
(PID.TID 0000.0001) //     29 ......................................----.---...--------..................--.---.....--........
(PID.TID 0000.0001) //     28 ........................................--------.-...---...................------.....--........
(PID.TID 0000.0001) //     27 ........................................--------.-....--...................------..----.........
(PID.TID 0000.0001) //     26 ..................................---..---..--........------.................---...--...........
(PID.TID 0000.0001) //     25 ..................................--...---..--.....-------.........................--...........
(PID.TID 0000.0001) //     24 .......................................----...-----.------.........................----.........
(PID.TID 0000.0001) //     23 ..............................................-----...-.--......................................
(PID.TID 0000.0001) //     22 ..............................................------............................................
(PID.TID 0000.0001) //     21 .--............................................-----.......................................--...
(PID.TID 0000.0001) //     20 ...............................................----.--...............................---........
(PID.TID 0000.0001) //     19 ...--................---.............................---.............................---.....--.
(PID.TID 0000.0001) //     18 ..---................---....--.-.....................--..............................---....---.
(PID.TID 0000.0001) //     17 ..---.................--.------......................................................---....---.
(PID.TID 0000.0001) //     16 ..--......................-----...................---................................---....--..
(PID.TID 0000.0001) //     15 ..--......................--.-...................----................................---....--..
(PID.TID 0000.0001) //     14 ...............---...........-...................------.........................................
(PID.TID 0000.0001) //     13 ....--.......................--..................--------.....................................--
(PID.TID 0000.0001) //     12 ...---........................-..---.............-.-------...................................---
(PID.TID 0000.0001) //     11 ...--..-.........--..............-----.............---------....................-----........--.
(PID.TID 0000.0001) //     10 .........--........................................---------...................------...........
(PID.TID 0000.0001) //      9 ........--.......................................-----............................--............
(PID.TID 0000.0001) //      8 ................................................----............................................
(PID.TID 0000.0001) //      7 ..........--...--.............................----...................---........................
(PID.TID 0000.0001) //      6 ..----------------.............................................---.-..-.....................----
(PID.TID 0000.0001) //      5 ---..------..................................................-------....................-----..-
(PID.TID 0000.0001) //      4 ................................................................................................
(PID.TID 0000.0001) //      3 ................................................................................................
(PID.TID 0000.0001) //      2 ................................................................................................
(PID.TID 0000.0001) //      1 ................................................................................................
(PID.TID 0000.0001) //      0 ................................................................................................
(PID.TID 0000.0001) //     -1 ................................................................................................
(PID.TID 0000.0001) //     -2 ................................................................................................
(PID.TID 0000.0001) // =======================================================
(PID.TID 0000.0001) // END OF FIELD                                          =
(PID.TID 0000.0001) // =======================================================
(PID.TID 0000.0001) 
(PID.TID 0000.0001) %MON fCori_max                    =   1.4226580169407E-04
(PID.TID 0000.0001) %MON fCori_min                    =  -1.4226580169407E-04
(PID.TID 0000.0001) %MON fCori_mean                   =   7.5291817533716E-23
(PID.TID 0000.0001) %MON fCori_sd                     =   9.6335367303778E-05
(PID.TID 0000.0001) %MON fCoriG_max                   =   1.4112379284621E-04
(PID.TID 0000.0001) %MON fCoriG_min                   =  -1.4323448157692E-04
(PID.TID 0000.0001) %MON fCoriG_mean                  =  -3.6726790147928E-06
(PID.TID 0000.0001) %MON fCoriG_sd                    =   9.7510077443652E-05
(PID.TID 0000.0001) %MON fCoriCos_max                 =   1.4535550371427E-04
(PID.TID 0000.0001) %MON fCoriCos_min                 =   3.0239529651320E-05
(PID.TID 0000.0001) %MON fCoriCos_mean                =   1.0260497651149E-04
(PID.TID 0000.0001) %MON fCoriCos_sd                  =   3.6683828681187E-05
(PID.TID 0000.0001)  PACKAGES_BOOT: opening data.pkg
(PID.TID 0000.0001)  OPEN_COPY_DATA_FILE: opening file data.pkg
(PID.TID 0000.0001) // =======================================================
(PID.TID 0000.0001) // Parameter file "data.pkg"
(PID.TID 0000.0001) // =======================================================
(PID.TID 0000.0001) ># Packages
(PID.TID 0000.0001) > &PACKAGES
(PID.TID 0000.0001) > &
(PID.TID 0000.0001) 
(PID.TID 0000.0001)  PACKAGES_BOOT: finished reading data.pkg
(PID.TID 0000.0001) 
(PID.TID 0000.0001) // ===================================
(PID.TID 0000.0001) // GAD parameters :
(PID.TID 0000.0001) // ===================================
(PID.TID 0000.0001) tempAdvScheme =   /* Temp. advection scheme selector */
(PID.TID 0000.0001)                       2
(PID.TID 0000.0001)     ;
(PID.TID 0000.0001) tempMultiDimAdvec =   /* use Muti-Dim Advec method for Temp */
(PID.TID 0000.0001)                   F
(PID.TID 0000.0001)     ;
(PID.TID 0000.0001) tempAdamsBashforth =   /* use Adams-Bashforth time-stepping for Temp */
(PID.TID 0000.0001)                   T
(PID.TID 0000.0001)     ;
(PID.TID 0000.0001) saltAdvScheme =   /* Salt. advection scheme selector */
(PID.TID 0000.0001)                       2
(PID.TID 0000.0001)     ;
(PID.TID 0000.0001) saltMultiDimAdvec =   /* use Muti-Dim Advec method for Salt */
(PID.TID 0000.0001)                   F
(PID.TID 0000.0001)     ;
(PID.TID 0000.0001) saltAdamsBashforth =   /* use Adams-Bashforth time-stepping for Salt */
(PID.TID 0000.0001)                   T
(PID.TID 0000.0001)     ;
(PID.TID 0000.0001) // ===================================
(PID.TID 0000.0001) // CG2D normalisation factor =          0.6002578945994698667540502E-08
(PID.TID 0000.0001) 
(PID.TID 0000.0001) CONFIG_CHECK: OK
(PID.TID 0000.0001) // =======================================================
(PID.TID 0000.0001) // Model configuration
(PID.TID 0000.0001) // =======================================================
(PID.TID 0000.0001) //
(PID.TID 0000.0001) // "Physical" paramters ( PARM01 in namelist )
(PID.TID 0000.0001) //
(PID.TID 0000.0001) buoyancyRelation = OCEANICP
(PID.TID 0000.0001) tRef =   /* Reference temperature profile ( oC or oK ) */
(PID.TID 0000.0001)    15 @  2.000000000000000E+01              /* K =  1: 15 */
(PID.TID 0000.0001)     ;
(PID.TID 0000.0001) sRef =   /* Reference salinity profile ( ppt ) */
(PID.TID 0000.0001)    15 @  3.500000000000000E+01              /* K =  1: 15 */
(PID.TID 0000.0001)     ;
(PID.TID 0000.0001) viscAh =   /* Lateral eddy viscosity ( m^2/s ) */
(PID.TID 0000.0001)                 3.000000000000000E+05
(PID.TID 0000.0001)     ;
(PID.TID 0000.0001) viscAh =   /* Lateral biharmonic viscosity ( m^4/s ) */
(PID.TID 0000.0001)                 0.000000000000000E+00
(PID.TID 0000.0001)     ;
(PID.TID 0000.0001) no_slip_sides =  /* Viscous BCs: No-slip sides */
(PID.TID 0000.0001)                   T
(PID.TID 0000.0001)     ;
(PID.TID 0000.0001) viscAr =   /* Vertical eddy viscosity ( units of r^2/s ) */
(PID.TID 0000.0001)                 1.721611620915750E+05
(PID.TID 0000.0001)     ;
(PID.TID 0000.0001) diffKhT =   /* Laplacian diffusion of heat laterally ( m^2/s ) */
(PID.TID 0000.0001)                 1.000000000000000E+03
(PID.TID 0000.0001)     ;
(PID.TID 0000.0001) diffK4T =   /* Bihaarmonic diffusion of heat laterally ( m^4/s ) */
(PID.TID 0000.0001)                 0.000000000000000E+00
(PID.TID 0000.0001)     ;
(PID.TID 0000.0001) diffKzT =   /* Laplacian diffusion of heat vertically ( m^2/s ) */
(PID.TID 0000.0001)                 1.234567000000000E+05
(PID.TID 0000.0001)     ;
(PID.TID 0000.0001) diffKrT =   /* Laplacian diffusion of heat vertically ( m^2/s ) */
(PID.TID 0000.0001)                 5.154525811125000E+03
(PID.TID 0000.0001)     ;
(PID.TID 0000.0001) diffKhS =   /* Laplacian diffusion of salt laterally ( m^2/s ) */
(PID.TID 0000.0001)                 1.000000000000000E+03
(PID.TID 0000.0001)     ;
(PID.TID 0000.0001) diffK4S =   /* Bihaarmonic diffusion of salt laterally ( m^4/s ) */
(PID.TID 0000.0001)                 0.000000000000000E+00
(PID.TID 0000.0001)     ;
(PID.TID 0000.0001) diffKzS =   /* Laplacian diffusion of salt vertically ( m^2/s ) */
(PID.TID 0000.0001)                 1.234567000000000E+05
(PID.TID 0000.0001)     ;
(PID.TID 0000.0001) diffKrS =   /* Laplacian diffusion of salt vertically ( m^2/s ) */
(PID.TID 0000.0001)                 5.154525811125000E+03
(PID.TID 0000.0001)     ;
(PID.TID 0000.0001)  Equation of State : eosType = JMD95P
(PID.TID 0000.0001) tAlpha =   /* Linear EOS thermal expansion coefficient ( 1/degree ) */
(PID.TID 0000.0001)                 1.234567000000000E+05
(PID.TID 0000.0001)     ;
(PID.TID 0000.0001) sBeta =   /* Linear EOS haline contraction coefficient ( 1/ppt ) */
(PID.TID 0000.0001)                 1.234567000000000E+05
(PID.TID 0000.0001)     ;
(PID.TID 0000.0001) rhonil =   /* Reference density ( kg/m^3 ) */
(PID.TID 0000.0001)                 1.035000000000000E+03
(PID.TID 0000.0001)     ;
(PID.TID 0000.0001) rhoConst =   /* Reference density ( kg/m^3 ) */
(PID.TID 0000.0001)                 1.035000000000000E+03
(PID.TID 0000.0001)     ;
(PID.TID 0000.0001) rhoConstFresh =   /* Reference density ( kg/m^3 ) */
(PID.TID 0000.0001)                 9.998000000000000E+02
(PID.TID 0000.0001)     ;
(PID.TID 0000.0001) gravity =   /* Gravitational acceleration ( m/s^2 ) */
(PID.TID 0000.0001)                 9.810000000000000E+00
(PID.TID 0000.0001)     ;
(PID.TID 0000.0001) gBaro =   /* Barotropic gravity ( m/s^2 ) */
(PID.TID 0000.0001)                 9.810000000000000E+00
(PID.TID 0000.0001)     ;
(PID.TID 0000.0001) f0 =   /* Reference coriolis parameter ( 1/s ) */
(PID.TID 0000.0001)                 1.000000000000000E-04
(PID.TID 0000.0001)     ;
(PID.TID 0000.0001) beta =   /* Beta ( 1/(m.s) ) */
(PID.TID 0000.0001)                 9.999999999999999E-12
(PID.TID 0000.0001)     ;
(PID.TID 0000.0001) freeSurfFac =   /* Implicit free surface factor */
(PID.TID 0000.0001)                 1.000000000000000E+00
(PID.TID 0000.0001)     ;
(PID.TID 0000.0001) implicitFreeSurface =   /* Implicit free surface on/off flag */
(PID.TID 0000.0001)                   T
(PID.TID 0000.0001)     ;
(PID.TID 0000.0001) rigidLid =   /* Rigid lid on/off flag */
(PID.TID 0000.0001)                   F
(PID.TID 0000.0001)     ;
(PID.TID 0000.0001) implicSurfPress =   /* Surface Pressure implicit factor (0-1)*/
(PID.TID 0000.0001)                 1.000000000000000E+00
(PID.TID 0000.0001)     ;
(PID.TID 0000.0001) implicDiv2Dflow =   /* Barot. Flow Div. implicit factor (0-1)*/
(PID.TID 0000.0001)                 1.000000000000000E+00
(PID.TID 0000.0001)     ;
(PID.TID 0000.0001) exactConserv =   /* Exact Volume Conservation on/off flag*/
(PID.TID 0000.0001)                   T
(PID.TID 0000.0001)     ;
(PID.TID 0000.0001) uniformLin_PhiSurf =   /* use uniform Bo_surf on/off flag*/
(PID.TID 0000.0001)                   T
(PID.TID 0000.0001)     ;
(PID.TID 0000.0001) nonlinFreeSurf =   /* Non-linear Free Surf. options (-1,0,1,2,3)*/
(PID.TID 0000.0001)                       3
(PID.TID 0000.0001)     ;
(PID.TID 0000.0001)      -1,0= Off ; 1,2,3= On, 2=+rescale gU,gV, 3=+update cg2d solv.
(PID.TID 0000.0001) hFacInf =   /* lower threshold for hFac (nonlinFreeSurf only)*/
(PID.TID 0000.0001)                 2.000000000000000E-01
(PID.TID 0000.0001)     ;
(PID.TID 0000.0001) hFacSup =   /* upper threshold for hFac (nonlinFreeSurf only)*/
(PID.TID 0000.0001)                 2.000000000000000E+00
(PID.TID 0000.0001)     ;
(PID.TID 0000.0001) useRealFreshWaterFlux =   /* Real Fresh Water Flux on/off flag*/
(PID.TID 0000.0001)                   F
(PID.TID 0000.0001)     ;
(PID.TID 0000.0001) convertFW2Salt = /* convert F.W. Flux to Salt Flux (-1=use local S)(ppt)*/
(PID.TID 0000.0001)                 3.500000000000000E+01
(PID.TID 0000.0001)     ;
(PID.TID 0000.0001) multiDimAdvection =   /* enable/disable Multi-Dim Advection */
(PID.TID 0000.0001)                   T
(PID.TID 0000.0001)     ;
(PID.TID 0000.0001) staggerTimeStep =   /* Stagger time stepping on/off flag */
(PID.TID 0000.0001)                   F
(PID.TID 0000.0001)     ;
(PID.TID 0000.0001) momStepping =  /* Momentum equation on/off flag */
(PID.TID 0000.0001)                   T
(PID.TID 0000.0001)     ;
(PID.TID 0000.0001) momAdvection =  /* Momentum advection on/off flag */
(PID.TID 0000.0001)                   T
(PID.TID 0000.0001)     ;
(PID.TID 0000.0001) momViscosity =  /* Momentum viscosity on/off flag */
(PID.TID 0000.0001)                   T
(PID.TID 0000.0001)     ;
(PID.TID 0000.0001) useCoriolis =  /* Coriolis on/off flag */
(PID.TID 0000.0001)                   T
(PID.TID 0000.0001)     ;
(PID.TID 0000.0001) momForcing =  /* Momentum forcing on/off flag */
(PID.TID 0000.0001)                   T
(PID.TID 0000.0001)     ;
(PID.TID 0000.0001) momPressureForcing =  /* Momentum pressure term on/off flag */
(PID.TID 0000.0001)                   T
(PID.TID 0000.0001)     ;
(PID.TID 0000.0001) tempStepping =  /* Temperature equation on/off flag */
(PID.TID 0000.0001)                   T
(PID.TID 0000.0001)     ;
(PID.TID 0000.0001) tempAdvection=  /* Temperature advection on/off flag */
(PID.TID 0000.0001)                   T
(PID.TID 0000.0001)     ;
(PID.TID 0000.0001) tempForcing  =  /* Temperature forcing on/off flag */
(PID.TID 0000.0001)                   T
(PID.TID 0000.0001)     ;
(PID.TID 0000.0001) saltStepping =  /* Salinity equation on/off flag */
(PID.TID 0000.0001)                   T
(PID.TID 0000.0001)     ;
(PID.TID 0000.0001) saltAdvection=  /* Salinity advection on/off flag */
(PID.TID 0000.0001)                   T
(PID.TID 0000.0001)     ;
(PID.TID 0000.0001) saltForcing  =  /* Salinity forcing on/off flag */
(PID.TID 0000.0001)                   T
(PID.TID 0000.0001)     ;
(PID.TID 0000.0001) nonHydrostatic =  /* Non-Hydrostatic on/off flag */
(PID.TID 0000.0001)                   F
(PID.TID 0000.0001)     ;
(PID.TID 0000.0001) //
(PID.TID 0000.0001) // Elliptic solver(s) paramters ( PARM02 in namelist )
(PID.TID 0000.0001) //
(PID.TID 0000.0001) cg2dMaxIters =   /* Upper limit on 2d con. grad iterations  */
(PID.TID 0000.0001)                     200
(PID.TID 0000.0001)     ;
(PID.TID 0000.0001) cg2dChkResFreq =   /* 2d con. grad convergence test frequency */
(PID.TID 0000.0001)                       1
(PID.TID 0000.0001)     ;
(PID.TID 0000.0001) cg2dTargetResidual =   /* 2d con. grad target residual  */
(PID.TID 0000.0001)                 1.000000000000000E-09
(PID.TID 0000.0001)     ;
(PID.TID 0000.0001) //
(PID.TID 0000.0001) // Time stepping paramters ( PARM03 in namelist )
(PID.TID 0000.0001) //
(PID.TID 0000.0001) nIter0 =   /* Base timestep number  */
(PID.TID 0000.0001)                       0
(PID.TID 0000.0001)     ;
(PID.TID 0000.0001) nTimeSteps =   /* Number of timesteps */
(PID.TID 0000.0001)                      20
(PID.TID 0000.0001)     ;
(PID.TID 0000.0001) deltatTmom =   /* Momentum equation timestep ( s ) */
(PID.TID 0000.0001)                 1.200000000000000E+03
(PID.TID 0000.0001)     ;
(PID.TID 0000.0001) deltaTfreesurf =   /* FreeSurface equation timestep ( s ) */
(PID.TID 0000.0001)                 1.728000000000000E+05
(PID.TID 0000.0001)     ;
(PID.TID 0000.0001) deltatTtracer =   /* Tracer equation timestep ( s ) */
(PID.TID 0000.0001)                 1.728000000000000E+05
(PID.TID 0000.0001)     ;
(PID.TID 0000.0001) deltatTClock  =   /* Model clock timestep ( s ) */
(PID.TID 0000.0001)                 1.728000000000000E+05
(PID.TID 0000.0001)     ;
(PID.TID 0000.0001) cAdjFreq =   /* Convective adjustment interval ( s ) */
(PID.TID 0000.0001)                 0.000000000000000E+00
(PID.TID 0000.0001)     ;
(PID.TID 0000.0001) forcing_In_AB =   /* put T,S Forcing in Adams-Bash. stepping */
(PID.TID 0000.0001)                   T
(PID.TID 0000.0001)     ;
(PID.TID 0000.0001) abeps =   /* Adams-Bashforth stabilizing weight */
(PID.TID 0000.0001)                 1.000000000000000E-01
(PID.TID 0000.0001)     ;
(PID.TID 0000.0001) tauCD =   /* CD coupling time-scale ( s ) */
(PID.TID 0000.0001)                 1.200000000000000E+03
(PID.TID 0000.0001)     ;
(PID.TID 0000.0001) rCD =   /* Normalised CD coupling parameter */
(PID.TID 0000.0001)                 0.000000000000000E+00
(PID.TID 0000.0001)     ;
(PID.TID 0000.0001) startTime =   /* Run start time ( s ). */
(PID.TID 0000.0001)                 0.000000000000000E+00
(PID.TID 0000.0001)     ;
(PID.TID 0000.0001) endTime =   /* Integration ending time ( s ). */
(PID.TID 0000.0001)                 3.456000000000000E+06
(PID.TID 0000.0001)     ;
(PID.TID 0000.0001) pChkPtFreq =   /* Permanent restart/checkpoint file interval ( s ). */
(PID.TID 0000.0001)                 3.110400000000000E+09
(PID.TID 0000.0001)     ;
(PID.TID 0000.0001) chkPtFreq =   /* Rolling restart/checkpoint file interval ( s ). */
(PID.TID 0000.0001)                 0.000000000000000E+00
(PID.TID 0000.0001)     ;
(PID.TID 0000.0001) dumpFreq =   /* Model state write out interval ( s ). */
(PID.TID 0000.0001)                 3.110400000000000E+09
(PID.TID 0000.0001)     ;
(PID.TID 0000.0001) //
(PID.TID 0000.0001) // Gridding paramters ( PARM04 in namelist )
(PID.TID 0000.0001) //
(PID.TID 0000.0001) usingCartesianGrid =   /* Cartesian coordinates flag ( True / False ) */
(PID.TID 0000.0001)                   F
(PID.TID 0000.0001)     ;
(PID.TID 0000.0001) usingSphericalPolarGrid =   /* Spherical coordinates flag ( True / False ) */
(PID.TID 0000.0001)                   T
(PID.TID 0000.0001)     ;
(PID.TID 0000.0001) groundAtK1 =   /* Lower Boundary (ground) at the surface(k=1) ( T / F ) */
(PID.TID 0000.0001)                   T
(PID.TID 0000.0001)     ;
(PID.TID 0000.0001) Ro_SeaLevel =   /* r(1) ( units of r ) */
(PID.TID 0000.0001)                 5.302312256608400E+07
(PID.TID 0000.0001)     ;
(PID.TID 0000.0001) rkFac =   /* minus Vertical index orientation  */
(PID.TID 0000.0001)                 1.000000000000000E+00
(PID.TID 0000.0001)     ;
(PID.TID 0000.0001) horiVertRatio =   /* Ratio on units : Horiz - Vertical */
(PID.TID 0000.0001)                 1.015335000000000E+04
(PID.TID 0000.0001)     ;
(PID.TID 0000.0001) drC =   /* C spacing ( units of r ) */
(PID.TID 0000.0001)                 3.551650360010500E+06,      /* K =  1 */
(PID.TID 0000.0001)                 6.836924580405500E+06,      /* K =  2 */
(PID.TID 0000.0001)                 6.306109225519501E+06,      /* K =  3 */
(PID.TID 0000.0001)                 5.779053338153000E+06,      /* K =  4 */
(PID.TID 0000.0001)                 5.255519350233500E+06,      /* K =  5 */
(PID.TID 0000.0001)                 4.735252734850001E+06,      /* K =  6 */
(PID.TID 0000.0001)                 4.217983340545500E+06,      /* K =  7 */
(PID.TID 0000.0001)                 3.703426779226000E+06,      /* K =  8 */
(PID.TID 0000.0001)                 3.191285859157500E+06,      /* K =  9 */
(PID.TID 0000.0001)                 2.681252055355000E+06,      /* K = 10 */
(PID.TID 0000.0001)                 2.173007010517000E+06,      /* K = 11 */
(PID.TID 0000.0001)                 1.666224060479000E+06,      /* K = 12 */
(PID.TID 0000.0001)                 1.211001777568000E+06,      /* K = 13 */
(PID.TID 0000.0001)                 8.573828878235000E+05,      /* K = 14 */
(PID.TID 0000.0001)                 6.050043594899999E+05       /* K = 15 */
(PID.TID 0000.0001)     ;
(PID.TID 0000.0001) drF =   /* W spacing ( units of r ) */
(PID.TID 0000.0001)                 7.103300720021000E+06,      /* K =  1 */
(PID.TID 0000.0001)                 6.570548440790000E+06,      /* K =  2 */
(PID.TID 0000.0001)                 6.041670010249000E+06,      /* K =  3 */
(PID.TID 0000.0001)                 5.516436666057000E+06,      /* K =  4 */
(PID.TID 0000.0001)                 4.994602034410000E+06,      /* K =  5 */
(PID.TID 0000.0001)                 4.475903435290000E+06,      /* K =  6 */
(PID.TID 0000.0001)                 3.960063245801000E+06,      /* K =  7 */
(PID.TID 0000.0001)                 3.446790312651000E+06,      /* K =  8 */
(PID.TID 0000.0001)                 2.935781405664000E+06,      /* K =  9 */
(PID.TID 0000.0001)                 2.426722705046000E+06,      /* K = 10 */
(PID.TID 0000.0001)                 1.919291315988000E+06,      /* K = 11 */
(PID.TID 0000.0001)                 1.413156804970000E+06,      /* K = 12 */
(PID.TID 0000.0001)                 1.008846750166000E+06,      /* K = 13 */
(PID.TID 0000.0001)                 7.059190254810000E+05,      /* K = 14 */
(PID.TID 0000.0001)                 5.040896934990000E+05       /* K = 15 */
(PID.TID 0000.0001)     ;
(PID.TID 0000.0001) delX =   /* U spacing ( m - cartesian, degrees - spherical ) */
(PID.TID 0000.0001)    90 @  4.000000000000000E+00              /* I =  1: 90 */
(PID.TID 0000.0001)     ;
(PID.TID 0000.0001) delY =   /* V spacing ( m - cartesian, degrees - spherical ) */
(PID.TID 0000.0001)    40 @  4.000000000000000E+00              /* J =  1: 40 */
(PID.TID 0000.0001)     ;
(PID.TID 0000.0001) phiMin =    /* South edge (ignored - cartesian, degrees - spherical ) */
(PID.TID 0000.0001)                -8.000000000000000E+01
(PID.TID 0000.0001)     ;
(PID.TID 0000.0001) thetaMin =    /* West edge ( ignored - cartesian, degrees - spherical ) */
(PID.TID 0000.0001)                 0.000000000000000E+00
(PID.TID 0000.0001)     ;
(PID.TID 0000.0001) rSphere =    /* Radius ( ignored - cartesian, m - spherical ) */
(PID.TID 0000.0001)                 6.370000000000000E+06
(PID.TID 0000.0001)     ;
(PID.TID 0000.0001) xcoord =   /* P-point X coord ( m - cartesian, degrees - spherical ) */
(PID.TID 0000.0001)                 2.000000000000000E+00,      /* I =  1 */
(PID.TID 0000.0001)                 6.000000000000000E+00,      /* I =  2 */
(PID.TID 0000.0001)                 1.000000000000000E+01,      /* I =  3 */
(PID.TID 0000.0001)                 1.400000000000000E+01,      /* I =  4 */
(PID.TID 0000.0001)                 1.800000000000000E+01,      /* I =  5 */
(PID.TID 0000.0001)                 2.200000000000000E+01,      /* I =  6 */
(PID.TID 0000.0001)                 2.600000000000000E+01,      /* I =  7 */
(PID.TID 0000.0001)                 3.000000000000000E+01,      /* I =  8 */
(PID.TID 0000.0001)                 3.400000000000000E+01,      /* I =  9 */
(PID.TID 0000.0001)                 3.800000000000000E+01,      /* I = 10 */
(PID.TID 0000.0001)                 4.200000000000000E+01,      /* I = 11 */
(PID.TID 0000.0001)                 4.600000000000000E+01,      /* I = 12 */
(PID.TID 0000.0001)                 5.000000000000000E+01,      /* I = 13 */
(PID.TID 0000.0001)                 5.400000000000000E+01,      /* I = 14 */
(PID.TID 0000.0001)                 5.800000000000000E+01,      /* I = 15 */
(PID.TID 0000.0001)                 6.200000000000000E+01,      /* I = 16 */
(PID.TID 0000.0001)                 6.600000000000000E+01,      /* I = 17 */
(PID.TID 0000.0001)                 7.000000000000000E+01,      /* I = 18 */
(PID.TID 0000.0001)                 7.400000000000000E+01,      /* I = 19 */
(PID.TID 0000.0001)                 7.800000000000000E+01,      /* I = 20 */
(PID.TID 0000.0001)                 8.200000000000000E+01,      /* I = 21 */
(PID.TID 0000.0001)                 8.600000000000000E+01,      /* I = 22 */
(PID.TID 0000.0001)                 9.000000000000000E+01,      /* I = 23 */
(PID.TID 0000.0001)                 9.400000000000000E+01,      /* I = 24 */
(PID.TID 0000.0001)                 9.800000000000000E+01,      /* I = 25 */
(PID.TID 0000.0001)                 1.020000000000000E+02,      /* I = 26 */
(PID.TID 0000.0001)                 1.060000000000000E+02,      /* I = 27 */
(PID.TID 0000.0001)                 1.100000000000000E+02,      /* I = 28 */
(PID.TID 0000.0001)                 1.140000000000000E+02,      /* I = 29 */
(PID.TID 0000.0001)                 1.180000000000000E+02,      /* I = 30 */
(PID.TID 0000.0001)                 1.220000000000000E+02,      /* I = 31 */
(PID.TID 0000.0001)                 1.260000000000000E+02,      /* I = 32 */
(PID.TID 0000.0001)                 1.300000000000000E+02,      /* I = 33 */
(PID.TID 0000.0001)                 1.340000000000000E+02,      /* I = 34 */
(PID.TID 0000.0001)                 1.380000000000000E+02,      /* I = 35 */
(PID.TID 0000.0001)                 1.420000000000000E+02,      /* I = 36 */
(PID.TID 0000.0001)                 1.460000000000000E+02,      /* I = 37 */
(PID.TID 0000.0001)                 1.500000000000000E+02,      /* I = 38 */
(PID.TID 0000.0001)                 1.540000000000000E+02,      /* I = 39 */
(PID.TID 0000.0001)                 1.580000000000000E+02,      /* I = 40 */
(PID.TID 0000.0001)                 1.620000000000000E+02,      /* I = 41 */
(PID.TID 0000.0001)                 1.660000000000000E+02,      /* I = 42 */
(PID.TID 0000.0001)                 1.700000000000000E+02,      /* I = 43 */
(PID.TID 0000.0001)                 1.740000000000000E+02,      /* I = 44 */
(PID.TID 0000.0001)                 1.780000000000000E+02,      /* I = 45 */
(PID.TID 0000.0001)                 1.820000000000000E+02,      /* I = 46 */
(PID.TID 0000.0001)                 1.860000000000000E+02,      /* I = 47 */
(PID.TID 0000.0001)                 1.900000000000000E+02,      /* I = 48 */
(PID.TID 0000.0001)                 1.940000000000000E+02,      /* I = 49 */
(PID.TID 0000.0001)                 1.980000000000000E+02,      /* I = 50 */
(PID.TID 0000.0001)                 2.020000000000000E+02,      /* I = 51 */
(PID.TID 0000.0001)                 2.060000000000000E+02,      /* I = 52 */
(PID.TID 0000.0001)                 2.100000000000000E+02,      /* I = 53 */
(PID.TID 0000.0001)                 2.140000000000000E+02,      /* I = 54 */
(PID.TID 0000.0001)                 2.180000000000000E+02,      /* I = 55 */
(PID.TID 0000.0001)                 2.220000000000000E+02,      /* I = 56 */
(PID.TID 0000.0001)                 2.260000000000000E+02,      /* I = 57 */
(PID.TID 0000.0001)                 2.300000000000000E+02,      /* I = 58 */
(PID.TID 0000.0001)                 2.340000000000000E+02,      /* I = 59 */
(PID.TID 0000.0001)                 2.380000000000000E+02,      /* I = 60 */
(PID.TID 0000.0001)                 2.420000000000000E+02,      /* I = 61 */
(PID.TID 0000.0001)                 2.460000000000000E+02,      /* I = 62 */
(PID.TID 0000.0001)                 2.500000000000000E+02,      /* I = 63 */
(PID.TID 0000.0001)                 2.540000000000000E+02,      /* I = 64 */
(PID.TID 0000.0001)                 2.580000000000000E+02,      /* I = 65 */
(PID.TID 0000.0001)                 2.620000000000000E+02,      /* I = 66 */
(PID.TID 0000.0001)                 2.660000000000000E+02,      /* I = 67 */
(PID.TID 0000.0001)                 2.700000000000000E+02,      /* I = 68 */
(PID.TID 0000.0001)                 2.740000000000000E+02,      /* I = 69 */
(PID.TID 0000.0001)                 2.780000000000000E+02,      /* I = 70 */
(PID.TID 0000.0001)                 2.820000000000000E+02,      /* I = 71 */
(PID.TID 0000.0001)                 2.860000000000000E+02,      /* I = 72 */
(PID.TID 0000.0001)                 2.900000000000000E+02,      /* I = 73 */
(PID.TID 0000.0001)                 2.940000000000000E+02,      /* I = 74 */
(PID.TID 0000.0001)                 2.980000000000000E+02,      /* I = 75 */
(PID.TID 0000.0001)                 3.020000000000000E+02,      /* I = 76 */
(PID.TID 0000.0001)                 3.060000000000000E+02,      /* I = 77 */
(PID.TID 0000.0001)                 3.100000000000000E+02,      /* I = 78 */
(PID.TID 0000.0001)                 3.140000000000000E+02,      /* I = 79 */
(PID.TID 0000.0001)                 3.180000000000000E+02,      /* I = 80 */
(PID.TID 0000.0001)                 3.220000000000000E+02,      /* I = 81 */
(PID.TID 0000.0001)                 3.260000000000000E+02,      /* I = 82 */
(PID.TID 0000.0001)                 3.300000000000000E+02,      /* I = 83 */
(PID.TID 0000.0001)                 3.340000000000000E+02,      /* I = 84 */
(PID.TID 0000.0001)                 3.380000000000000E+02,      /* I = 85 */
(PID.TID 0000.0001)                 3.420000000000000E+02,      /* I = 86 */
(PID.TID 0000.0001)                 3.460000000000000E+02,      /* I = 87 */
(PID.TID 0000.0001)                 3.500000000000000E+02,      /* I = 88 */
(PID.TID 0000.0001)                 3.540000000000000E+02,      /* I = 89 */
(PID.TID 0000.0001)                 3.580000000000000E+02       /* I = 90 */
(PID.TID 0000.0001)     ;
(PID.TID 0000.0001) ycoord =   /* P-point Y coord ( m - cartesian, degrees - spherical ) */
(PID.TID 0000.0001)                -7.800000000000000E+01,      /* J =  1 */
(PID.TID 0000.0001)                -7.400000000000000E+01,      /* J =  2 */
(PID.TID 0000.0001)                -7.000000000000000E+01,      /* J =  3 */
(PID.TID 0000.0001)                -6.600000000000000E+01,      /* J =  4 */
(PID.TID 0000.0001)                -6.200000000000000E+01,      /* J =  5 */
(PID.TID 0000.0001)                -5.800000000000000E+01,      /* J =  6 */
(PID.TID 0000.0001)                -5.400000000000000E+01,      /* J =  7 */
(PID.TID 0000.0001)                -5.000000000000000E+01,      /* J =  8 */
(PID.TID 0000.0001)                -4.600000000000000E+01,      /* J =  9 */
(PID.TID 0000.0001)                -4.200000000000000E+01,      /* J = 10 */
(PID.TID 0000.0001)                -3.800000000000000E+01,      /* J = 11 */
(PID.TID 0000.0001)                -3.400000000000000E+01,      /* J = 12 */
(PID.TID 0000.0001)                -3.000000000000000E+01,      /* J = 13 */
(PID.TID 0000.0001)                -2.600000000000000E+01,      /* J = 14 */
(PID.TID 0000.0001)                -2.200000000000000E+01,      /* J = 15 */
(PID.TID 0000.0001)                -1.800000000000000E+01,      /* J = 16 */
(PID.TID 0000.0001)                -1.400000000000000E+01,      /* J = 17 */
(PID.TID 0000.0001)                -1.000000000000000E+01,      /* J = 18 */
(PID.TID 0000.0001)                -6.000000000000000E+00,      /* J = 19 */
(PID.TID 0000.0001)                -2.000000000000000E+00,      /* J = 20 */
(PID.TID 0000.0001)                 2.000000000000000E+00,      /* J = 21 */
(PID.TID 0000.0001)                 6.000000000000000E+00,      /* J = 22 */
(PID.TID 0000.0001)                 1.000000000000000E+01,      /* J = 23 */
(PID.TID 0000.0001)                 1.400000000000000E+01,      /* J = 24 */
(PID.TID 0000.0001)                 1.800000000000000E+01,      /* J = 25 */
(PID.TID 0000.0001)                 2.200000000000000E+01,      /* J = 26 */
(PID.TID 0000.0001)                 2.600000000000000E+01,      /* J = 27 */
(PID.TID 0000.0001)                 3.000000000000000E+01,      /* J = 28 */
(PID.TID 0000.0001)                 3.400000000000000E+01,      /* J = 29 */
(PID.TID 0000.0001)                 3.800000000000000E+01,      /* J = 30 */
(PID.TID 0000.0001)                 4.200000000000000E+01,      /* J = 31 */
(PID.TID 0000.0001)                 4.600000000000000E+01,      /* J = 32 */
(PID.TID 0000.0001)                 5.000000000000000E+01,      /* J = 33 */
(PID.TID 0000.0001)                 5.400000000000000E+01,      /* J = 34 */
(PID.TID 0000.0001)                 5.800000000000000E+01,      /* J = 35 */
(PID.TID 0000.0001)                 6.200000000000000E+01,      /* J = 36 */
(PID.TID 0000.0001)                 6.600000000000000E+01,      /* J = 37 */
(PID.TID 0000.0001)                 7.000000000000000E+01,      /* J = 38 */
(PID.TID 0000.0001)                 7.400000000000000E+01,      /* J = 39 */
(PID.TID 0000.0001)                 7.800000000000000E+01       /* J = 40 */
(PID.TID 0000.0001)     ;
(PID.TID 0000.0001) rcoord =   /* P-point R coordinate (  units of r ) */
(PID.TID 0000.0001)                 4.947147220607350E+07,      /* K =  1 */
(PID.TID 0000.0001)                 4.263454762566800E+07,      /* K =  2 */
(PID.TID 0000.0001)                 3.632843840014850E+07,      /* K =  3 */
(PID.TID 0000.0001)                 3.054938506199550E+07,      /* K =  4 */
(PID.TID 0000.0001)                 2.529386571176200E+07,      /* K =  5 */
(PID.TID 0000.0001)                 2.055861297691200E+07,      /* K =  6 */
(PID.TID 0000.0001)                 1.634062963636650E+07,      /* K =  7 */
(PID.TID 0000.0001)                 1.263720285714050E+07,      /* K =  8 */
(PID.TID 0000.0001)                 9.445916997983005E+06,      /* K =  9 */
(PID.TID 0000.0001)                 6.764664942628005E+06,      /* K = 10 */
(PID.TID 0000.0001)                 4.591657932111004E+06,      /* K = 11 */
(PID.TID 0000.0001)                 2.925433871632004E+06,      /* K = 12 */
(PID.TID 0000.0001)                 1.714432094064004E+06,      /* K = 13 */
(PID.TID 0000.0001)                 8.570492062405043E+05,      /* K = 14 */
(PID.TID 0000.0001)                 2.520448467505043E+05       /* K = 15 */
(PID.TID 0000.0001)     ;
(PID.TID 0000.0001) rF =   /* W-Interf. R coordinate (  units of r ) */
(PID.TID 0000.0001)                 5.302312256608400E+07,      /* K =  1 */
(PID.TID 0000.0001)                 4.591982184606300E+07,      /* K =  2 */
(PID.TID 0000.0001)                 3.934927340527300E+07,      /* K =  3 */
(PID.TID 0000.0001)                 3.330760339502400E+07,      /* K =  4 */
(PID.TID 0000.0001)                 2.779116672896700E+07,      /* K =  5 */
(PID.TID 0000.0001)                 2.279656469455700E+07,      /* K =  6 */
(PID.TID 0000.0001)                 1.832066125926699E+07,      /* K =  7 */
(PID.TID 0000.0001)                 1.436059801346599E+07,      /* K =  8 */
(PID.TID 0000.0001)                 1.091380770081500E+07,      /* K =  9 */
(PID.TID 0000.0001)                 7.978026295150995E+06,      /* K = 10 */
(PID.TID 0000.0001)                 5.551303590104995E+06,      /* K = 11 */
(PID.TID 0000.0001)                 3.632012274116995E+06,      /* K = 12 */
(PID.TID 0000.0001)                 2.218855469146995E+06,      /* K = 13 */
(PID.TID 0000.0001)                 1.210008718980995E+06,      /* K = 14 */
(PID.TID 0000.0001)                 5.040896934999955E+05,      /* K = 15 */
(PID.TID 0000.0001)                 9.955256246030331E-07       /* K = 16 */
(PID.TID 0000.0001)     ;
(PID.TID 0000.0001) dxF =  /* dxF(:,1,:,1) ( m - cartesian, degrees - spherical ) */
(PID.TID 0000.0001)    90 @  9.246038586187513E+04              /* I =  1: 90 */
(PID.TID 0000.0001)     ;
(PID.TID 0000.0001) dxF =  /* dxF(1,:,1,:) ( m - cartesian, degrees - spherical ) */
(PID.TID 0000.0001)                 9.246038586187513E+04,      /* J =  1 */
(PID.TID 0000.0001)                 1.225786591246834E+05,      /* J =  2 */
(PID.TID 0000.0001)                 1.520997414818001E+05,      /* J =  3 */
(PID.TID 0000.0001)                 1.808798091874300E+05,      /* J =  4 */
(PID.TID 0000.0001)                 2.087786486446736E+05,      /* J =  5 */
(PID.TID 0000.0001)                 2.356603395120766E+05,      /* J =  6 */
(PID.TID 0000.0001)                 2.613939168938713E+05,      /* J =  7 */
(PID.TID 0000.0001)                 2.858540093877838E+05,      /* J =  8 */
(PID.TID 0000.0001)                 3.089214498819035E+05,      /* J =  9 */
(PID.TID 0000.0001)                 3.304838561248741E+05,      /* J = 10 */
(PID.TID 0000.0001)                 3.504361782409254E+05,      /* J = 11 */
(PID.TID 0000.0001)                 3.686812105223083E+05,      /* J = 12 */
(PID.TID 0000.0001)                 3.851300650057322E+05,      /* J = 13 */
(PID.TID 0000.0001)                 3.997026045255871E+05,      /* J = 14 */
(PID.TID 0000.0001)                 4.123278331341585E+05,      /* J = 15 */
(PID.TID 0000.0001)                 4.229442419867491E+05,      /* J = 16 */
(PID.TID 0000.0001)                 4.315001090065869E+05,      /* J = 17 */
(PID.TID 0000.0001)                 4.379537508695839E+05,      /* J = 18 */
(PID.TID 0000.0001)                 4.422737260813013E+05,      /* J = 19 */
(PID.TID 0000.0001)     2 @  4.444389881567501E+05,             /* J = 20: 21 */
(PID.TID 0000.0001)                 4.422737260813013E+05,      /* J = 22 */
(PID.TID 0000.0001)                 4.379537508695839E+05,      /* J = 23 */
(PID.TID 0000.0001)                 4.315001090065869E+05,      /* J = 24 */
(PID.TID 0000.0001)                 4.229442419867491E+05,      /* J = 25 */
(PID.TID 0000.0001)                 4.123278331341585E+05,      /* J = 26 */
(PID.TID 0000.0001)                 3.997026045255871E+05,      /* J = 27 */
(PID.TID 0000.0001)                 3.851300650057322E+05,      /* J = 28 */
(PID.TID 0000.0001)                 3.686812105223083E+05,      /* J = 29 */
(PID.TID 0000.0001)                 3.504361782409254E+05,      /* J = 30 */
(PID.TID 0000.0001)                 3.304838561248741E+05,      /* J = 31 */
(PID.TID 0000.0001)                 3.089214498819035E+05,      /* J = 32 */
(PID.TID 0000.0001)                 2.858540093877838E+05,      /* J = 33 */
(PID.TID 0000.0001)                 2.613939168938713E+05,      /* J = 34 */
(PID.TID 0000.0001)                 2.356603395120766E+05,      /* J = 35 */
(PID.TID 0000.0001)                 2.087786486446736E+05,      /* J = 36 */
(PID.TID 0000.0001)                 1.808798091874300E+05,      /* J = 37 */
(PID.TID 0000.0001)                 1.520997414818001E+05,      /* J = 38 */
(PID.TID 0000.0001)                 1.225786591246834E+05,      /* J = 39 */
(PID.TID 0000.0001)                 9.246038586187513E+04       /* J = 40 */
(PID.TID 0000.0001)     ;
(PID.TID 0000.0001) dyF =  /* dyF(:,1,:,1) ( m - cartesian, degrees - spherical ) */
(PID.TID 0000.0001)    90 @  4.447098934081552E+05              /* I =  1: 90 */
(PID.TID 0000.0001)     ;
(PID.TID 0000.0001) dyF =  /* dyF(1,:,1,:) ( m - cartesian, degrees - spherical ) */
(PID.TID 0000.0001)    40 @  4.447098934081552E+05              /* J =  1: 40 */
(PID.TID 0000.0001)     ;
(PID.TID 0000.0001) dxG =  /* dxG(:,1,:,1) ( m - cartesian, degrees - spherical ) */
(PID.TID 0000.0001)    90 @  7.722306258078101E+04              /* I =  1: 90 */
(PID.TID 0000.0001)     ;
(PID.TID 0000.0001) dxG =  /* dxG(1,:,1,:) ( m - cartesian, degrees - spherical ) */
(PID.TID 0000.0001)                 7.722306258078101E+04,      /* J =  1 */
(PID.TID 0000.0001)                 1.075850604052271E+05,      /* J =  2 */
(PID.TID 0000.0001)                 1.374229146297914E+05,      /* J =  3 */
(PID.TID 0000.0001)                 1.665912582279823E+05,      /* J =  4 */
(PID.TID 0000.0001)                 1.949479859617814E+05,      /* J =  5 */
(PID.TID 0000.0001)                 2.223549467040776E+05,      /* J =  6 */
(PID.TID 0000.0001)                 2.486786164970726E+05,      /* J =  7 */
(PID.TID 0000.0001)                 2.737907490675810E+05,      /* J =  8 */
(PID.TID 0000.0001)                 2.975690006299820E+05,      /* J =  9 */
(PID.TID 0000.0001)                 3.198975259328452E+05,      /* J = 10 */
(PID.TID 0000.0001)                 3.406675426453503E+05,      /* J = 11 */
(PID.TID 0000.0001)                 3.597778613338689E+05,      /* J = 12 */
(PID.TID 0000.0001)                 3.771353784467131E+05,      /* J = 13 */
(PID.TID 0000.0001)                 3.926555299052806E+05,      /* J = 14 */
(PID.TID 0000.0001)                 4.062627030917454E+05,      /* J = 15 */
(PID.TID 0000.0001)                 4.178906052261313E+05,      /* J = 16 */
(PID.TID 0000.0001)                 4.274825863380723E+05,      /* J = 17 */
(PID.TID 0000.0001)                 4.349919152597734E+05,      /* J = 18 */
(PID.TID 0000.0001)                 4.403820072955634E+05,      /* J = 19 */
(PID.TID 0000.0001)                 4.436266024588540E+05,      /* J = 20 */
(PID.TID 0000.0001)                 4.447098934081552E+05,      /* J = 21 */
(PID.TID 0000.0001)                 4.436266024588540E+05,      /* J = 22 */
(PID.TID 0000.0001)                 4.403820072955634E+05,      /* J = 23 */
(PID.TID 0000.0001)                 4.349919152597734E+05,      /* J = 24 */
(PID.TID 0000.0001)                 4.274825863380723E+05,      /* J = 25 */
(PID.TID 0000.0001)                 4.178906052261313E+05,      /* J = 26 */
(PID.TID 0000.0001)                 4.062627030917454E+05,      /* J = 27 */
(PID.TID 0000.0001)                 3.926555299052806E+05,      /* J = 28 */
(PID.TID 0000.0001)                 3.771353784467131E+05,      /* J = 29 */
(PID.TID 0000.0001)                 3.597778613338689E+05,      /* J = 30 */
(PID.TID 0000.0001)                 3.406675426453503E+05,      /* J = 31 */
(PID.TID 0000.0001)                 3.198975259328452E+05,      /* J = 32 */
(PID.TID 0000.0001)                 2.975690006299820E+05,      /* J = 33 */
(PID.TID 0000.0001)                 2.737907490675810E+05,      /* J = 34 */
(PID.TID 0000.0001)                 2.486786164970726E+05,      /* J = 35 */
(PID.TID 0000.0001)                 2.223549467040776E+05,      /* J = 36 */
(PID.TID 0000.0001)                 1.949479859617814E+05,      /* J = 37 */
(PID.TID 0000.0001)                 1.665912582279823E+05,      /* J = 38 */
(PID.TID 0000.0001)                 1.374229146297914E+05,      /* J = 39 */
(PID.TID 0000.0001)                 1.075850604052271E+05       /* J = 40 */
(PID.TID 0000.0001)     ;
(PID.TID 0000.0001) dyG =  /* dyG(:,1,:,1) ( m - cartesian, degrees - spherical ) */
(PID.TID 0000.0001)    90 @  4.447098934081552E+05              /* I =  1: 90 */
(PID.TID 0000.0001)     ;
(PID.TID 0000.0001) dyG =  /* dyG(1,:,1,:) ( m - cartesian, degrees - spherical ) */
(PID.TID 0000.0001)    40 @  4.447098934081552E+05              /* J =  1: 40 */
(PID.TID 0000.0001)     ;
(PID.TID 0000.0001) dxC =  /* dxC(:,1,:,1) ( m - cartesian, degrees - spherical ) */
(PID.TID 0000.0001)    90 @  9.246038586187513E+04              /* I =  1: 90 */
(PID.TID 0000.0001)     ;
(PID.TID 0000.0001) dxC =  /* dxC(1,:,1,:) ( m - cartesian, degrees - spherical ) */
(PID.TID 0000.0001)                 9.246038586187513E+04,      /* J =  1 */
(PID.TID 0000.0001)                 1.225786591246834E+05,      /* J =  2 */
(PID.TID 0000.0001)                 1.520997414818001E+05,      /* J =  3 */
(PID.TID 0000.0001)                 1.808798091874300E+05,      /* J =  4 */
(PID.TID 0000.0001)                 2.087786486446736E+05,      /* J =  5 */
(PID.TID 0000.0001)                 2.356603395120766E+05,      /* J =  6 */
(PID.TID 0000.0001)                 2.613939168938713E+05,      /* J =  7 */
(PID.TID 0000.0001)                 2.858540093877838E+05,      /* J =  8 */
(PID.TID 0000.0001)                 3.089214498819035E+05,      /* J =  9 */
(PID.TID 0000.0001)                 3.304838561248741E+05,      /* J = 10 */
(PID.TID 0000.0001)                 3.504361782409254E+05,      /* J = 11 */
(PID.TID 0000.0001)                 3.686812105223083E+05,      /* J = 12 */
(PID.TID 0000.0001)                 3.851300650057322E+05,      /* J = 13 */
(PID.TID 0000.0001)                 3.997026045255871E+05,      /* J = 14 */
(PID.TID 0000.0001)                 4.123278331341585E+05,      /* J = 15 */
(PID.TID 0000.0001)                 4.229442419867491E+05,      /* J = 16 */
(PID.TID 0000.0001)                 4.315001090065869E+05,      /* J = 17 */
(PID.TID 0000.0001)                 4.379537508695839E+05,      /* J = 18 */
(PID.TID 0000.0001)                 4.422737260813013E+05,      /* J = 19 */
(PID.TID 0000.0001)     2 @  4.444389881567501E+05,             /* J = 20: 21 */
(PID.TID 0000.0001)                 4.422737260813013E+05,      /* J = 22 */
(PID.TID 0000.0001)                 4.379537508695839E+05,      /* J = 23 */
(PID.TID 0000.0001)                 4.315001090065869E+05,      /* J = 24 */
(PID.TID 0000.0001)                 4.229442419867491E+05,      /* J = 25 */
(PID.TID 0000.0001)                 4.123278331341585E+05,      /* J = 26 */
(PID.TID 0000.0001)                 3.997026045255871E+05,      /* J = 27 */
(PID.TID 0000.0001)                 3.851300650057322E+05,      /* J = 28 */
(PID.TID 0000.0001)                 3.686812105223083E+05,      /* J = 29 */
(PID.TID 0000.0001)                 3.504361782409254E+05,      /* J = 30 */
(PID.TID 0000.0001)                 3.304838561248741E+05,      /* J = 31 */
(PID.TID 0000.0001)                 3.089214498819035E+05,      /* J = 32 */
(PID.TID 0000.0001)                 2.858540093877838E+05,      /* J = 33 */
(PID.TID 0000.0001)                 2.613939168938713E+05,      /* J = 34 */
(PID.TID 0000.0001)                 2.356603395120766E+05,      /* J = 35 */
(PID.TID 0000.0001)                 2.087786486446736E+05,      /* J = 36 */
(PID.TID 0000.0001)                 1.808798091874300E+05,      /* J = 37 */
(PID.TID 0000.0001)                 1.520997414818001E+05,      /* J = 38 */
(PID.TID 0000.0001)                 1.225786591246834E+05,      /* J = 39 */
(PID.TID 0000.0001)                 9.246038586187513E+04       /* J = 40 */
(PID.TID 0000.0001)     ;
(PID.TID 0000.0001) dyC =  /* dyC(:,1,:,1) ( m - cartesian, degrees - spherical ) */
(PID.TID 0000.0001)    90 @  4.447098934081552E+05              /* I =  1: 90 */
(PID.TID 0000.0001)     ;
(PID.TID 0000.0001) dyC =  /* dyC(1,:,1,:) ( m - cartesian, degrees - spherical ) */
(PID.TID 0000.0001)    40 @  4.447098934081552E+05              /* J =  1: 40 */
(PID.TID 0000.0001)     ;
(PID.TID 0000.0001) dxV =  /* dxV(:,1,:,1) ( m - cartesian, degrees - spherical ) */
(PID.TID 0000.0001)    90 @  7.722306258078101E+04              /* I =  1: 90 */
(PID.TID 0000.0001)     ;
(PID.TID 0000.0001) dxV =  /* dxV(1,:,1,:) ( m - cartesian, degrees - spherical ) */
(PID.TID 0000.0001)                 7.722306258078101E+04,      /* J =  1 */
(PID.TID 0000.0001)                 1.075850604052271E+05,      /* J =  2 */
(PID.TID 0000.0001)                 1.374229146297914E+05,      /* J =  3 */
(PID.TID 0000.0001)                 1.665912582279823E+05,      /* J =  4 */
(PID.TID 0000.0001)                 1.949479859617814E+05,      /* J =  5 */
(PID.TID 0000.0001)                 2.223549467040776E+05,      /* J =  6 */
(PID.TID 0000.0001)                 2.486786164970726E+05,      /* J =  7 */
(PID.TID 0000.0001)                 2.737907490675810E+05,      /* J =  8 */
(PID.TID 0000.0001)                 2.975690006299820E+05,      /* J =  9 */
(PID.TID 0000.0001)                 3.198975259328452E+05,      /* J = 10 */
(PID.TID 0000.0001)                 3.406675426453503E+05,      /* J = 11 */
(PID.TID 0000.0001)                 3.597778613338689E+05,      /* J = 12 */
(PID.TID 0000.0001)                 3.771353784467131E+05,      /* J = 13 */
(PID.TID 0000.0001)                 3.926555299052806E+05,      /* J = 14 */
(PID.TID 0000.0001)                 4.062627030917454E+05,      /* J = 15 */
(PID.TID 0000.0001)                 4.178906052261313E+05,      /* J = 16 */
(PID.TID 0000.0001)                 4.274825863380723E+05,      /* J = 17 */
(PID.TID 0000.0001)                 4.349919152597734E+05,      /* J = 18 */
(PID.TID 0000.0001)                 4.403820072955634E+05,      /* J = 19 */
(PID.TID 0000.0001)                 4.436266024588540E+05,      /* J = 20 */
(PID.TID 0000.0001)                 4.447098934081552E+05,      /* J = 21 */
(PID.TID 0000.0001)                 4.436266024588540E+05,      /* J = 22 */
(PID.TID 0000.0001)                 4.403820072955634E+05,      /* J = 23 */
(PID.TID 0000.0001)                 4.349919152597734E+05,      /* J = 24 */
(PID.TID 0000.0001)                 4.274825863380723E+05,      /* J = 25 */
(PID.TID 0000.0001)                 4.178906052261313E+05,      /* J = 26 */
(PID.TID 0000.0001)                 4.062627030917454E+05,      /* J = 27 */
(PID.TID 0000.0001)                 3.926555299052806E+05,      /* J = 28 */
(PID.TID 0000.0001)                 3.771353784467131E+05,      /* J = 29 */
(PID.TID 0000.0001)                 3.597778613338689E+05,      /* J = 30 */
(PID.TID 0000.0001)                 3.406675426453503E+05,      /* J = 31 */
(PID.TID 0000.0001)                 3.198975259328452E+05,      /* J = 32 */
(PID.TID 0000.0001)                 2.975690006299820E+05,      /* J = 33 */
(PID.TID 0000.0001)                 2.737907490675810E+05,      /* J = 34 */
(PID.TID 0000.0001)                 2.486786164970726E+05,      /* J = 35 */
(PID.TID 0000.0001)                 2.223549467040776E+05,      /* J = 36 */
(PID.TID 0000.0001)                 1.949479859617814E+05,      /* J = 37 */
(PID.TID 0000.0001)                 1.665912582279823E+05,      /* J = 38 */
(PID.TID 0000.0001)                 1.374229146297914E+05,      /* J = 39 */
(PID.TID 0000.0001)                 1.075850604052271E+05       /* J = 40 */
(PID.TID 0000.0001)     ;
(PID.TID 0000.0001) dyU =  /* dyU(:,1,:,1) ( m - cartesian, degrees - spherical ) */
(PID.TID 0000.0001)    90 @  4.447098934081552E+05              /* I =  1: 90 */
(PID.TID 0000.0001)     ;
(PID.TID 0000.0001) dyU =  /* dyU(1,:,1,:) ( m - cartesian, degrees - spherical ) */
(PID.TID 0000.0001)    40 @  4.447098934081552E+05              /* J =  1: 40 */
(PID.TID 0000.0001)     ;
(PID.TID 0000.0001) rA =  /* rA(:,1,:,1) ( m - cartesian, degrees - spherical ) */
(PID.TID 0000.0001)    90 @  4.110969866729052E+10              /* I =  1: 90 */
(PID.TID 0000.0001)     ;
(PID.TID 0000.0001) rA =  /* rA(1,:,1,:) ( m - cartesian, degrees - spherical ) */
(PID.TID 0000.0001)                 4.110969866729052E+10,      /* J =  1 */
(PID.TID 0000.0001)                 5.450087291636662E+10,      /* J =  2 */
(PID.TID 0000.0001)                 6.762652439100241E+10,      /* J =  3 */
(PID.TID 0000.0001)                 8.042270623660014E+10,      /* J =  4 */
(PID.TID 0000.0001)                 9.282707674147511E+10,      /* J =  5 */
(PID.TID 0000.0001)                 1.047792030594104E+11,      /* J =  6 */
(PID.TID 0000.0001)                 1.162208556324094E+11,      /* J =  7 */
(PID.TID 0000.0001)                 1.270962918792466E+11,      /* J =  8 */
(PID.TID 0000.0001)                 1.373525277677230E+11,      /* J =  9 */
(PID.TID 0000.0001)                 1.469395959475424E+11,      /* J = 10 */
(PID.TID 0000.0001)                 1.558107891862222E+11,      /* J = 11 */
(PID.TID 0000.0001)                 1.639228879220324E+11,      /* J = 12 */
(PID.TID 0000.0001)                 1.712363708253575E+11,      /* J = 13 */
(PID.TID 0000.0001)                 1.777156073426414E+11,      /* J = 14 */
(PID.TID 0000.0001)                 1.833290312848624E+11,      /* J = 15 */
(PID.TID 0000.0001)                 1.880492946148330E+11,      /* J = 16 */
(PID.TID 0000.0001)                 1.918534006840893E+11,      /* J = 17 */
(PID.TID 0000.0001)                 1.947228162702492E+11,      /* J = 18 */
(PID.TID 0000.0001)                 1.966435618690094E+11,      /* J = 19 */
(PID.TID 0000.0001)     2 @  1.976062798008856E+11,             /* J = 20: 21 */
(PID.TID 0000.0001)                 1.966435618690094E+11,      /* J = 22 */
(PID.TID 0000.0001)                 1.947228162702492E+11,      /* J = 23 */
(PID.TID 0000.0001)                 1.918534006840893E+11,      /* J = 24 */
(PID.TID 0000.0001)                 1.880492946148330E+11,      /* J = 25 */
(PID.TID 0000.0001)                 1.833290312848624E+11,      /* J = 26 */
(PID.TID 0000.0001)                 1.777156073426414E+11,      /* J = 27 */
(PID.TID 0000.0001)                 1.712363708253575E+11,      /* J = 28 */
(PID.TID 0000.0001)                 1.639228879220324E+11,      /* J = 29 */
(PID.TID 0000.0001)                 1.558107891862222E+11,      /* J = 30 */
(PID.TID 0000.0001)                 1.469395959475424E+11,      /* J = 31 */
(PID.TID 0000.0001)                 1.373525277677230E+11,      /* J = 32 */
(PID.TID 0000.0001)                 1.270962918792466E+11,      /* J = 33 */
(PID.TID 0000.0001)                 1.162208556324094E+11,      /* J = 34 */
(PID.TID 0000.0001)                 1.047792030594104E+11,      /* J = 35 */
(PID.TID 0000.0001)                 9.282707674147511E+10,      /* J = 36 */
(PID.TID 0000.0001)                 8.042270623660014E+10,      /* J = 37 */
(PID.TID 0000.0001)                 6.762652439100241E+10,      /* J = 38 */
(PID.TID 0000.0001)                 5.450087291636662E+10,      /* J = 39 */
(PID.TID 0000.0001)                 4.110969866729052E+10       /* J = 40 */
(PID.TID 0000.0001)     ;
(PID.TID 0000.0001) rAw =  /* rAw(:,1,:,1) ( m - cartesian, degrees - spherical ) */
(PID.TID 0000.0001)    90 @  4.110969866729052E+10              /* I =  1: 90 */
(PID.TID 0000.0001)     ;
(PID.TID 0000.0001) rAw =  /* rAw(1,:,1,:) ( m - cartesian, degrees - spherical ) */
(PID.TID 0000.0001)                 4.110969866729052E+10,      /* J =  1 */
(PID.TID 0000.0001)                 5.450087291636662E+10,      /* J =  2 */
(PID.TID 0000.0001)                 6.762652439100241E+10,      /* J =  3 */
(PID.TID 0000.0001)                 8.042270623660014E+10,      /* J =  4 */
(PID.TID 0000.0001)                 9.282707674147511E+10,      /* J =  5 */
(PID.TID 0000.0001)                 1.047792030594104E+11,      /* J =  6 */
(PID.TID 0000.0001)                 1.162208556324094E+11,      /* J =  7 */
(PID.TID 0000.0001)                 1.270962918792466E+11,      /* J =  8 */
(PID.TID 0000.0001)                 1.373525277677230E+11,      /* J =  9 */
(PID.TID 0000.0001)                 1.469395959475424E+11,      /* J = 10 */
(PID.TID 0000.0001)                 1.558107891862222E+11,      /* J = 11 */
(PID.TID 0000.0001)                 1.639228879220324E+11,      /* J = 12 */
(PID.TID 0000.0001)                 1.712363708253575E+11,      /* J = 13 */
(PID.TID 0000.0001)                 1.777156073426414E+11,      /* J = 14 */
(PID.TID 0000.0001)                 1.833290312848624E+11,      /* J = 15 */
(PID.TID 0000.0001)                 1.880492946148330E+11,      /* J = 16 */
(PID.TID 0000.0001)                 1.918534006840893E+11,      /* J = 17 */
(PID.TID 0000.0001)                 1.947228162702492E+11,      /* J = 18 */
(PID.TID 0000.0001)                 1.966435618690094E+11,      /* J = 19 */
(PID.TID 0000.0001)     2 @  1.976062798008856E+11,             /* J = 20: 21 */
(PID.TID 0000.0001)                 1.966435618690094E+11,      /* J = 22 */
(PID.TID 0000.0001)                 1.947228162702492E+11,      /* J = 23 */
(PID.TID 0000.0001)                 1.918534006840893E+11,      /* J = 24 */
(PID.TID 0000.0001)                 1.880492946148330E+11,      /* J = 25 */
(PID.TID 0000.0001)                 1.833290312848624E+11,      /* J = 26 */
(PID.TID 0000.0001)                 1.777156073426414E+11,      /* J = 27 */
(PID.TID 0000.0001)                 1.712363708253575E+11,      /* J = 28 */
(PID.TID 0000.0001)                 1.639228879220324E+11,      /* J = 29 */
(PID.TID 0000.0001)                 1.558107891862222E+11,      /* J = 30 */
(PID.TID 0000.0001)                 1.469395959475424E+11,      /* J = 31 */
(PID.TID 0000.0001)                 1.373525277677230E+11,      /* J = 32 */
(PID.TID 0000.0001)                 1.270962918792466E+11,      /* J = 33 */
(PID.TID 0000.0001)                 1.162208556324094E+11,      /* J = 34 */
(PID.TID 0000.0001)                 1.047792030594104E+11,      /* J = 35 */
(PID.TID 0000.0001)                 9.282707674147511E+10,      /* J = 36 */
(PID.TID 0000.0001)                 8.042270623660014E+10,      /* J = 37 */
(PID.TID 0000.0001)                 6.762652439100241E+10,      /* J = 38 */
(PID.TID 0000.0001)                 5.450087291636662E+10,      /* J = 39 */
(PID.TID 0000.0001)                 4.110969866729052E+10       /* J = 40 */
(PID.TID 0000.0001)     ;
(PID.TID 0000.0001) rAs =  /* rAs(:,1,:,1) ( m - cartesian, degrees - spherical ) */
(PID.TID 0000.0001)    90 @  3.433488626798226E+10              /* I =  1: 90 */
(PID.TID 0000.0001)     ;
(PID.TID 0000.0001) rAs =  /* rAs(1,:,1,:) ( m - cartesian, degrees - spherical ) */
(PID.TID 0000.0001)                 3.433488626798226E+10,      /* J =  1 */
(PID.TID 0000.0001)                 4.783442523123644E+10,      /* J =  2 */
(PID.TID 0000.0001)                 6.110091968306396E+10,      /* J =  3 */
(PID.TID 0000.0001)                 7.406973659603816E+10,      /* J =  4 */
(PID.TID 0000.0001)                 8.667769319778082E+10,      /* J =  5 */
(PID.TID 0000.0001)                 9.886336479107460E+10,      /* J =  6 */
(PID.TID 0000.0001)                 1.105673840088176E+11,      /* J =  7 */
(PID.TID 0000.0001)                 1.217327300458637E+11,      /* J =  8 */
(PID.TID 0000.0001)                 1.323050064586577E+11,      /* J =  9 */
(PID.TID 0000.0001)                 1.422327061792379E+11,      /* J = 10 */
(PID.TID 0000.0001)                 1.514674624524945E+11,      /* J = 11 */
(PID.TID 0000.0001)                 1.599642844741386E+11,      /* J = 12 */
(PID.TID 0000.0001)                 1.676817765813786E+11,      /* J = 13 */
(PID.TID 0000.0001)                 1.745823399284268E+11,      /* J = 14 */
(PID.TID 0000.0001)                 1.806323556642997E+11,      /* J = 15 */
(PID.TID 0000.0001)                 1.858023487204767E+11,      /* J = 16 */
(PID.TID 0000.0001)                 1.900671314104744E+11,      /* J = 17 */
(PID.TID 0000.0001)                 1.934059261417216E+11,      /* J = 18 */
(PID.TID 0000.0001)                 1.958024666419019E+11,      /* J = 19 */
(PID.TID 0000.0001)                 1.972450772065981E+11,      /* J = 20 */
(PID.TID 0000.0001)                 1.977267295821496E+11,      /* J = 21 */
(PID.TID 0000.0001)                 1.972450772065981E+11,      /* J = 22 */
(PID.TID 0000.0001)                 1.958024666419019E+11,      /* J = 23 */
(PID.TID 0000.0001)                 1.934059261417216E+11,      /* J = 24 */
(PID.TID 0000.0001)                 1.900671314104744E+11,      /* J = 25 */
(PID.TID 0000.0001)                 1.858023487204767E+11,      /* J = 26 */
(PID.TID 0000.0001)                 1.806323556642997E+11,      /* J = 27 */
(PID.TID 0000.0001)                 1.745823399284268E+11,      /* J = 28 */
(PID.TID 0000.0001)                 1.676817765813786E+11,      /* J = 29 */
(PID.TID 0000.0001)                 1.599642844741386E+11,      /* J = 30 */
(PID.TID 0000.0001)                 1.514674624524945E+11,      /* J = 31 */
(PID.TID 0000.0001)                 1.422327061792379E+11,      /* J = 32 */
(PID.TID 0000.0001)                 1.323050064586577E+11,      /* J = 33 */
(PID.TID 0000.0001)                 1.217327300458637E+11,      /* J = 34 */
(PID.TID 0000.0001)                 1.105673840088176E+11,      /* J = 35 */
(PID.TID 0000.0001)                 9.886336479107460E+10,      /* J = 36 */
(PID.TID 0000.0001)                 8.667769319778082E+10,      /* J = 37 */
(PID.TID 0000.0001)                 7.406973659603816E+10,      /* J = 38 */
(PID.TID 0000.0001)                 6.110091968306396E+10,      /* J = 39 */
(PID.TID 0000.0001)                 4.783442523123644E+10       /* J = 40 */
(PID.TID 0000.0001)     ;
(PID.TID 0000.0001) 
(PID.TID 0000.0001)  MDSREADFIELD: opening global file: trenberth_taux.bin
(PID.TID 0000.0001)  MDSREADFIELD: opening global file: trenberth_tauy.bin
(PID.TID 0000.0001)  MDSREADFIELD: opening global file: shi_qnet.bin
(PID.TID 0000.0001)  MDSREADFIELD: opening global file: shi_empmr.bin
(PID.TID 0000.0001)  MDSREADFIELD: opening global file: lev_sst.bin
(PID.TID 0000.0001)  MDSREADFIELD: opening global file: deltageopotjmd95.bin
(PID.TID 0000.0001)  MDSREADFIELD: opening global file: lev_t.bin
(PID.TID 0000.0001) // =======================================================
(PID.TID 0000.0001) // Field Initial Temperature at iteration          1
(PID.TID 0000.0001) // CMIN =         -8.538625820175458E-01
(PID.TID 0000.0001) // CMAX =          2.012045717433744E+00
(PID.TID 0000.0001) // CINT =          1.061447518315292E-01
(PID.TID 0000.0001) // SYMBOLS (CMIN->CMAX): -abcdefghijklmnopqrstuvwxyz+
(PID.TID 0000.0001) //                  0.0: .
(PID.TID 0000.0001) // RANGE I (Lo:Hi:Step):(   1:  90:   1)
(PID.TID 0000.0001) // RANGE J (Lo:Hi:Step):(  40:   1:  -1)
(PID.TID 0000.0001) // RANGE K (Lo:Hi:Step):(   1:   1:   1)
(PID.TID 0000.0001) // =======================================================
(PID.TID 0000.0001) K =   1
(PID.TID 0000.0001)                I=10      I=20      I=30      I=40      I=50      I=60      I=70      I=80      I=90
(PID.TID 0000.0001) |--J--|123456789|123456789|123456789|123456789|123456789|123456789|123456789|123456789|123456789|
(PID.TID 0000.0001)     40 ..........................................................................................
(PID.TID 0000.0001)     39 ..........................................................................................
(PID.TID 0000.0001)     38 ..........................................................................................
(PID.TID 0000.0001)     37 ..........................................................................................
(PID.TID 0000.0001)     36 ..........................................................................................
(PID.TID 0000.0001)     35 ..........................................................................................
(PID.TID 0000.0001)     34 ..........................................................................................
(PID.TID 0000.0001)     33 .......................................rrr.rrrrrrsss......................................
(PID.TID 0000.0001)     32 ......................................rrrr.rrrrssssss.....................................
(PID.TID 0000.0001)     31 ....................................rrrrrr.rrrrssssss......................yy.............
(PID.TID 0000.0001)     30 ....................................rrrr.rr.rrsssssssssss................yyyy.............
(PID.TID 0000.0001)     29 ...................................rrrr.rrr...rssrsrrssss...............yy.yyy.....++.....
(PID.TID 0000.0001)     28 ...................................rrrrrrrrrrrrrrrrrrr..................yyyxxx.....++.....
(PID.TID 0000.0001)     27 .....................................rrrrrrrr.r...rrr...................yyxxxx..zzzz+.....
(PID.TID 0000.0001)     26 ...............................tss..rrrrrrrrrrr....rrrrrr...............yyyxxx..zzzz......
(PID.TID 0000.0001)     25 ...............................stt..rrr..rq.....qrrrrqqqq.................www...zz........
(PID.TID 0000.0001)     24 ...............................tt...rrrrrqqqqqqqqqqqqqq.........................zzzz......
(PID.TID 0000.0001)     23 ....................................rrrr...qqqqq.qrrqrr.........................yzzz......
(PID.TID 0000.0001)     22 ...........................................qppppp..r.rr...................................
(PID.TID 0000.0001)     21 ...........................................pppppp.......................................yz
(PID.TID 0000.0001)     20 ............................................ppppppp...............................llp...zz
(PID.TID 0000.0001)     19 zz................qqq.......................pppp.pppp.............................lll.....
(PID.TID 0000.0001)     18 zz................qqq....oo.o.....................qpq.............................lll....z
(PID.TID 0000.0001)     17 zz................qqq.ooooooo.....................qp..............................lll....z
(PID.TID 0000.0001)     16 ++.................qq.oooooo...................nno................................llm....+
(PID.TID 0000.0001)     15 +......................noooo..................nnno................................llm....+
(PID.TID 0000.0001)     14 +...........nnn........nn.o...................nnnooo..............................mmm....+
(PID.TID 0000.0001)     13 .oo.........nnn...........oo..................nnnnnnoo....................................
(PID.TID 0000.0001)     12 nmm.......................nn..mmm.............ooooooooo...................................
(PID.TID 0000.0001)     11 oon.ll........ii...........mmmmmmmm...........n.noooooooo....................ggfgg........
(PID.TID 0000.0001)     10 on..l.hi......ii..............lmmmm.............mnnoooooo...................hhgggg........
(PID.TID 0000.0001)      9 .....ggg......................................nmmmmnnnnnn...................hhgggg........
(PID.TID 0000.0001)      8 .....fe......................................mmmmmm............................ff.........
(PID.TID 0000.0001)      7 .......bb...cc.............................llmmmm.................iii.....................
(PID.TID 0000.0001)      6 -aaaaabbbbbbccc............................lllm.............hhi.i.iii....................-
(PID.TID 0000.0001)      5 ---aaaaaaaaabbb...........................................hhhhhhhh.h.................-----
(PID.TID 0000.0001)      4 ..-aaaaa..................................................hhhhhhh....................----a
(PID.TID 0000.0001)      3 ..........................................................................................
(PID.TID 0000.0001)      2 ..........................................................................................
(PID.TID 0000.0001)      1 ..........................................................................................
(PID.TID 0000.0001) // =======================================================
(PID.TID 0000.0001) // END OF FIELD                                          =
(PID.TID 0000.0001) // =======================================================
(PID.TID 0000.0001) 
(PID.TID 0000.0001)  MDSREADFIELD: opening global file: lev_s.bin
(PID.TID 0000.0001) // =======================================================
(PID.TID 0000.0001) // Field Initial Salinity at iteration          1
(PID.TID 0000.0001) // CMIN =          3.464784170881562E+01
(PID.TID 0000.0001) // CMAX =          3.490372370636981E+01
(PID.TID 0000.0001) // CINT =          9.477111020525586E-03
(PID.TID 0000.0001) // SYMBOLS (CMIN->CMAX): -abcdefghijklmnopqrstuvwxyz+
(PID.TID 0000.0001) //                  0.0: .
(PID.TID 0000.0001) // RANGE I (Lo:Hi:Step):(   1:  90:   1)
(PID.TID 0000.0001) // RANGE J (Lo:Hi:Step):(  40:   1:  -1)
(PID.TID 0000.0001) // RANGE K (Lo:Hi:Step):(   1:   1:   1)
(PID.TID 0000.0001) // =======================================================
(PID.TID 0000.0001) K =   1
(PID.TID 0000.0001)                I=10      I=20      I=30      I=40      I=50      I=60      I=70      I=80      I=90
(PID.TID 0000.0001) |--J--|123456789|123456789|123456789|123456789|123456789|123456789|123456789|123456789|123456789|
(PID.TID 0000.0001)     40 ..........................................................................................
(PID.TID 0000.0001)     39 ..........................................................................................
(PID.TID 0000.0001)     38 ..........................................................................................
(PID.TID 0000.0001)     37 ..........................................................................................
(PID.TID 0000.0001)     36 ..........................................................................................
(PID.TID 0000.0001)     35 ..........................................................................................
(PID.TID 0000.0001)     34 ..........................................................................................
(PID.TID 0000.0001)     33 .......................................ddd.ddeeeeddd......................................
(PID.TID 0000.0001)     32 ......................................dddd.dddddddddd.....................................
(PID.TID 0000.0001)     31 ....................................edddde.eeedddddde......................+z.............
(PID.TID 0000.0001)     30 ....................................eefe.ee.eddddddddddee................+++z.............
(PID.TID 0000.0001)     29 ...................................ddee.dee...dddddeddddd...............++.zyy.....yz.....
(PID.TID 0000.0001)     28 ...................................cceebdeeeeeeddddded..................zzzyxx.....zz.....
(PID.TID 0000.0001)     27 .....................................deddeedd.e...dde...................zyyxxx..zzyzz.....
(PID.TID 0000.0001)     26 ...............................ddd..feeeeeeedef....eeeeee...............yzywww..z+zz......
(PID.TID 0000.0001)     25 ...............................ddc..edd..fe.....eeffffeee.................wwv...++........
(PID.TID 0000.0001)     24 ...............................dd...ddeffffeffefeeffeee.........................yyyz......
(PID.TID 0000.0001)     23 ....................................eded...effff.dffeee.........................yyzz......
(PID.TID 0000.0001)     22 ...........................................efffff..e.ee...................................
(PID.TID 0000.0001)     21 ...........................................fffgff.......................................yx
(PID.TID 0000.0001)     20 ............................................fghgffg...............................hin...xx
(PID.TID 0000.0001)     19 xy................ggf.......................fggg.ffff.............................iii.....
(PID.TID 0000.0001)     18 yy................cdd....gh.h.....................fff.............................ihh....y
(PID.TID 0000.0001)     17 yy................ddf.gggghhh.....................ff..............................ijj....y
(PID.TID 0000.0001)     16 yy.................fh.gggggi...................gff................................hii....y
(PID.TID 0000.0001)     15 y......................fgggh..................gggg................................gii....y
(PID.TID 0000.0001)     14 y...........ggg........gg.g...................gggggg..............................ijj....y
(PID.TID 0000.0001)     13 .ii.........ggg...........gg..................gggggfgg....................................
(PID.TID 0000.0001)     12 hhh.......................gg..ggg.............gggggfggg...................................
(PID.TID 0000.0001)     11 ggg.gf........dd...........hggggggg...........f.fggffffgg....................ccbcc........
(PID.TID 0000.0001)     10 gg..f.de......dd..............hgggg.............gfgggfggg...................edcccb........
(PID.TID 0000.0001)      9 .....ccd......................................fffffgggffg...................ccccbb........
(PID.TID 0000.0001)      8 .....cc......................................ffffff............................bb.........
(PID.TID 0000.0001)      7 .......bb...bb.............................efffff.................fff.....................
(PID.TID 0000.0001)      6 ---aaaaaaaabbbb............................efff.............fff.f.fff....................-
(PID.TID 0000.0001)      5 ---aaabaaaaaaaa...........................................ffgfffgf.f.................-----
(PID.TID 0000.0001)      4 ..-aabba..................................................fffffff....................-----
(PID.TID 0000.0001)      3 ..........................................................................................
(PID.TID 0000.0001)      2 ..........................................................................................
(PID.TID 0000.0001)      1 ..........................................................................................
(PID.TID 0000.0001) // =======================================================
(PID.TID 0000.0001) // END OF FIELD                                          =
(PID.TID 0000.0001) // =======================================================
(PID.TID 0000.0001) 
(PID.TID 0000.0001) Start initial hydrostatic pressure computation
(PID.TID 0000.0001) Pressure is predetermined for buoyancyRelation OCEANICP
(PID.TID 0000.0001) 
(PID.TID 0000.0001) // =======================================================
(PID.TID 0000.0001) // Model current state
(PID.TID 0000.0001) // =======================================================
(PID.TID 0000.0001) 
(PID.TID 0000.0001) // =======================================================
(PID.TID 0000.0001) // Begin MONITOR dynamic field statistics
(PID.TID 0000.0001) // =======================================================
(PID.TID 0000.0001) %MON time_tsnumber                =                     0
(PID.TID 0000.0001) %MON time_secondsf                =   0.0000000000000E+00
(PID.TID 0000.0001) %MON dynstat_eta_max              =   0.0000000000000E+00
(PID.TID 0000.0001) %MON dynstat_eta_min              =   0.0000000000000E+00
(PID.TID 0000.0001) %MON dynstat_eta_mean             =   0.0000000000000E+00
(PID.TID 0000.0001) %MON dynstat_eta_sd               =   0.0000000000000E+00
(PID.TID 0000.0001) %MON dynstat_eta_del2             =   0.0000000000000E+00
(PID.TID 0000.0001) %MON dynstat_uvel_max             =   0.0000000000000E+00
(PID.TID 0000.0001) %MON dynstat_uvel_min             =   0.0000000000000E+00
(PID.TID 0000.0001) %MON dynstat_uvel_mean            =   0.0000000000000E+00
(PID.TID 0000.0001) %MON dynstat_uvel_sd              =   0.0000000000000E+00
(PID.TID 0000.0001) %MON dynstat_uvel_del2            =   0.0000000000000E+00
(PID.TID 0000.0001) %MON dynstat_vvel_max             =   0.0000000000000E+00
(PID.TID 0000.0001) %MON dynstat_vvel_min             =   0.0000000000000E+00
(PID.TID 0000.0001) %MON dynstat_vvel_mean            =   0.0000000000000E+00
(PID.TID 0000.0001) %MON dynstat_vvel_sd              =   0.0000000000000E+00
(PID.TID 0000.0001) %MON dynstat_vvel_del2            =   0.0000000000000E+00
(PID.TID 0000.0001) %MON dynstat_wvel_max             =   0.0000000000000E+00
(PID.TID 0000.0001) %MON dynstat_wvel_min             =   0.0000000000000E+00
(PID.TID 0000.0001) %MON dynstat_wvel_mean            =   0.0000000000000E+00
(PID.TID 0000.0001) %MON dynstat_wvel_sd              =   0.0000000000000E+00
(PID.TID 0000.0001) %MON dynstat_wvel_del2            =   0.0000000000000E+00
(PID.TID 0000.0001) %MON dynstat_theta_max            =   2.9733511003948E+01
(PID.TID 0000.0001) %MON dynstat_theta_min            =  -2.6263839329562E+00
(PID.TID 0000.0001) %MON dynstat_theta_mean           =   3.6018664655652E+00
(PID.TID 0000.0001) %MON dynstat_theta_sd             =   4.4018845380979E+00
(PID.TID 0000.0001) %MON dynstat_theta_del2           =   1.5429255071065E-01
(PID.TID 0000.0001) %MON dynstat_salt_max             =   3.7475629659304E+01
(PID.TID 0000.0001) %MON dynstat_salt_min             =   2.9752769471420E+01
(PID.TID 0000.0001) %MON dynstat_salt_mean            =   3.4718001015836E+01
(PID.TID 0000.0001) %MON dynstat_salt_sd              =   2.9462524950603E-01
(PID.TID 0000.0001) %MON dynstat_salt_del2            =   2.6846692931047E-02
(PID.TID 0000.0001) %MON advcfl_uvel_max              =   0.0000000000000E+00
(PID.TID 0000.0001) %MON advcfl_vvel_max              =   0.0000000000000E+00
(PID.TID 0000.0001) %MON advcfl_wvel_max              =   0.0000000000000E+00
(PID.TID 0000.0001) %MON advcfl_W_hf_max              =   0.0000000000000E+00
(PID.TID 0000.0001) %MON ke_max                       =   0.0000000000000E+00
(PID.TID 0000.0001) %MON ke_mean                      =   0.0000000000000E+00
(PID.TID 0000.0001) %MON ke_volint                    =   0.0000000000000E+00
(PID.TID 0000.0001) %MON ke_volmean                   =   0.0000000000000E+00
(PID.TID 0000.0001) %MON ke_vol                       =   1.3442141716555E+22
(PID.TID 0000.0001) %MON surf_Corr_theta_mean         =   0.0000000000000E+00
(PID.TID 0000.0001) %MON surf_Corr_salt_mean          =   0.0000000000000E+00
(PID.TID 0000.0001) // =======================================================
(PID.TID 0000.0001) // End MONITOR dynamic field statistics
(PID.TID 0000.0001) // =======================================================
 S/R EXTERNAL_FIELDS_LOAD: Reading new data  0. 0
(PID.TID 0000.0001)  MDSREADFIELD: opening global file: trenberth_taux.bin
(PID.TID 0000.0001)  MDSREADFIELD: opening global file: trenberth_taux.bin
(PID.TID 0000.0001)  MDSREADFIELD: opening global file: trenberth_tauy.bin
(PID.TID 0000.0001)  MDSREADFIELD: opening global file: trenberth_tauy.bin
(PID.TID 0000.0001)  MDSREADFIELD: opening global file: shi_qnet.bin
(PID.TID 0000.0001)  MDSREADFIELD: opening global file: shi_qnet.bin
(PID.TID 0000.0001)  MDSREADFIELD: opening global file: shi_empmr.bin
(PID.TID 0000.0001)  MDSREADFIELD: opening global file: shi_empmr.bin
(PID.TID 0000.0001)  MDSREADFIELD: opening global file: lev_sst.bin
(PID.TID 0000.0001)  MDSREADFIELD: opening global file: lev_sst.bin
(PID.TID 0000.0001)  MDSREADFIELD: opening global file: deltageopotjmd95.bin
(PID.TID 0000.0001)  MDSREADFIELD: opening global file: deltageopotjmd95.bin
time,SST,SSS,fu,fv,Q,E-P,i0,i1,a,b =   0.0000E+00  1.1337E-01  0.0000E+00 -4.0176E-02 -6.3320E-02  1.7257E+02 -2.0964E-09    12     1  5.3333E-01  4.6667E-01
time,fu0,fu1,fu =   0.0000E+00 -4.5368E-02 -3.5633E-02 -4.0176E-02  5.3333E-01  4.6667E-01
(PID.TID 0000.0001) %GM: Global mean of phiHydLow =  0.25165417015711860E+02
 cg2d: Sum(rhs),rhsMax =   1.51267887105178E-15  1.71163423876591E+02
(PID.TID 0000.0001)                    cg2d_init_res =    9.36692222671517E+00
(PID.TID 0000.0001)                       cg2d_iters =   127
(PID.TID 0000.0001)                         cg2d_res =    9.87244403395936E-10
(PID.TID 0000.0001) // =======================================================
(PID.TID 0000.0001) // Begin MONITOR dynamic field statistics
(PID.TID 0000.0001) // =======================================================
(PID.TID 0000.0001) %MON time_tsnumber                =                     1
(PID.TID 0000.0001) %MON time_secondsf                =   1.7280000000000E+05
(PID.TID 0000.0001) %MON dynstat_eta_max              =   4.1657164210587E+04
(PID.TID 0000.0001) %MON dynstat_eta_min              =  -8.8276374845239E+04
(PID.TID 0000.0001) %MON dynstat_eta_mean             =  -1.0175211272514E-12
(PID.TID 0000.0001) %MON dynstat_eta_sd               =   3.6901405582401E+04
(PID.TID 0000.0001) %MON dynstat_eta_del2             =   2.3562066923173E+04
(PID.TID 0000.0001) %MON dynstat_uvel_max             =   3.5125732100610E-02
(PID.TID 0000.0001) %MON dynstat_uvel_min             =  -3.5357448065051E-02
(PID.TID 0000.0001) %MON dynstat_uvel_mean            =  -8.4137049180840E-04
(PID.TID 0000.0001) %MON dynstat_uvel_sd              =   2.2142813776112E-03
(PID.TID 0000.0001) %MON dynstat_uvel_del2            =   7.7406251858041E-04
(PID.TID 0000.0001) %MON dynstat_vvel_max             =   3.5008028164382E-02
(PID.TID 0000.0001) %MON dynstat_vvel_min             =  -2.4496078954050E-02
(PID.TID 0000.0001) %MON dynstat_vvel_mean            =   1.0871907853335E-03
(PID.TID 0000.0001) %MON dynstat_vvel_sd              =   2.2888132791034E-03
(PID.TID 0000.0001) %MON dynstat_vvel_del2            =   7.6102756434847E-04
(PID.TID 0000.0001) %MON dynstat_wvel_max             =   5.0250185980651E-01
(PID.TID 0000.0001) %MON dynstat_wvel_min             =  -6.2689460753545E-01
(PID.TID 0000.0001) %MON dynstat_wvel_mean            =  -6.6718508614598E-03
(PID.TID 0000.0001) %MON dynstat_wvel_sd              =   1.5353628628170E-01
(PID.TID 0000.0001) %MON dynstat_wvel_del2            =   6.1610670023013E-02
(PID.TID 0000.0001) %MON dynstat_theta_max            =   2.9713265304180E+01
(PID.TID 0000.0001) %MON dynstat_theta_min            =  -2.6183664565810E+00
(PID.TID 0000.0001) %MON dynstat_theta_mean           =   3.6019910573989E+00
(PID.TID 0000.0001) %MON dynstat_theta_sd             =   4.4015315967483E+00
(PID.TID 0000.0001) %MON dynstat_theta_del2           =   1.5479567598383E-01
(PID.TID 0000.0001) %MON dynstat_salt_max             =   3.7478618521905E+01
(PID.TID 0000.0001) %MON dynstat_salt_min             =   2.9762213911218E+01
(PID.TID 0000.0001) %MON dynstat_salt_mean            =   3.4718001015835E+01
(PID.TID 0000.0001) %MON dynstat_salt_sd              =   2.9451022507207E-01
(PID.TID 0000.0001) %MON dynstat_salt_del2            =   2.6959492538962E-02
(PID.TID 0000.0001) %MON advcfl_uvel_max              =   2.1969227686497E-02
(PID.TID 0000.0001) %MON advcfl_vvel_max              =   1.3602996822140E-02
(PID.TID 0000.0001) %MON advcfl_wvel_max              =   4.1333629933098E-02
(PID.TID 0000.0001) %MON advcfl_W_hf_max              =   4.1333629933097E-02
(PID.TID 0000.0001) %MON ke_max                       =   5.7559084779553E-04
(PID.TID 0000.0001) %MON ke_mean                      =   8.3891499748332E-06
(PID.TID 0000.0001) %MON ke_volint                    =   7.2868557859747E+16
(PID.TID 0000.0001) %MON ke_volmean                   =   5.4209038556707E-06
(PID.TID 0000.0001) %MON ke_vol                       =   1.3442141716555E+22
(PID.TID 0000.0001) %MON surf_Corr_theta_mean         =   6.7340147193267E-02
(PID.TID 0000.0001) %MON surf_Corr_salt_mean          =  -2.2622016032290E-04
(PID.TID 0000.0001) // =======================================================
(PID.TID 0000.0001) // End MONITOR dynamic field statistics
(PID.TID 0000.0001) // =======================================================
time,SST,SSS,fu,fv,Q,E-P,i0,i1,a,b =   1.7280E+05  2.3410E-01  0.0000E+00 -3.9527E-02 -6.2453E-02  1.6404E+02 -2.0964E-09    12     1  6.0000E-01  4.0000E-01
time,fu0,fu1,fu =   1.7280E+05 -4.5368E-02 -3.5633E-02 -3.9527E-02  6.0000E-01  4.0000E-01
(PID.TID 0000.0001) %GM: Global mean of phiHydLow =  0.25165265989457140E+02
 cg2d: Sum(rhs),rhsMax =   6.24500451351651E-16  1.71267580222117E+02
(PID.TID 0000.0001)                    cg2d_init_res =    1.01794301076282E-01
(PID.TID 0000.0001)                       cg2d_iters =   123
(PID.TID 0000.0001)                         cg2d_res =    8.82001016888153E-10
(PID.TID 0000.0001) // =======================================================
(PID.TID 0000.0001) // Begin MONITOR dynamic field statistics
(PID.TID 0000.0001) // =======================================================
(PID.TID 0000.0001) %MON time_tsnumber                =                     2
(PID.TID 0000.0001) %MON time_secondsf                =   3.4560000000000E+05
(PID.TID 0000.0001) %MON dynstat_eta_max              =   4.9059591469968E+04
(PID.TID 0000.0001) %MON dynstat_eta_min              =  -8.8162811937615E+04
(PID.TID 0000.0001) %MON dynstat_eta_mean             =  -3.4846628850985E-13
(PID.TID 0000.0001) %MON dynstat_eta_sd               =   3.9058934822213E+04
(PID.TID 0000.0001) %MON dynstat_eta_del2             =   2.3927718996904E+04
(PID.TID 0000.0001) %MON dynstat_uvel_max             =   6.3817590039893E-02
(PID.TID 0000.0001) %MON dynstat_uvel_min             =  -4.0729484356665E-02
(PID.TID 0000.0001) %MON dynstat_uvel_mean            =  -1.1793409450056E-03
(PID.TID 0000.0001) %MON dynstat_uvel_sd              =   2.2711799032323E-03
(PID.TID 0000.0001) %MON dynstat_uvel_del2            =   8.3258030350121E-04
(PID.TID 0000.0001) %MON dynstat_vvel_max             =   5.2440355866109E-02
(PID.TID 0000.0001) %MON dynstat_vvel_min             =  -3.0683550169985E-02
(PID.TID 0000.0001) %MON dynstat_vvel_mean            =   1.5436292774017E-03
(PID.TID 0000.0001) %MON dynstat_vvel_sd              =   2.9935050531849E-03
(PID.TID 0000.0001) %MON dynstat_vvel_del2            =   9.0430577449041E-04
(PID.TID 0000.0001) %MON dynstat_wvel_max             =   6.3530543150593E-01
(PID.TID 0000.0001) %MON dynstat_wvel_min             =  -7.8988081955297E-01
(PID.TID 0000.0001) %MON dynstat_wvel_mean            =  -3.4606453811043E-03
(PID.TID 0000.0001) %MON dynstat_wvel_sd              =   8.9539158756763E-02
(PID.TID 0000.0001) %MON dynstat_wvel_del2            =   4.6873933734175E-02
(PID.TID 0000.0001) %MON dynstat_theta_max            =   2.9688317749419E+01
(PID.TID 0000.0001) %MON dynstat_theta_min            =  -2.6127583359443E+00
(PID.TID 0000.0001) %MON dynstat_theta_mean           =   3.6019450086208E+00
(PID.TID 0000.0001) %MON dynstat_theta_sd             =   4.4012662190688E+00
(PID.TID 0000.0001) %MON dynstat_theta_del2           =   1.5406689430950E-01
(PID.TID 0000.0001) %MON dynstat_salt_max             =   3.7481694673612E+01
(PID.TID 0000.0001) %MON dynstat_salt_min             =   2.9765580136600E+01
(PID.TID 0000.0001) %MON dynstat_salt_mean            =   3.4718001573791E+01
(PID.TID 0000.0001) %MON dynstat_salt_sd              =   2.9441685774606E-01
(PID.TID 0000.0001) %MON dynstat_salt_del2            =   2.7040206794657E-02
(PID.TID 0000.0001) %MON advcfl_uvel_max              =   3.3710606628219E-02
(PID.TID 0000.0001) %MON advcfl_vvel_max              =   2.0376640205184E-02
(PID.TID 0000.0001) %MON advcfl_wvel_max              =   5.3538692421196E-02
(PID.TID 0000.0001) %MON advcfl_W_hf_max              =   5.3538692421196E-02
(PID.TID 0000.0001) %MON ke_max                       =   1.7223383271052E-03
(PID.TID 0000.0001) %MON ke_mean                      =   1.5636730160785E-05
(PID.TID 0000.0001) %MON ke_volint                    =   1.0822104495892E+17
(PID.TID 0000.0001) %MON ke_volmean                   =   8.0508781443390E-06
(PID.TID 0000.0001) %MON ke_vol                       =   1.3442141716555E+22
(PID.TID 0000.0001) %MON surf_Corr_theta_mean         =   3.7294389988389E-02
(PID.TID 0000.0001) %MON surf_Corr_salt_mean          =  -9.2827255759179E-05
(PID.TID 0000.0001) // =======================================================
(PID.TID 0000.0001) // End MONITOR dynamic field statistics
(PID.TID 0000.0001) // =======================================================
time,SST,SSS,fu,fv,Q,E-P,i0,i1,a,b =   3.4560E+05  3.5483E-01  0.0000E+00 -3.8878E-02 -6.1587E-02  1.5550E+02 -2.0964E-09    12     1  6.6667E-01  3.3333E-01
time,fu0,fu1,fu =   3.4560E+05 -4.5368E-02 -3.5633E-02 -3.8878E-02  6.6667E-01  3.3333E-01
(PID.TID 0000.0001) %GM: Global mean of phiHydLow =  0.25172793521494057E+02
 cg2d: Sum(rhs),rhsMax =   5.41233724504764E-16  1.74083954889119E+02
(PID.TID 0000.0001)                    cg2d_init_res =    1.20008476368488E-01
(PID.TID 0000.0001)                       cg2d_iters =   118
(PID.TID 0000.0001)                         cg2d_res =    9.95553771891567E-10
(PID.TID 0000.0001) // =======================================================
(PID.TID 0000.0001) // Begin MONITOR dynamic field statistics
(PID.TID 0000.0001) // =======================================================
(PID.TID 0000.0001) %MON time_tsnumber                =                     3
(PID.TID 0000.0001) %MON time_secondsf                =   5.1840000000000E+05
(PID.TID 0000.0001) %MON dynstat_eta_max              =   5.1584750665247E+04
(PID.TID 0000.0001) %MON dynstat_eta_min              =  -9.1530872885847E+04
(PID.TID 0000.0001) %MON dynstat_eta_mean             =  -3.5083729810113E-12
(PID.TID 0000.0001) %MON dynstat_eta_sd               =   3.9855036948482E+04
(PID.TID 0000.0001) %MON dynstat_eta_del2             =   2.4103070175969E+04
(PID.TID 0000.0001) %MON dynstat_uvel_max             =   7.2155088017609E-02
(PID.TID 0000.0001) %MON dynstat_uvel_min             =  -5.2003352746027E-02
(PID.TID 0000.0001) %MON dynstat_uvel_mean            =  -1.1589308072620E-03
(PID.TID 0000.0001) %MON dynstat_uvel_sd              =   2.6995648193180E-03
(PID.TID 0000.0001) %MON dynstat_uvel_del2            =   1.1016923709400E-03
(PID.TID 0000.0001) %MON dynstat_vvel_max             =   5.4220560015839E-02
(PID.TID 0000.0001) %MON dynstat_vvel_min             =  -4.5474764583264E-02
(PID.TID 0000.0001) %MON dynstat_vvel_mean            =   1.5193906383915E-03
(PID.TID 0000.0001) %MON dynstat_vvel_sd              =   4.1638385750511E-03
(PID.TID 0000.0001) %MON dynstat_vvel_del2            =   1.2392346474579E-03
(PID.TID 0000.0001) %MON dynstat_wvel_max             =   8.9453760277001E-01
(PID.TID 0000.0001) %MON dynstat_wvel_min             =  -1.0789457276369E+00
(PID.TID 0000.0001) %MON dynstat_wvel_mean            =  -1.4004426868982E-03
(PID.TID 0000.0001) %MON dynstat_wvel_sd              =   1.2117963808627E-01
(PID.TID 0000.0001) %MON dynstat_wvel_del2            =   6.1789931414305E-02
(PID.TID 0000.0001) %MON dynstat_theta_max            =   2.9674928577860E+01
(PID.TID 0000.0001) %MON dynstat_theta_min            =  -2.6038654830331E+00
(PID.TID 0000.0001) %MON dynstat_theta_mean           =   3.6021588021168E+00
(PID.TID 0000.0001) %MON dynstat_theta_sd             =   4.4012808816414E+00
(PID.TID 0000.0001) %MON dynstat_theta_del2           =   1.5212358883959E-01
(PID.TID 0000.0001) %MON dynstat_salt_max             =   3.7435170789026E+01
(PID.TID 0000.0001) %MON dynstat_salt_min             =   2.9770529636637E+01
(PID.TID 0000.0001) %MON dynstat_salt_mean            =   3.4718001215684E+01
(PID.TID 0000.0001) %MON dynstat_salt_sd              =   2.9442239088275E-01
(PID.TID 0000.0001) %MON dynstat_salt_del2            =   2.6912900281226E-02
(PID.TID 0000.0001) %MON advcfl_uvel_max              =   4.2068212751354E-02
(PID.TID 0000.0001) %MON advcfl_vvel_max              =   2.1068370435685E-02
(PID.TID 0000.0001) %MON advcfl_wvel_max              =   6.7902476987074E-02
(PID.TID 0000.0001) %MON advcfl_W_hf_max              =   6.7902476987074E-02
(PID.TID 0000.0001) %MON ke_max                       =   2.0416202798003E-03
(PID.TID 0000.0001) %MON ke_mean                      =   2.9045483919355E-05
(PID.TID 0000.0001) %MON ke_volint                    =   1.7091562422897E+17
(PID.TID 0000.0001) %MON ke_volmean                   =   1.2714910155907E-05
(PID.TID 0000.0001) %MON ke_vol                       =   1.3442141716555E+22
(PID.TID 0000.0001) %MON surf_Corr_theta_mean         =   1.7195302371726E-02
(PID.TID 0000.0001) %MON surf_Corr_salt_mean          =  -2.9996878475495E-04
(PID.TID 0000.0001) // =======================================================
(PID.TID 0000.0001) // End MONITOR dynamic field statistics
(PID.TID 0000.0001) // =======================================================
time,SST,SSS,fu,fv,Q,E-P,i0,i1,a,b =   5.1840E+05  4.7556E-01  0.0000E+00 -3.8229E-02 -6.0721E-02  1.4696E+02 -2.0964E-09    12     1  7.3333E-01  2.6667E-01
time,fu0,fu1,fu =   5.1840E+05 -4.5368E-02 -3.5633E-02 -3.8229E-02  7.3333E-01  2.6667E-01
(PID.TID 0000.0001) %GM: Global mean of phiHydLow =  0.25181629784454596E+02
 cg2d: Sum(rhs),rhsMax =  -1.55431223447522E-15  1.72906958413417E+02
(PID.TID 0000.0001)                    cg2d_init_res =    5.70938680826976E-02
(PID.TID 0000.0001)                       cg2d_iters =   118
(PID.TID 0000.0001)                         cg2d_res =    8.95689150748631E-10
(PID.TID 0000.0001) // =======================================================
(PID.TID 0000.0001) // Begin MONITOR dynamic field statistics
(PID.TID 0000.0001) // =======================================================
(PID.TID 0000.0001) %MON time_tsnumber                =                     4
(PID.TID 0000.0001) %MON time_secondsf                =   6.9120000000000E+05
(PID.TID 0000.0001) %MON dynstat_eta_max              =   5.1162651647472E+04
(PID.TID 0000.0001) %MON dynstat_eta_min              =  -9.2933474160831E+04
(PID.TID 0000.0001) %MON dynstat_eta_mean             =   3.4009943104789E-12
(PID.TID 0000.0001) %MON dynstat_eta_sd               =   4.0223840343730E+04
(PID.TID 0000.0001) %MON dynstat_eta_del2             =   2.3960180431351E+04
(PID.TID 0000.0001) %MON dynstat_uvel_max             =   6.1630747040307E-02
(PID.TID 0000.0001) %MON dynstat_uvel_min             =  -7.8246488124617E-02
(PID.TID 0000.0001) %MON dynstat_uvel_mean            =  -8.8490728761099E-04
(PID.TID 0000.0001) %MON dynstat_uvel_sd              =   3.1000998691063E-03
(PID.TID 0000.0001) %MON dynstat_uvel_del2            =   1.3416645541473E-03
(PID.TID 0000.0001) %MON dynstat_vvel_max             =   5.0831870933613E-02
(PID.TID 0000.0001) %MON dynstat_vvel_min             =  -5.9436019688907E-02
(PID.TID 0000.0001) %MON dynstat_vvel_mean            =   1.2018593562525E-03
(PID.TID 0000.0001) %MON dynstat_vvel_sd              =   5.2702743441105E-03
(PID.TID 0000.0001) %MON dynstat_vvel_del2            =   1.5549719246451E-03
(PID.TID 0000.0001) %MON dynstat_wvel_max             =   1.1542803201229E+00
(PID.TID 0000.0001) %MON dynstat_wvel_min             =  -1.3277612296336E+00
(PID.TID 0000.0001) %MON dynstat_wvel_mean            =  -9.6886406708414E-04
(PID.TID 0000.0001) %MON dynstat_wvel_sd              =   1.4926773297178E-01
(PID.TID 0000.0001) %MON dynstat_wvel_del2            =   7.3872783606528E-02
(PID.TID 0000.0001) %MON dynstat_theta_max            =   2.9664885641109E+01
(PID.TID 0000.0001) %MON dynstat_theta_min            =  -2.5955183336117E+00
(PID.TID 0000.0001) %MON dynstat_theta_mean           =   3.6023465308404E+00
(PID.TID 0000.0001) %MON dynstat_theta_sd             =   4.4013279457077E+00
(PID.TID 0000.0001) %MON dynstat_theta_del2           =   1.4997250247774E-01
(PID.TID 0000.0001) %MON dynstat_salt_max             =   3.7435124460947E+01
(PID.TID 0000.0001) %MON dynstat_salt_min             =   2.9775136316060E+01
(PID.TID 0000.0001) %MON dynstat_salt_mean            =   3.4718001763336E+01
(PID.TID 0000.0001) %MON dynstat_salt_sd              =   2.9441631982412E-01
(PID.TID 0000.0001) %MON dynstat_salt_del2            =   2.6758691962650E-02
(PID.TID 0000.0001) %MON advcfl_uvel_max              =   4.9511944021995E-02
(PID.TID 0000.0001) %MON advcfl_vvel_max              =   2.3094930772806E-02
(PID.TID 0000.0001) %MON advcfl_wvel_max              =   8.2189007819274E-02
(PID.TID 0000.0001) %MON advcfl_W_hf_max              =   8.2189007819274E-02
(PID.TID 0000.0001) %MON ke_max                       =   2.4154668031287E-03
(PID.TID 0000.0001) %MON ke_mean                      =   4.6210440696784E-05
(PID.TID 0000.0001) %MON ke_volint                    =   2.3933386302157E+17
(PID.TID 0000.0001) %MON ke_volmean                   =   1.7804741838632E-05
(PID.TID 0000.0001) %MON ke_vol                       =   1.3442141716555E+22
(PID.TID 0000.0001) %MON surf_Corr_theta_mean         =   9.8914453166414E-03
(PID.TID 0000.0001) %MON surf_Corr_salt_mean          =  -2.3690664028176E-04
(PID.TID 0000.0001) // =======================================================
(PID.TID 0000.0001) // End MONITOR dynamic field statistics
(PID.TID 0000.0001) // =======================================================
time,SST,SSS,fu,fv,Q,E-P,i0,i1,a,b =   6.9120E+05  5.9629E-01  0.0000E+00 -3.7580E-02 -5.9855E-02  1.3842E+02 -2.0964E-09    12     1  8.0000E-01  2.0000E-01
time,fu0,fu1,fu =   6.9120E+05 -4.5368E-02 -3.5633E-02 -3.7580E-02  8.0000E-01  2.0000E-01
(PID.TID 0000.0001) %GM: Global mean of phiHydLow =  0.25185359661781732E+02
 cg2d: Sum(rhs),rhsMax =  -4.85722573273506E-16  1.72949317700611E+02
(PID.TID 0000.0001)                    cg2d_init_res =    4.88387368806356E-03
(PID.TID 0000.0001)                       cg2d_iters =   113
(PID.TID 0000.0001)                         cg2d_res =    8.41333708084492E-10
(PID.TID 0000.0001) // =======================================================
(PID.TID 0000.0001) // Begin MONITOR dynamic field statistics
(PID.TID 0000.0001) // =======================================================
(PID.TID 0000.0001) %MON time_tsnumber                =                     5
(PID.TID 0000.0001) %MON time_secondsf                =   8.6400000000000E+05
(PID.TID 0000.0001) %MON dynstat_eta_max              =   5.8881416969313E+04
(PID.TID 0000.0001) %MON dynstat_eta_min              =  -9.4335023488745E+04
(PID.TID 0000.0001) %MON dynstat_eta_mean             =   7.6670935913716E-13
(PID.TID 0000.0001) %MON dynstat_eta_sd               =   4.0649752570826E+04
(PID.TID 0000.0001) %MON dynstat_eta_del2             =   2.3955372078112E+04
(PID.TID 0000.0001) %MON dynstat_uvel_max             =   5.9542233383420E-02
(PID.TID 0000.0001) %MON dynstat_uvel_min             =  -9.1899907673242E-02
(PID.TID 0000.0001) %MON dynstat_uvel_mean            =  -4.7161278072887E-04
(PID.TID 0000.0001) %MON dynstat_uvel_sd              =   3.5762713404759E-03
(PID.TID 0000.0001) %MON dynstat_uvel_del2            =   1.5492948389574E-03
(PID.TID 0000.0001) %MON dynstat_vvel_max             =   6.0693704700764E-02
(PID.TID 0000.0001) %MON dynstat_vvel_min             =  -7.2177301832237E-02
(PID.TID 0000.0001) %MON dynstat_vvel_mean            =   7.4596197985571E-04
(PID.TID 0000.0001) %MON dynstat_vvel_sd              =   6.3120000307072E-03
(PID.TID 0000.0001) %MON dynstat_vvel_del2            =   1.8427603879050E-03
(PID.TID 0000.0001) %MON dynstat_wvel_max             =   1.4030604246527E+00
(PID.TID 0000.0001) %MON dynstat_wvel_min             =  -1.5219802683393E+00
(PID.TID 0000.0001) %MON dynstat_wvel_mean            =  -6.8209040412225E-04
(PID.TID 0000.0001) %MON dynstat_wvel_sd              =   1.7371085669252E-01
(PID.TID 0000.0001) %MON dynstat_wvel_del2            =   8.3526074972495E-02
(PID.TID 0000.0001) %MON dynstat_theta_max            =   2.9661584581265E+01
(PID.TID 0000.0001) %MON dynstat_theta_min            =  -2.5873156369095E+00
(PID.TID 0000.0001) %MON dynstat_theta_mean           =   3.6024987102323E+00
(PID.TID 0000.0001) %MON dynstat_theta_sd             =   4.4013890135314E+00
(PID.TID 0000.0001) %MON dynstat_theta_del2           =   1.4774114569073E-01
(PID.TID 0000.0001) %MON dynstat_salt_max             =   3.7435035213700E+01
(PID.TID 0000.0001) %MON dynstat_salt_min             =   2.9777821973458E+01
(PID.TID 0000.0001) %MON dynstat_salt_mean            =   3.4718001593977E+01
(PID.TID 0000.0001) %MON dynstat_salt_sd              =   2.9441814740207E-01
(PID.TID 0000.0001) %MON dynstat_salt_del2            =   2.6634272067053E-02
(PID.TID 0000.0001) %MON advcfl_uvel_max              =   5.3935896587395E-02
(PID.TID 0000.0001) %MON advcfl_vvel_max              =   2.8045784322508E-02
(PID.TID 0000.0001) %MON advcfl_wvel_max              =   9.5632085450520E-02
(PID.TID 0000.0001) %MON advcfl_W_hf_max              =   9.5632085450520E-02
(PID.TID 0000.0001) %MON ke_max                       =   3.6365775545247E-03
(PID.TID 0000.0001) %MON ke_mean                      =   6.6954900151181E-05
(PID.TID 0000.0001) %MON ke_volint                    =   3.2262168721366E+17
(PID.TID 0000.0001) %MON ke_volmean                   =   2.4000765206657E-05
(PID.TID 0000.0001) %MON ke_vol                       =   1.3442141716555E+22
(PID.TID 0000.0001) %MON surf_Corr_theta_mean         =   5.9596725620106E-03
(PID.TID 0000.0001) %MON surf_Corr_salt_mean          =  -1.1299826263585E-04
(PID.TID 0000.0001) // =======================================================
(PID.TID 0000.0001) // End MONITOR dynamic field statistics
(PID.TID 0000.0001) // =======================================================
time,SST,SSS,fu,fv,Q,E-P,i0,i1,a,b =   8.6400E+05  7.1702E-01  0.0000E+00 -3.6931E-02 -5.8989E-02  1.2989E+02 -2.0964E-09    12     1  8.6667E-01  1.3333E-01
time,fu0,fu1,fu =   8.6400E+05 -4.5368E-02 -3.5633E-02 -3.6931E-02  8.6667E-01  1.3333E-01
(PID.TID 0000.0001) %GM: Global mean of phiHydLow =  0.25187901871589720E+02
 cg2d: Sum(rhs),rhsMax =   3.60822483003176E-16  1.72918947978932E+02
(PID.TID 0000.0001)                    cg2d_init_res =    3.71456264336079E-03
(PID.TID 0000.0001)                       cg2d_iters =   111
(PID.TID 0000.0001)                         cg2d_res =    8.09874160859880E-10
(PID.TID 0000.0001) // =======================================================
(PID.TID 0000.0001) // Begin MONITOR dynamic field statistics
(PID.TID 0000.0001) // =======================================================
(PID.TID 0000.0001) %MON time_tsnumber                =                     6
(PID.TID 0000.0001) %MON time_secondsf                =   1.0368000000000E+06
(PID.TID 0000.0001) %MON dynstat_eta_max              =   6.2244324073625E+04
(PID.TID 0000.0001) %MON dynstat_eta_min              =  -9.5050345630397E+04
(PID.TID 0000.0001) %MON dynstat_eta_mean             =   3.1375496837505E-12
(PID.TID 0000.0001) %MON dynstat_eta_sd               =   4.0792043842031E+04
(PID.TID 0000.0001) %MON dynstat_eta_del2             =   2.3952991676618E+04
(PID.TID 0000.0001) %MON dynstat_uvel_max             =   7.3968961265624E-02
(PID.TID 0000.0001) %MON dynstat_uvel_min             =  -9.0318419457115E-02
(PID.TID 0000.0001) %MON dynstat_uvel_mean            =  -3.9820502892274E-05
(PID.TID 0000.0001) %MON dynstat_uvel_sd              =   4.2128478575342E-03
(PID.TID 0000.0001) %MON dynstat_uvel_del2            =   1.7349021075638E-03
(PID.TID 0000.0001) %MON dynstat_vvel_max             =   6.9117720525417E-02
(PID.TID 0000.0001) %MON dynstat_vvel_min             =  -8.3438453652840E-02
(PID.TID 0000.0001) %MON dynstat_vvel_mean            =   2.8100986512563E-04
(PID.TID 0000.0001) %MON dynstat_vvel_sd              =   7.2908124247240E-03
(PID.TID 0000.0001) %MON dynstat_vvel_del2            =   2.1073249549525E-03
(PID.TID 0000.0001) %MON dynstat_wvel_max             =   1.6186863460466E+00
(PID.TID 0000.0001) %MON dynstat_wvel_min             =  -1.6533847472860E+00
(PID.TID 0000.0001) %MON dynstat_wvel_mean            =  -3.9051555887161E-04
(PID.TID 0000.0001) %MON dynstat_wvel_sd              =   1.9506760759085E-01
(PID.TID 0000.0001) %MON dynstat_wvel_del2            =   9.1352904403193E-02
(PID.TID 0000.0001) %MON dynstat_theta_max            =   2.9706290281552E+01
(PID.TID 0000.0001) %MON dynstat_theta_min            =  -2.5961456544949E+00
(PID.TID 0000.0001) %MON dynstat_theta_mean           =   3.6026391073037E+00
(PID.TID 0000.0001) %MON dynstat_theta_sd             =   4.4014689080942E+00
(PID.TID 0000.0001) %MON dynstat_theta_del2           =   1.4563139153718E-01
(PID.TID 0000.0001) %MON dynstat_salt_max             =   3.7434853102558E+01
(PID.TID 0000.0001) %MON dynstat_salt_min             =   2.9778881048801E+01
(PID.TID 0000.0001) %MON dynstat_salt_mean            =   3.4718001262331E+01
(PID.TID 0000.0001) %MON dynstat_salt_sd              =   2.9441943839497E-01
(PID.TID 0000.0001) %MON dynstat_salt_del2            =   2.6516131933832E-02
(PID.TID 0000.0001) %MON advcfl_uvel_max              =   5.3875431415257E-02
(PID.TID 0000.0001) %MON advcfl_vvel_max              =   3.2421506705671E-02
(PID.TID 0000.0001) %MON advcfl_wvel_max              =   1.0549853733019E-01
(PID.TID 0000.0001) %MON advcfl_W_hf_max              =   1.0549853733019E-01
(PID.TID 0000.0001) %MON ke_max                       =   3.8292985327377E-03
(PID.TID 0000.0001) %MON ke_mean                      =   9.1380524167225E-05
(PID.TID 0000.0001) %MON ke_volint                    =   4.2880806366318E+17
(PID.TID 0000.0001) %MON ke_volmean                   =   3.1900278445589E-05
(PID.TID 0000.0001) %MON ke_vol                       =   1.3442141716555E+22
(PID.TID 0000.0001) %MON surf_Corr_theta_mean         =   2.1244259642578E-03
(PID.TID 0000.0001) %MON surf_Corr_salt_mean          =  -5.6944617739537E-05
(PID.TID 0000.0001) // =======================================================
(PID.TID 0000.0001) // End MONITOR dynamic field statistics
(PID.TID 0000.0001) // =======================================================
time,SST,SSS,fu,fv,Q,E-P,i0,i1,a,b =   1.0368E+06  8.3775E-01  0.0000E+00 -3.6282E-02 -5.8123E-02  1.2135E+02 -2.0964E-09    12     1  9.3333E-01  6.6667E-02
time,fu0,fu1,fu =   1.0368E+06 -4.5368E-02 -3.5633E-02 -3.6282E-02  9.3333E-01  6.6667E-02
(PID.TID 0000.0001) %GM: Global mean of phiHydLow =  0.25189575474054855E+02
 cg2d: Sum(rhs),rhsMax =   5.13478148889135E-16  1.72939349742327E+02
(PID.TID 0000.0001)                    cg2d_init_res =    3.65012567525982E-03
(PID.TID 0000.0001)                       cg2d_iters =   110
(PID.TID 0000.0001)                         cg2d_res =    9.80843029694643E-10
(PID.TID 0000.0001) // =======================================================
(PID.TID 0000.0001) // Begin MONITOR dynamic field statistics
(PID.TID 0000.0001) // =======================================================
(PID.TID 0000.0001) %MON time_tsnumber                =                     7
(PID.TID 0000.0001) %MON time_secondsf                =   1.2096000000000E+06
(PID.TID 0000.0001) %MON dynstat_eta_max              =   6.1109250680429E+04
(PID.TID 0000.0001) %MON dynstat_eta_min              =  -9.5039069849116E+04
(PID.TID 0000.0001) %MON dynstat_eta_mean             =  -3.3582639978451E-12
(PID.TID 0000.0001) %MON dynstat_eta_sd               =   4.0653474933651E+04
(PID.TID 0000.0001) %MON dynstat_eta_del2             =   2.3955432011375E+04
(PID.TID 0000.0001) %MON dynstat_uvel_max             =   8.8182332732138E-02
(PID.TID 0000.0001) %MON dynstat_uvel_min             =  -7.5629732503955E-02
(PID.TID 0000.0001) %MON dynstat_uvel_mean            =   3.1561091010230E-04
(PID.TID 0000.0001) %MON dynstat_uvel_sd              =   4.9827210527175E-03
(PID.TID 0000.0001) %MON dynstat_uvel_del2            =   1.8989761810474E-03
(PID.TID 0000.0001) %MON dynstat_vvel_max             =   7.6046995162263E-02
(PID.TID 0000.0001) %MON dynstat_vvel_min             =  -9.4858475713680E-02
(PID.TID 0000.0001) %MON dynstat_vvel_mean            =  -9.4576921166132E-05
(PID.TID 0000.0001) %MON dynstat_vvel_sd              =   8.1821149057123E-03
(PID.TID 0000.0001) %MON dynstat_vvel_del2            =   2.3429559434682E-03
(PID.TID 0000.0001) %MON dynstat_wvel_max             =   1.7924328451994E+00
(PID.TID 0000.0001) %MON dynstat_wvel_min             =  -1.7238688711549E+00
(PID.TID 0000.0001) %MON dynstat_wvel_mean            =  -8.3551401142691E-05
(PID.TID 0000.0001) %MON dynstat_wvel_sd              =   2.1270487094991E-01
(PID.TID 0000.0001) %MON dynstat_wvel_del2            =   9.7137759923613E-02
(PID.TID 0000.0001) %MON dynstat_theta_max            =   2.9752543880735E+01
(PID.TID 0000.0001) %MON dynstat_theta_min            =  -2.6766354775568E+00
(PID.TID 0000.0001) %MON dynstat_theta_mean           =   3.6027764469208E+00
(PID.TID 0000.0001) %MON dynstat_theta_sd             =   4.4015745511566E+00
(PID.TID 0000.0001) %MON dynstat_theta_del2           =   1.4394079135427E-01
(PID.TID 0000.0001) %MON dynstat_salt_max             =   3.7434626153430E+01
(PID.TID 0000.0001) %MON dynstat_salt_min             =   2.9778931330820E+01
(PID.TID 0000.0001) %MON dynstat_salt_mean            =   3.4718001110915E+01
(PID.TID 0000.0001) %MON dynstat_salt_sd              =   2.9442001315522E-01
(PID.TID 0000.0001) %MON dynstat_salt_del2            =   2.6437587758940E-02
(PID.TID 0000.0001) %MON advcfl_uvel_max              =   5.8294803785737E-02
(PID.TID 0000.0001) %MON advcfl_vvel_max              =   3.6858960968246E-02
(PID.TID 0000.0001) %MON advcfl_wvel_max              =   1.1179256452916E-01
(PID.TID 0000.0001) %MON advcfl_W_hf_max              =   1.1179256452916E-01
(PID.TID 0000.0001) %MON ke_max                       =   5.0505337729565E-03
(PID.TID 0000.0001) %MON ke_mean                      =   1.1892341406116E-04
(PID.TID 0000.0001) %MON ke_volint                    =   5.5517355818152E+17
(PID.TID 0000.0001) %MON ke_volmean                   =   4.1300974940457E-05
(PID.TID 0000.0001) %MON ke_vol                       =   1.3442141716555E+22
(PID.TID 0000.0001) %MON surf_Corr_theta_mean         =  -1.6216446332290E-03
(PID.TID 0000.0001) %MON surf_Corr_salt_mean          =  -5.2040561656788E-05
(PID.TID 0000.0001) // =======================================================
(PID.TID 0000.0001) // End MONITOR dynamic field statistics
(PID.TID 0000.0001) // =======================================================
 S/R EXTERNAL_FIELDS_LOAD: Reading new data  1209600. 7
(PID.TID 0000.0001)  MDSREADFIELD: opening global file: trenberth_taux.bin
(PID.TID 0000.0001)  MDSREADFIELD: opening global file: trenberth_taux.bin
(PID.TID 0000.0001)  MDSREADFIELD: opening global file: trenberth_tauy.bin
(PID.TID 0000.0001)  MDSREADFIELD: opening global file: trenberth_tauy.bin
(PID.TID 0000.0001)  MDSREADFIELD: opening global file: shi_qnet.bin
(PID.TID 0000.0001)  MDSREADFIELD: opening global file: shi_qnet.bin
(PID.TID 0000.0001)  MDSREADFIELD: opening global file: shi_empmr.bin
(PID.TID 0000.0001)  MDSREADFIELD: opening global file: shi_empmr.bin
(PID.TID 0000.0001)  MDSREADFIELD: opening global file: lev_sst.bin
(PID.TID 0000.0001)  MDSREADFIELD: opening global file: lev_sst.bin
(PID.TID 0000.0001)  MDSREADFIELD: opening global file: deltageopotjmd95.bin
(PID.TID 0000.0001)  MDSREADFIELD: opening global file: deltageopotjmd95.bin
time,SST,SSS,fu,fv,Q,E-P,i0,i1,a,b =   1.2096E+06  9.5848E-01  0.0000E+00 -3.5633E-02 -5.7257E-02  1.1281E+02 -2.0964E-09     1     2  0.0000E+00  1.0000E+00
time,fu0,fu1,fu =   1.2096E+06 -3.5633E-02 -1.4435E-02 -3.5633E-02  0.0000E+00  1.0000E+00
(PID.TID 0000.0001) %GM: Global mean of phiHydLow =  0.25190495918728050E+02
 cg2d: Sum(rhs),rhsMax =  -2.35922392732846E-16  1.72951962045384E+02
(PID.TID 0000.0001)                    cg2d_init_res =    3.90172126284032E-03
(PID.TID 0000.0001)                       cg2d_iters =   109
(PID.TID 0000.0001)                         cg2d_res =    9.59268248339770E-10
(PID.TID 0000.0001) // =======================================================
(PID.TID 0000.0001) // Begin MONITOR dynamic field statistics
(PID.TID 0000.0001) // =======================================================
(PID.TID 0000.0001) %MON time_tsnumber                =                     8
(PID.TID 0000.0001) %MON time_secondsf                =   1.3824000000000E+06
(PID.TID 0000.0001) %MON dynstat_eta_max              =   5.6514989831666E+04
(PID.TID 0000.0001) %MON dynstat_eta_min              =  -9.4419302642556E+04
(PID.TID 0000.0001) %MON dynstat_eta_mean             =   2.3811287667054E-12
(PID.TID 0000.0001) %MON dynstat_eta_sd               =   4.0354525778472E+04
(PID.TID 0000.0001) %MON dynstat_eta_del2             =   2.3957698764233E+04
(PID.TID 0000.0001) %MON dynstat_uvel_max             =   1.0171398795378E-01
(PID.TID 0000.0001) %MON dynstat_uvel_min             =  -6.5373976691141E-02
(PID.TID 0000.0001) %MON dynstat_uvel_mean            =   5.4080895967582E-04
(PID.TID 0000.0001) %MON dynstat_uvel_sd              =   5.8248399066555E-03
(PID.TID 0000.0001) %MON dynstat_uvel_del2            =   2.0391241669163E-03
(PID.TID 0000.0001) %MON dynstat_vvel_max             =   8.1479850845750E-02
(PID.TID 0000.0001) %MON dynstat_vvel_min             =  -1.0475008603535E-01
(PID.TID 0000.0001) %MON dynstat_vvel_mean            =  -3.2789985869673E-04
(PID.TID 0000.0001) %MON dynstat_vvel_sd              =   8.9604401825747E-03
(PID.TID 0000.0001) %MON dynstat_vvel_del2            =   2.5435329042423E-03
(PID.TID 0000.0001) %MON dynstat_wvel_max             =   1.9178194228655E+00
(PID.TID 0000.0001) %MON dynstat_wvel_min             =  -1.7395775508371E+00
(PID.TID 0000.0001) %MON dynstat_wvel_mean            =   1.7921693002295E-04
(PID.TID 0000.0001) %MON dynstat_wvel_sd              =   2.2625338812704E-01
(PID.TID 0000.0001) %MON dynstat_wvel_del2            =   1.0079171545454E-01
(PID.TID 0000.0001) %MON dynstat_theta_max            =   2.9804755588407E+01
(PID.TID 0000.0001) %MON dynstat_theta_min            =  -2.7604625876007E+00
(PID.TID 0000.0001) %MON dynstat_theta_mean           =   3.6029089311795E+00
(PID.TID 0000.0001) %MON dynstat_theta_sd             =   4.4017030902469E+00
(PID.TID 0000.0001) %MON dynstat_theta_del2           =   1.4262502466450E-01
(PID.TID 0000.0001) %MON dynstat_salt_max             =   3.7434369393852E+01
(PID.TID 0000.0001) %MON dynstat_salt_min             =   2.9778295919795E+01
(PID.TID 0000.0001) %MON dynstat_salt_mean            =   3.4718001096307E+01
(PID.TID 0000.0001) %MON dynstat_salt_sd              =   2.9442252707936E-01
(PID.TID 0000.0001) %MON dynstat_salt_del2            =   2.6381997383739E-02
(PID.TID 0000.0001) %MON advcfl_uvel_max              =   6.7240191842525E-02
(PID.TID 0000.0001) %MON advcfl_vvel_max              =   4.0702523454534E-02
(PID.TID 0000.0001) %MON advcfl_wvel_max              =   1.1933374770396E-01
(PID.TID 0000.0001) %MON advcfl_W_hf_max              =   1.1933374770396E-01
(PID.TID 0000.0001) %MON ke_max                       =   6.3506355195463E-03
(PID.TID 0000.0001) %MON ke_mean                      =   1.4861119398271E-04
(PID.TID 0000.0001) %MON ke_volint                    =   6.9273822808974E+17
(PID.TID 0000.0001) %MON ke_volmean                   =   5.1534810649747E-05
(PID.TID 0000.0001) %MON ke_vol                       =   1.3442141716555E+22
(PID.TID 0000.0001) %MON surf_Corr_theta_mean         =  -4.3260682059123E-03
(PID.TID 0000.0001) %MON surf_Corr_salt_mean          =  -5.5410459948591E-05
(PID.TID 0000.0001) // =======================================================
(PID.TID 0000.0001) // End MONITOR dynamic field statistics
(PID.TID 0000.0001) // =======================================================
time,SST,SSS,fu,fv,Q,E-P,i0,i1,a,b =   1.3824E+06  8.5911E-01  0.0000E+00 -3.4220E-02 -5.4615E-02  1.1534E+02 -2.0964E-09     1     2  6.6667E-02  9.3333E-01
time,fu0,fu1,fu =   1.3824E+06 -3.5633E-02 -1.4435E-02 -3.4220E-02  6.6667E-02  9.3333E-01
(PID.TID 0000.0001) %GM: Global mean of phiHydLow =  0.25190642807318419E+02
 cg2d: Sum(rhs),rhsMax =  -5.96744875736022E-16  1.72966331648305E+02
(PID.TID 0000.0001)                    cg2d_init_res =    3.93719060936461E-03
(PID.TID 0000.0001)                       cg2d_iters =   108
(PID.TID 0000.0001)                         cg2d_res =    9.28112587918791E-10
(PID.TID 0000.0001) // =======================================================
(PID.TID 0000.0001) // Begin MONITOR dynamic field statistics
(PID.TID 0000.0001) // =======================================================
(PID.TID 0000.0001) %MON time_tsnumber                =                     9
(PID.TID 0000.0001) %MON time_secondsf                =   1.5552000000000E+06
(PID.TID 0000.0001) %MON dynstat_eta_max              =   5.2378855851414E+04
(PID.TID 0000.0001) %MON dynstat_eta_min              =  -9.3570962613053E+04
(PID.TID 0000.0001) %MON dynstat_eta_mean             =   3.3336215752904E-12
(PID.TID 0000.0001) %MON dynstat_eta_sd               =   4.0033329402186E+04
(PID.TID 0000.0001) %MON dynstat_eta_del2             =   2.3959183367915E+04
(PID.TID 0000.0001) %MON dynstat_uvel_max             =   1.1447422984766E-01
(PID.TID 0000.0001) %MON dynstat_uvel_min             =  -6.6935328284243E-02
(PID.TID 0000.0001) %MON dynstat_uvel_mean            =   6.2401924785520E-04
(PID.TID 0000.0001) %MON dynstat_uvel_sd              =   6.7057888129630E-03
(PID.TID 0000.0001) %MON dynstat_uvel_del2            =   2.1568872664196E-03
(PID.TID 0000.0001) %MON dynstat_vvel_max             =   8.4918323492941E-02
(PID.TID 0000.0001) %MON dynstat_vvel_min             =  -1.1294331713080E-01
(PID.TID 0000.0001) %MON dynstat_vvel_mean            =  -4.1343294208777E-04
(PID.TID 0000.0001) %MON dynstat_vvel_sd              =   9.6108696650478E-03
(PID.TID 0000.0001) %MON dynstat_vvel_del2            =   2.7073300239255E-03
(PID.TID 0000.0001) %MON dynstat_wvel_max             =   1.9915491397803E+00
(PID.TID 0000.0001) %MON dynstat_wvel_min             =  -1.7059097959088E+00
(PID.TID 0000.0001) %MON dynstat_wvel_mean            =   3.5941584999011E-04
(PID.TID 0000.0001) %MON dynstat_wvel_sd              =   2.3565705468777E-01
(PID.TID 0000.0001) %MON dynstat_wvel_del2            =   1.0246403934579E-01
(PID.TID 0000.0001) %MON dynstat_theta_max            =   2.9845494120338E+01
(PID.TID 0000.0001) %MON dynstat_theta_min            =  -2.8334054721778E+00
(PID.TID 0000.0001) %MON dynstat_theta_mean           =   3.6030340854521E+00
(PID.TID 0000.0001) %MON dynstat_theta_sd             =   4.4018517462701E+00
(PID.TID 0000.0001) %MON dynstat_theta_del2           =   1.4178564730148E-01
(PID.TID 0000.0001) %MON dynstat_salt_max             =   3.7434095813404E+01
(PID.TID 0000.0001) %MON dynstat_salt_min             =   2.9777152586887E+01
(PID.TID 0000.0001) %MON dynstat_salt_mean            =   3.4718001104385E+01
(PID.TID 0000.0001) %MON dynstat_salt_sd              =   2.9442157545941E-01
(PID.TID 0000.0001) %MON dynstat_salt_del2            =   2.6367853969272E-02
(PID.TID 0000.0001) %MON advcfl_uvel_max              =   7.5675620736450E-02
(PID.TID 0000.0001) %MON advcfl_vvel_max              =   4.3886150250967E-02
(PID.TID 0000.0001) %MON advcfl_wvel_max              =   1.2739520161870E-01
(PID.TID 0000.0001) %MON advcfl_W_hf_max              =   1.2739520161870E-01
(PID.TID 0000.0001) %MON ke_max                       =   7.7148944821734E-03
(PID.TID 0000.0001) %MON ke_mean                      =   1.7961807123580E-04
(PID.TID 0000.0001) %MON ke_volint                    =   8.3369233910952E+17
(PID.TID 0000.0001) %MON ke_volmean                   =   6.2020796736784E-05
(PID.TID 0000.0001) %MON ke_vol                       =   1.3442141716555E+22
(PID.TID 0000.0001) %MON surf_Corr_theta_mean         =  -5.4509931502734E-03
(PID.TID 0000.0001) %MON surf_Corr_salt_mean          =  -5.3720855862624E-05
(PID.TID 0000.0001) // =======================================================
(PID.TID 0000.0001) // End MONITOR dynamic field statistics
(PID.TID 0000.0001) // =======================================================
time,SST,SSS,fu,fv,Q,E-P,i0,i1,a,b =   1.5552E+06  7.5973E-01  0.0000E+00 -3.2807E-02 -5.1974E-02  1.1787E+02 -2.0964E-09     1     2  1.3333E-01  8.6667E-01
time,fu0,fu1,fu =   1.5552E+06 -3.5633E-02 -1.4435E-02 -3.2807E-02  1.3333E-01  8.6667E-01
(PID.TID 0000.0001) %GM: Global mean of phiHydLow =  0.25190115162327370E+02
 cg2d: Sum(rhs),rhsMax =   1.99840144432528E-15  1.72979028113389E+02
(PID.TID 0000.0001)                    cg2d_init_res =    3.62496388368914E-03
(PID.TID 0000.0001)                       cg2d_iters =   108
(PID.TID 0000.0001)                         cg2d_res =    8.85466276867175E-10
(PID.TID 0000.0001) // =======================================================
(PID.TID 0000.0001) // Begin MONITOR dynamic field statistics
(PID.TID 0000.0001) // =======================================================
(PID.TID 0000.0001) %MON time_tsnumber                =                    10
(PID.TID 0000.0001) %MON time_secondsf                =   1.7280000000000E+06
(PID.TID 0000.0001) %MON dynstat_eta_max              =   5.1468636176868E+04
(PID.TID 0000.0001) %MON dynstat_eta_min              =  -9.2855324787142E+04
(PID.TID 0000.0001) %MON dynstat_eta_mean             =  -4.0793367420102E-12
(PID.TID 0000.0001) %MON dynstat_eta_sd               =   3.9772968381953E+04
(PID.TID 0000.0001) %MON dynstat_eta_del2             =   2.3960660597410E+04
(PID.TID 0000.0001) %MON dynstat_uvel_max             =   1.2629732536022E-01
(PID.TID 0000.0001) %MON dynstat_uvel_min             =  -6.6694238312777E-02
(PID.TID 0000.0001) %MON dynstat_uvel_mean            =   5.8789903495403E-04
(PID.TID 0000.0001) %MON dynstat_uvel_sd              =   7.6221481810834E-03
(PID.TID 0000.0001) %MON dynstat_uvel_del2            =   2.2630722543017E-03
(PID.TID 0000.0001) %MON dynstat_vvel_max             =   8.6866870038932E-02
(PID.TID 0000.0001) %MON dynstat_vvel_min             =  -1.1933388658389E-01
(PID.TID 0000.0001) %MON dynstat_vvel_mean            =  -3.8120538124536E-04
(PID.TID 0000.0001) %MON dynstat_vvel_sd              =   1.0129532441786E-02
(PID.TID 0000.0001) %MON dynstat_vvel_del2            =   2.8359622571735E-03
(PID.TID 0000.0001) %MON dynstat_wvel_max             =   2.0214959120897E+00
(PID.TID 0000.0001) %MON dynstat_wvel_min             =  -1.6347925371856E+00
(PID.TID 0000.0001) %MON dynstat_wvel_mean            =   4.4538622458511E-04
(PID.TID 0000.0001) %MON dynstat_wvel_sd              =   2.4120836188926E-01
(PID.TID 0000.0001) %MON dynstat_wvel_del2            =   1.0250644240327E-01
(PID.TID 0000.0001) %MON dynstat_theta_max            =   2.9880808452119E+01
(PID.TID 0000.0001) %MON dynstat_theta_min            =  -2.9013521854447E+00
(PID.TID 0000.0001) %MON dynstat_theta_mean           =   3.6031509124200E+00
(PID.TID 0000.0001) %MON dynstat_theta_sd             =   4.4020172421855E+00
(PID.TID 0000.0001) %MON dynstat_theta_del2           =   1.4123524472744E-01
(PID.TID 0000.0001) %MON dynstat_salt_max             =   3.7433815990059E+01
(PID.TID 0000.0001) %MON dynstat_salt_min             =   2.9775802788561E+01
(PID.TID 0000.0001) %MON dynstat_salt_mean            =   3.4718001098389E+01
(PID.TID 0000.0001) %MON dynstat_salt_sd              =   2.9442385003173E-01
(PID.TID 0000.0001) %MON dynstat_salt_del2            =   2.6379552820319E-02
(PID.TID 0000.0001) %MON advcfl_uvel_max              =   8.3491529112770E-02
(PID.TID 0000.0001) %MON advcfl_vvel_max              =   4.6369320555615E-02
(PID.TID 0000.0001) %MON advcfl_wvel_max              =   1.3317605925338E-01
(PID.TID 0000.0001) %MON advcfl_W_hf_max              =   1.3317605925338E-01
(PID.TID 0000.0001) %MON ke_max                       =   9.1172910084299E-03
(PID.TID 0000.0001) %MON ke_mean                      =   2.1144414142626E-04
(PID.TID 0000.0001) %MON ke_volint                    =   9.7489046215028E+17
(PID.TID 0000.0001) %MON ke_volmean                   =   7.2524935587430E-05
(PID.TID 0000.0001) %MON ke_vol                       =   1.3442141716555E+22
(PID.TID 0000.0001) %MON surf_Corr_theta_mean         =  -5.0937806664699E-03
(PID.TID 0000.0001) %MON surf_Corr_salt_mean          =  -5.2868153187952E-05
(PID.TID 0000.0001) // =======================================================
(PID.TID 0000.0001) // End MONITOR dynamic field statistics
(PID.TID 0000.0001) // =======================================================
time,SST,SSS,fu,fv,Q,E-P,i0,i1,a,b =   1.7280E+06  6.6036E-01  0.0000E+00 -3.1393E-02 -4.9332E-02  1.2039E+02 -2.0964E-09     1     2  2.0000E-01  8.0000E-01
time,fu0,fu1,fu =   1.7280E+06 -3.5633E-02 -1.4435E-02 -3.1393E-02  2.0000E-01  8.0000E-01
(PID.TID 0000.0001) %GM: Global mean of phiHydLow =  0.25189108183519085E+02
 cg2d: Sum(rhs),rhsMax =   1.05471187339390E-15  1.72989031369046E+02
(PID.TID 0000.0001)                    cg2d_init_res =    3.14782666784848E-03
(PID.TID 0000.0001)                       cg2d_iters =   107
(PID.TID 0000.0001)                         cg2d_res =    9.40057641903335E-10
(PID.TID 0000.0001) // =======================================================
(PID.TID 0000.0001) // Begin MONITOR dynamic field statistics
(PID.TID 0000.0001) // =======================================================
(PID.TID 0000.0001) %MON time_tsnumber                =                    11
(PID.TID 0000.0001) %MON time_secondsf                =   1.9008000000000E+06
(PID.TID 0000.0001) %MON dynstat_eta_max              =   4.7586423551697E+04
(PID.TID 0000.0001) %MON dynstat_eta_min              =  -9.2586004507299E+04
(PID.TID 0000.0001) %MON dynstat_eta_mean             =  -1.1733703216879E-12
(PID.TID 0000.0001) %MON dynstat_eta_sd               =   3.9598919179684E+04
(PID.TID 0000.0001) %MON dynstat_eta_del2             =   2.3961808628753E+04
(PID.TID 0000.0001) %MON dynstat_uvel_max             =   1.3711594311022E-01
(PID.TID 0000.0001) %MON dynstat_uvel_min             =  -6.4751324376411E-02
(PID.TID 0000.0001) %MON dynstat_uvel_mean            =   4.7720559092300E-04
(PID.TID 0000.0001) %MON dynstat_uvel_sd              =   8.5761081581229E-03
(PID.TID 0000.0001) %MON dynstat_uvel_del2            =   2.3661044005814E-03
(PID.TID 0000.0001) %MON dynstat_vvel_max             =   8.9467345349507E-02
(PID.TID 0000.0001) %MON dynstat_vvel_min             =  -1.2387565800877E-01
(PID.TID 0000.0001) %MON dynstat_vvel_mean            =  -2.7949045355708E-04
(PID.TID 0000.0001) %MON dynstat_vvel_sd              =   1.0518721744142E-02
(PID.TID 0000.0001) %MON dynstat_vvel_del2            =   2.9312631703743E-03
(PID.TID 0000.0001) %MON dynstat_wvel_max             =   2.1371199793204E+00
(PID.TID 0000.0001) %MON dynstat_wvel_min             =  -1.5547912527052E+00
(PID.TID 0000.0001) %MON dynstat_wvel_mean            =   4.4830576121366E-04
(PID.TID 0000.0001) %MON dynstat_wvel_sd              =   2.4341233680738E-01
(PID.TID 0000.0001) %MON dynstat_wvel_del2            =   1.0139470035573E-01
(PID.TID 0000.0001) %MON dynstat_theta_max            =   2.9910890704479E+01
(PID.TID 0000.0001) %MON dynstat_theta_min            =  -2.9643097103707E+00
(PID.TID 0000.0001) %MON dynstat_theta_mean           =   3.6032595708583E+00
(PID.TID 0000.0001) %MON dynstat_theta_sd             =   4.4021926965958E+00
(PID.TID 0000.0001) %MON dynstat_theta_del2           =   1.4114955227685E-01
(PID.TID 0000.0001) %MON dynstat_salt_max             =   3.7433547961106E+01
(PID.TID 0000.0001) %MON dynstat_salt_min             =   2.9774382851138E+01
(PID.TID 0000.0001) %MON dynstat_salt_mean            =   3.4718001096468E+01
(PID.TID 0000.0001) %MON dynstat_salt_sd              =   2.9442146341679E-01
(PID.TID 0000.0001) %MON dynstat_salt_del2            =   2.6410098508356E-02
(PID.TID 0000.0001) %MON advcfl_uvel_max              =   9.0643406132003E-02
(PID.TID 0000.0001) %MON advcfl_vvel_max              =   4.8134107248810E-02
(PID.TID 0000.0001) %MON advcfl_wvel_max              =   1.3649306255500E-01
(PID.TID 0000.0001) %MON advcfl_W_hf_max              =   1.3649306255500E-01
(PID.TID 0000.0001) %MON ke_max                       =   1.0550412625314E-02
(PID.TID 0000.0001) %MON ke_mean                      =   2.4375783542361E-04
(PID.TID 0000.0001) %MON ke_volint                    =   1.1162564315986E+18
(PID.TID 0000.0001) %MON ke_volmean                   =   8.3041561020282E-05
(PID.TID 0000.0001) %MON ke_vol                       =   1.3442141716555E+22
(PID.TID 0000.0001) %MON surf_Corr_theta_mean         =  -3.7594933834402E-03
(PID.TID 0000.0001) %MON surf_Corr_salt_mean          =  -5.6680744350251E-05
(PID.TID 0000.0001) // =======================================================
(PID.TID 0000.0001) // End MONITOR dynamic field statistics
(PID.TID 0000.0001) // =======================================================
time,SST,SSS,fu,fv,Q,E-P,i0,i1,a,b =   1.9008E+06  5.6099E-01  0.0000E+00 -2.9980E-02 -4.6691E-02  1.2292E+02 -2.0964E-09     1     2  2.6667E-01  7.3333E-01
time,fu0,fu1,fu =   1.9008E+06 -3.5633E-02 -1.4435E-02 -2.9980E-02  2.6667E-01  7.3333E-01
(PID.TID 0000.0001) %GM: Global mean of phiHydLow =  0.25187850216805550E+02
 cg2d: Sum(rhs),rhsMax =  -3.08086889333481E-15  1.72995458550224E+02
(PID.TID 0000.0001)                    cg2d_init_res =    2.75429985380551E-03
(PID.TID 0000.0001)                       cg2d_iters =   102
(PID.TID 0000.0001)                         cg2d_res =    9.21185023932671E-10
(PID.TID 0000.0001) // =======================================================
(PID.TID 0000.0001) // Begin MONITOR dynamic field statistics
(PID.TID 0000.0001) // =======================================================
(PID.TID 0000.0001) %MON time_tsnumber                =                    12
(PID.TID 0000.0001) %MON time_secondsf                =   2.0736000000000E+06
(PID.TID 0000.0001) %MON dynstat_eta_max              =   4.2962143506779E+04
(PID.TID 0000.0001) %MON dynstat_eta_min              =  -9.2538107464045E+04
(PID.TID 0000.0001) %MON dynstat_eta_mean             =   1.0657355542503E-12
(PID.TID 0000.0001) %MON dynstat_eta_sd               =   3.9506892723358E+04
(PID.TID 0000.0001) %MON dynstat_eta_del2             =   2.3962644310408E+04
(PID.TID 0000.0001) %MON dynstat_uvel_max             =   1.4842248714900E-01
(PID.TID 0000.0001) %MON dynstat_uvel_min             =  -6.9031481854782E-02
(PID.TID 0000.0001) %MON dynstat_uvel_mean            =   3.4408927626565E-04
(PID.TID 0000.0001) %MON dynstat_uvel_sd              =   9.5582557927087E-03
(PID.TID 0000.0001) %MON dynstat_uvel_del2            =   2.4632108283201E-03
(PID.TID 0000.0001) %MON dynstat_vvel_max             =   9.0789805421148E-02
(PID.TID 0000.0001) %MON dynstat_vvel_min             =  -1.2719126726269E-01
(PID.TID 0000.0001) %MON dynstat_vvel_mean            =  -1.5774603175641E-04
(PID.TID 0000.0001) %MON dynstat_vvel_sd              =   1.0783135694310E-02
(PID.TID 0000.0001) %MON dynstat_vvel_del2            =   2.9985978761103E-03
(PID.TID 0000.0001) %MON dynstat_wvel_max             =   2.2826160401275E+00
(PID.TID 0000.0001) %MON dynstat_wvel_min             =  -1.4727476971095E+00
(PID.TID 0000.0001) %MON dynstat_wvel_mean            =   3.9191896990381E-04
(PID.TID 0000.0001) %MON dynstat_wvel_sd              =   2.4283062421217E-01
(PID.TID 0000.0001) %MON dynstat_wvel_del2            =   9.9657653947082E-02
(PID.TID 0000.0001) %MON dynstat_theta_max            =   2.9935987503902E+01
(PID.TID 0000.0001) %MON dynstat_theta_min            =  -3.0223745962610E+00
(PID.TID 0000.0001) %MON dynstat_theta_mean           =   3.6033617767054E+00
(PID.TID 0000.0001) %MON dynstat_theta_sd             =   4.4023806695728E+00
(PID.TID 0000.0001) %MON dynstat_theta_del2           =   1.4124432314706E-01
(PID.TID 0000.0001) %MON dynstat_salt_max             =   3.7433313458767E+01
(PID.TID 0000.0001) %MON dynstat_salt_min             =   2.9773018333845E+01
(PID.TID 0000.0001) %MON dynstat_salt_mean            =   3.4718001107209E+01
(PID.TID 0000.0001) %MON dynstat_salt_sd              =   2.9441709370734E-01
(PID.TID 0000.0001) %MON dynstat_salt_del2            =   2.6441583891315E-02
(PID.TID 0000.0001) %MON advcfl_uvel_max              =   9.7112062229286E-02
(PID.TID 0000.0001) %MON advcfl_vvel_max              =   4.9422446652925E-02
(PID.TID 0000.0001) %MON advcfl_wvel_max              =   1.3719978336683E-01
(PID.TID 0000.0001) %MON advcfl_W_hf_max              =   1.3719978336683E-01
(PID.TID 0000.0001) %MON ke_max                       =   1.1973109275846E-02
(PID.TID 0000.0001) %MON ke_mean                      =   2.7616284214060E-04
(PID.TID 0000.0001) %MON ke_volint                    =   1.2576304601290E+18
(PID.TID 0000.0001) %MON ke_volmean                   =   9.3558785991680E-05
(PID.TID 0000.0001) %MON ke_vol                       =   1.3442141716555E+22
(PID.TID 0000.0001) %MON surf_Corr_theta_mean         =  -2.0661320371820E-03
(PID.TID 0000.0001) %MON surf_Corr_salt_mean          =  -6.1874371040171E-05
(PID.TID 0000.0001) // =======================================================
(PID.TID 0000.0001) // End MONITOR dynamic field statistics
(PID.TID 0000.0001) // =======================================================
time,SST,SSS,fu,fv,Q,E-P,i0,i1,a,b =   2.0736E+06  4.6162E-01  0.0000E+00 -2.8567E-02 -4.4050E-02  1.2545E+02 -2.0964E-09     1     2  3.3333E-01  6.6667E-01
time,fu0,fu1,fu =   2.0736E+06 -3.5633E-02 -1.4435E-02 -2.8567E-02  3.3333E-01  6.6667E-01
(PID.TID 0000.0001) %GM: Global mean of phiHydLow =  0.25186560024054341E+02
 cg2d: Sum(rhs),rhsMax =  -2.63677968348475E-16  1.72998449229489E+02
(PID.TID 0000.0001)                    cg2d_init_res =    2.59294808794859E-03
(PID.TID 0000.0001)                       cg2d_iters =   101
(PID.TID 0000.0001)                         cg2d_res =    8.09572634614537E-10
(PID.TID 0000.0001) // =======================================================
(PID.TID 0000.0001) // Begin MONITOR dynamic field statistics
(PID.TID 0000.0001) // =======================================================
(PID.TID 0000.0001) %MON time_tsnumber                =                    13
(PID.TID 0000.0001) %MON time_secondsf                =   2.2464000000000E+06
(PID.TID 0000.0001) %MON dynstat_eta_max              =   4.2952571760717E+04
(PID.TID 0000.0001) %MON dynstat_eta_min              =  -9.2453087138781E+04
(PID.TID 0000.0001) %MON dynstat_eta_mean             =  -3.3800234471505E-12
(PID.TID 0000.0001) %MON dynstat_eta_sd               =   3.9485248615110E+04
(PID.TID 0000.0001) %MON dynstat_eta_del2             =   2.3963283220047E+04
(PID.TID 0000.0001) %MON dynstat_uvel_max             =   1.5901314438041E-01
(PID.TID 0000.0001) %MON dynstat_uvel_min             =  -7.3977658584119E-02
(PID.TID 0000.0001) %MON dynstat_uvel_mean            =   2.3446736237761E-04
(PID.TID 0000.0001) %MON dynstat_uvel_sd              =   1.0546900515359E-02
(PID.TID 0000.0001) %MON dynstat_uvel_del2            =   2.5585368718535E-03
(PID.TID 0000.0001) %MON dynstat_vvel_max             =   9.1002249672412E-02
(PID.TID 0000.0001) %MON dynstat_vvel_min             =  -1.3058822459716E-01
(PID.TID 0000.0001) %MON dynstat_vvel_mean            =  -5.4363561280076E-05
(PID.TID 0000.0001) %MON dynstat_vvel_sd              =   1.0928756725079E-02
(PID.TID 0000.0001) %MON dynstat_vvel_del2            =   3.0416832993870E-03
(PID.TID 0000.0001) %MON dynstat_wvel_max             =   2.4169871305893E+00
(PID.TID 0000.0001) %MON dynstat_wvel_min             =  -1.4406584279421E+00
(PID.TID 0000.0001) %MON dynstat_wvel_mean            =   3.0466224400907E-04
(PID.TID 0000.0001) %MON dynstat_wvel_sd              =   2.3998084657432E-01
(PID.TID 0000.0001) %MON dynstat_wvel_del2            =   9.7633472977463E-02
(PID.TID 0000.0001) %MON dynstat_theta_max            =   2.9956271577961E+01
(PID.TID 0000.0001) %MON dynstat_theta_min            =  -3.0756264118571E+00
(PID.TID 0000.0001) %MON dynstat_theta_mean           =   3.6034589855022E+00
(PID.TID 0000.0001) %MON dynstat_theta_sd             =   4.4025853513498E+00
(PID.TID 0000.0001) %MON dynstat_theta_del2           =   1.4163073278973E-01
(PID.TID 0000.0001) %MON dynstat_salt_max             =   3.7433137207308E+01
(PID.TID 0000.0001) %MON dynstat_salt_min             =   2.9771765794078E+01
(PID.TID 0000.0001) %MON dynstat_salt_mean            =   3.4718001121910E+01
(PID.TID 0000.0001) %MON dynstat_salt_sd              =   2.9441789214217E-01
(PID.TID 0000.0001) %MON dynstat_salt_del2            =   2.6500636684655E-02
(PID.TID 0000.0001) %MON advcfl_uvel_max              =   1.0287447924343E-01
(PID.TID 0000.0001) %MON advcfl_vvel_max              =   5.0742395311810E-02
(PID.TID 0000.0001) %MON advcfl_wvel_max              =   1.3519868269124E-01
(PID.TID 0000.0001) %MON advcfl_W_hf_max              =   1.3519868269124E-01
(PID.TID 0000.0001) %MON ke_max                       =   1.3354236445890E-02
(PID.TID 0000.0001) %MON ke_mean                      =   3.0814596931438E-04
(PID.TID 0000.0001) %MON ke_volint                    =   1.3971615414038E+18
(PID.TID 0000.0001) %MON ke_volmean                   =   1.0393890875909E-04
(PID.TID 0000.0001) %MON ke_vol                       =   1.3442141716555E+22
(PID.TID 0000.0001) %MON surf_Corr_theta_mean         =  -5.3877923472893E-04
(PID.TID 0000.0001) %MON surf_Corr_salt_mean          =  -6.0923127440843E-05
(PID.TID 0000.0001) // =======================================================
(PID.TID 0000.0001) // End MONITOR dynamic field statistics
(PID.TID 0000.0001) // =======================================================
time,SST,SSS,fu,fv,Q,E-P,i0,i1,a,b =   2.2464E+06  3.6224E-01  0.0000E+00 -2.7154E-02 -4.1408E-02  1.2798E+02 -2.0964E-09     1     2  4.0000E-01  6.0000E-01
time,fu0,fu1,fu =   2.2464E+06 -3.5633E-02 -1.4435E-02 -2.7154E-02  4.0000E-01  6.0000E-01
(PID.TID 0000.0001) %GM: Global mean of phiHydLow =  0.25185421815619119E+02
 cg2d: Sum(rhs),rhsMax =   3.08086889333481E-15  1.72998728121492E+02
(PID.TID 0000.0001)                    cg2d_init_res =    2.57873512753099E-03
(PID.TID 0000.0001)                       cg2d_iters =   107
(PID.TID 0000.0001)                         cg2d_res =    8.06105362305962E-10
(PID.TID 0000.0001) // =======================================================
(PID.TID 0000.0001) // Begin MONITOR dynamic field statistics
(PID.TID 0000.0001) // =======================================================
(PID.TID 0000.0001) %MON time_tsnumber                =                    14
(PID.TID 0000.0001) %MON time_secondsf                =   2.4192000000000E+06
(PID.TID 0000.0001) %MON dynstat_eta_max              =   4.3131058955208E+04
(PID.TID 0000.0001) %MON dynstat_eta_min              =  -9.2540313613386E+04
(PID.TID 0000.0001) %MON dynstat_eta_mean             =   2.1291386180599E-12
(PID.TID 0000.0001) %MON dynstat_eta_sd               =   3.9519038234268E+04
(PID.TID 0000.0001) %MON dynstat_eta_del2             =   2.3964163153150E+04
(PID.TID 0000.0001) %MON dynstat_uvel_max             =   1.6828735249352E-01
(PID.TID 0000.0001) %MON dynstat_uvel_min             =  -7.9848863575858E-02
(PID.TID 0000.0001) %MON dynstat_uvel_mean            =   1.7839200153597E-04
(PID.TID 0000.0001) %MON dynstat_uvel_sd              =   1.1516821412916E-02
(PID.TID 0000.0001) %MON dynstat_uvel_del2            =   2.6526032159692E-03
(PID.TID 0000.0001) %MON dynstat_vvel_max             =   9.0202133464108E-02
(PID.TID 0000.0001) %MON dynstat_vvel_min             =  -1.3248235093627E-01
(PID.TID 0000.0001) %MON dynstat_vvel_mean            =   9.3561961461249E-06
(PID.TID 0000.0001) %MON dynstat_vvel_sd              =   1.0963920870109E-02
(PID.TID 0000.0001) %MON dynstat_vvel_del2            =   3.0632152169304E-03
(PID.TID 0000.0001) %MON dynstat_wvel_max             =   2.5415624429328E+00
(PID.TID 0000.0001) %MON dynstat_wvel_min             =  -1.5093491168809E+00
(PID.TID 0000.0001) %MON dynstat_wvel_mean            =   2.1207442849384E-04
(PID.TID 0000.0001) %MON dynstat_wvel_sd              =   2.3535037958396E-01
(PID.TID 0000.0001) %MON dynstat_wvel_del2            =   9.5539615358696E-02
(PID.TID 0000.0001) %MON dynstat_theta_max            =   2.9971848401951E+01
(PID.TID 0000.0001) %MON dynstat_theta_min            =  -3.1241367645920E+00
(PID.TID 0000.0001) %MON dynstat_theta_mean           =   3.6035544070769E+00
(PID.TID 0000.0001) %MON dynstat_theta_sd             =   4.4027940154043E+00
(PID.TID 0000.0001) %MON dynstat_theta_del2           =   1.4211649038728E-01
(PID.TID 0000.0001) %MON dynstat_salt_max             =   3.7433044280318E+01
(PID.TID 0000.0001) %MON dynstat_salt_min             =   2.9770620964531E+01
(PID.TID 0000.0001) %MON dynstat_salt_mean            =   3.4718001120456E+01
(PID.TID 0000.0001) %MON dynstat_salt_sd              =   2.9440981220197E-01
(PID.TID 0000.0001) %MON dynstat_salt_del2            =   2.6562593942456E-02
(PID.TID 0000.0001) %MON advcfl_uvel_max              =   1.0789429746518E-01
(PID.TID 0000.0001) %MON advcfl_vvel_max              =   5.1478392050919E-02
(PID.TID 0000.0001) %MON advcfl_wvel_max              =   1.3045308097287E-01
(PID.TID 0000.0001) %MON advcfl_W_hf_max              =   1.3045308097287E-01
(PID.TID 0000.0001) %MON ke_max                       =   1.4665385398112E-02
(PID.TID 0000.0001) %MON ke_mean                      =   3.3919002439722E-04
(PID.TID 0000.0001) %MON ke_volint                    =   1.5319112456553E+18
(PID.TID 0000.0001) %MON ke_volmean                   =   1.1396333098978E-04
(PID.TID 0000.0001) %MON ke_vol                       =   1.3442141716555E+22
(PID.TID 0000.0001) %MON surf_Corr_theta_mean         =   4.9313257267245E-04
(PID.TID 0000.0001) %MON surf_Corr_salt_mean          =  -4.8154466879790E-05
(PID.TID 0000.0001) // =======================================================
(PID.TID 0000.0001) // End MONITOR dynamic field statistics
(PID.TID 0000.0001) // =======================================================
time,SST,SSS,fu,fv,Q,E-P,i0,i1,a,b =   2.4192E+06  2.6287E-01  0.0000E+00 -2.5740E-02 -3.8767E-02  1.3050E+02 -2.0964E-09     1     2  4.6667E-01  5.3333E-01
time,fu0,fu1,fu =   2.4192E+06 -3.5633E-02 -1.4435E-02 -2.5740E-02  4.6667E-01  5.3333E-01
(PID.TID 0000.0001) %GM: Global mean of phiHydLow =  0.25184512461323720E+02
 cg2d: Sum(rhs),rhsMax =  -6.93889390390723E-16  1.72997244859066E+02
(PID.TID 0000.0001)                    cg2d_init_res =    2.54552861961319E-03
(PID.TID 0000.0001)                       cg2d_iters =   106
(PID.TID 0000.0001)                         cg2d_res =    9.62586401787959E-10
(PID.TID 0000.0001) // =======================================================
(PID.TID 0000.0001) // Begin MONITOR dynamic field statistics
(PID.TID 0000.0001) // =======================================================
(PID.TID 0000.0001) %MON time_tsnumber                =                    15
(PID.TID 0000.0001) %MON time_secondsf                =   2.5920000000000E+06
(PID.TID 0000.0001) %MON dynstat_eta_max              =   4.4323453854135E+04
(PID.TID 0000.0001) %MON dynstat_eta_min              =  -9.2723844788308E+04
(PID.TID 0000.0001) %MON dynstat_eta_mean             =  -7.3573753504652E-12
(PID.TID 0000.0001) %MON dynstat_eta_sd               =   3.9585869181126E+04
(PID.TID 0000.0001) %MON dynstat_eta_del2             =   2.3965634068785E+04
(PID.TID 0000.0001) %MON dynstat_uvel_max             =   1.7613883285058E-01
(PID.TID 0000.0001) %MON dynstat_uvel_min             =  -8.4368267610112E-02
(PID.TID 0000.0001) %MON dynstat_uvel_mean            =   1.8617665018461E-04
(PID.TID 0000.0001) %MON dynstat_uvel_sd              =   1.2446976465457E-02
(PID.TID 0000.0001) %MON dynstat_uvel_del2            =   2.7466089035381E-03
(PID.TID 0000.0001) %MON dynstat_vvel_max             =   8.8500681462544E-02
(PID.TID 0000.0001) %MON dynstat_vvel_min             =  -1.3287875609874E-01
(PID.TID 0000.0001) %MON dynstat_vvel_mean            =   2.9457440534140E-05
(PID.TID 0000.0001) %MON dynstat_vvel_sd              =   1.0900937208806E-02
(PID.TID 0000.0001) %MON dynstat_vvel_del2            =   3.0693524637164E-03
(PID.TID 0000.0001) %MON dynstat_wvel_max             =   2.6567135312454E+00
(PID.TID 0000.0001) %MON dynstat_wvel_min             =  -1.5539770281307E+00
(PID.TID 0000.0001) %MON dynstat_wvel_mean            =   1.3170400008101E-04
(PID.TID 0000.0001) %MON dynstat_wvel_sd              =   2.2944844673577E-01
(PID.TID 0000.0001) %MON dynstat_wvel_del2            =   9.3604658766125E-02
(PID.TID 0000.0001) %MON dynstat_theta_max            =   2.9982766704475E+01
(PID.TID 0000.0001) %MON dynstat_theta_min            =  -3.1679743857503E+00
(PID.TID 0000.0001) %MON dynstat_theta_mean           =   3.6036486864801E+00
(PID.TID 0000.0001) %MON dynstat_theta_sd             =   4.4030320173346E+00
(PID.TID 0000.0001) %MON dynstat_theta_del2           =   1.4261092815750E-01
(PID.TID 0000.0001) %MON dynstat_salt_max             =   3.7433057279905E+01
(PID.TID 0000.0001) %MON dynstat_salt_min             =   2.9769538333849E+01
(PID.TID 0000.0001) %MON dynstat_salt_mean            =   3.4718001088144E+01
(PID.TID 0000.0001) %MON dynstat_salt_sd              =   2.9440922586446E-01
(PID.TID 0000.0001) %MON dynstat_salt_del2            =   2.6604912374107E-02
(PID.TID 0000.0001) %MON advcfl_uvel_max              =   1.1212053557464E-01
(PID.TID 0000.0001) %MON advcfl_vvel_max              =   5.1632422381908E-02
(PID.TID 0000.0001) %MON advcfl_wvel_max              =   1.2299761315163E-01
(PID.TID 0000.0001) %MON advcfl_W_hf_max              =   1.2299761315163E-01
(PID.TID 0000.0001) %MON ke_max                       =   1.5883258363280E-02
(PID.TID 0000.0001) %MON ke_mean                      =   3.6890214645013E-04
(PID.TID 0000.0001) %MON ke_volint                    =   1.6593208323031E+18
(PID.TID 0000.0001) %MON ke_volmean                   =   1.2344170053344E-04
(PID.TID 0000.0001) %MON ke_vol                       =   1.3442141716555E+22
(PID.TID 0000.0001) %MON surf_Corr_theta_mean         =   9.2201023525773E-04
(PID.TID 0000.0001) %MON surf_Corr_salt_mean          =  -2.2509952394441E-05
(PID.TID 0000.0001) // =======================================================
(PID.TID 0000.0001) // End MONITOR dynamic field statistics
(PID.TID 0000.0001) // =======================================================
time,SST,SSS,fu,fv,Q,E-P,i0,i1,a,b =   2.5920E+06  1.6350E-01  0.0000E+00 -2.4327E-02 -3.6125E-02  1.3303E+02 -2.0964E-09     1     2  5.3333E-01  4.6667E-01
time,fu0,fu1,fu =   2.5920E+06 -3.5633E-02 -1.4435E-02 -2.4327E-02  5.3333E-01  4.6667E-01
(PID.TID 0000.0001) %GM: Global mean of phiHydLow =  0.25183924879625778E+02
 cg2d: Sum(rhs),rhsMax =   2.37310171513627E-15  1.72994810470275E+02
(PID.TID 0000.0001)                    cg2d_init_res =    2.44372815038739E-03
(PID.TID 0000.0001)                       cg2d_iters =   105
(PID.TID 0000.0001)                         cg2d_res =    9.70231261534128E-10
(PID.TID 0000.0001) // =======================================================
(PID.TID 0000.0001) // Begin MONITOR dynamic field statistics
(PID.TID 0000.0001) // =======================================================
(PID.TID 0000.0001) %MON time_tsnumber                =                    16
(PID.TID 0000.0001) %MON time_secondsf                =   2.7648000000000E+06
(PID.TID 0000.0001) %MON dynstat_eta_max              =   4.6810448496617E+04
(PID.TID 0000.0001) %MON dynstat_eta_min              =  -9.2838934667463E+04
(PID.TID 0000.0001) %MON dynstat_eta_mean             =   9.1842811221297E-12
(PID.TID 0000.0001) %MON dynstat_eta_sd               =   3.9657092398298E+04
(PID.TID 0000.0001) %MON dynstat_eta_del2             =   2.3966706000938E+04
(PID.TID 0000.0001) %MON dynstat_uvel_max             =   1.8325721996720E-01
(PID.TID 0000.0001) %MON dynstat_uvel_min             =  -8.7594793800271E-02
(PID.TID 0000.0001) %MON dynstat_uvel_mean            =   2.5021250605969E-04
(PID.TID 0000.0001) %MON dynstat_uvel_sd              =   1.3322669503393E-02
(PID.TID 0000.0001) %MON dynstat_uvel_del2            =   2.8442096703568E-03
(PID.TID 0000.0001) %MON dynstat_vvel_max             =   8.9074725247922E-02
(PID.TID 0000.0001) %MON dynstat_vvel_min             =  -1.3178558912247E-01
(PID.TID 0000.0001) %MON dynstat_vvel_mean            =   1.5430899821298E-05
(PID.TID 0000.0001) %MON dynstat_vvel_sd              =   1.0756659590108E-02
(PID.TID 0000.0001) %MON dynstat_vvel_del2            =   3.0666183448251E-03
(PID.TID 0000.0001) %MON dynstat_wvel_max             =   2.7620265776606E+00
(PID.TID 0000.0001) %MON dynstat_wvel_min             =  -1.5761132690444E+00
(PID.TID 0000.0001) %MON dynstat_wvel_mean            =   7.0572308054325E-05
(PID.TID 0000.0001) %MON dynstat_wvel_sd              =   2.2282304853921E-01
(PID.TID 0000.0001) %MON dynstat_wvel_del2            =   9.1829980154871E-02
(PID.TID 0000.0001) %MON dynstat_theta_max            =   2.9989033086068E+01
(PID.TID 0000.0001) %MON dynstat_theta_min            =  -3.2072065708339E+00
(PID.TID 0000.0001) %MON dynstat_theta_mean           =   3.6037436343130E+00
(PID.TID 0000.0001) %MON dynstat_theta_sd             =   4.4032905389704E+00
(PID.TID 0000.0001) %MON dynstat_theta_del2           =   1.4297650879819E-01
(PID.TID 0000.0001) %MON dynstat_salt_max             =   3.7433193885576E+01
(PID.TID 0000.0001) %MON dynstat_salt_min             =   2.9768451913894E+01
(PID.TID 0000.0001) %MON dynstat_salt_mean            =   3.4718001021100E+01
(PID.TID 0000.0001) %MON dynstat_salt_sd              =   2.9441202938539E-01
(PID.TID 0000.0001) %MON dynstat_salt_del2            =   2.6648902438637E-02
(PID.TID 0000.0001) %MON advcfl_uvel_max              =   1.1549183507230E-01
(PID.TID 0000.0001) %MON advcfl_vvel_max              =   5.1207652759507E-02
(PID.TID 0000.0001) %MON advcfl_wvel_max              =   1.1294531191145E-01
(PID.TID 0000.0001) %MON advcfl_W_hf_max              =   1.1294531191145E-01
(PID.TID 0000.0001) %MON ke_max                       =   1.6991166126013E-02
(PID.TID 0000.0001) %MON ke_mean                      =   3.9703183554610E-04
(PID.TID 0000.0001) %MON ke_volint                    =   1.7780253909158E+18
(PID.TID 0000.0001) %MON ke_volmean                   =   1.3227247773515E-04
(PID.TID 0000.0001) %MON ke_vol                       =   1.3442141716555E+22
(PID.TID 0000.0001) %MON surf_Corr_theta_mean         =   8.3205854316328E-04
(PID.TID 0000.0001) %MON surf_Corr_salt_mean          =   1.2259690067102E-05
(PID.TID 0000.0001) // =======================================================
(PID.TID 0000.0001) // End MONITOR dynamic field statistics
(PID.TID 0000.0001) // =======================================================
time,SST,SSS,fu,fv,Q,E-P,i0,i1,a,b =   2.7648E+06  6.4124E-02  0.0000E+00 -2.2914E-02 -3.3484E-02  1.3556E+02 -2.0964E-09     1     2  6.0000E-01  4.0000E-01
time,fu0,fu1,fu =   2.7648E+06 -3.5633E-02 -1.4435E-02 -2.2914E-02  6.0000E-01  4.0000E-01
(PID.TID 0000.0001) %GM: Global mean of phiHydLow =  0.25183630169345225E+02
 cg2d: Sum(rhs),rhsMax =   8.18789480661053E-16  1.72991925347466E+02
(PID.TID 0000.0001)                    cg2d_init_res =    2.30627100387185E-03
(PID.TID 0000.0001)                       cg2d_iters =   105
(PID.TID 0000.0001)                         cg2d_res =    8.90781939047764E-10
(PID.TID 0000.0001) // =======================================================
(PID.TID 0000.0001) // Begin MONITOR dynamic field statistics
(PID.TID 0000.0001) // =======================================================
(PID.TID 0000.0001) %MON time_tsnumber                =                    17
(PID.TID 0000.0001) %MON time_secondsf                =   2.9376000000000E+06
(PID.TID 0000.0001) %MON dynstat_eta_max              =   4.8380522935778E+04
(PID.TID 0000.0001) %MON dynstat_eta_min              =  -9.2885115646119E+04
(PID.TID 0000.0001) %MON dynstat_eta_mean             =  -2.0418890805867E-12
(PID.TID 0000.0001) %MON dynstat_eta_sd               =   3.9706604696469E+04
(PID.TID 0000.0001) %MON dynstat_eta_del2             =   2.3967258548804E+04
(PID.TID 0000.0001) %MON dynstat_uvel_max             =   1.9076506107928E-01
(PID.TID 0000.0001) %MON dynstat_uvel_min             =  -9.1161217245986E-02
(PID.TID 0000.0001) %MON dynstat_uvel_mean            =   3.5089426508980E-04
(PID.TID 0000.0001) %MON dynstat_uvel_sd              =   1.4133487582675E-02
(PID.TID 0000.0001) %MON dynstat_uvel_del2            =   2.9452137544929E-03
(PID.TID 0000.0001) %MON dynstat_vvel_max             =   9.2140265540305E-02
(PID.TID 0000.0001) %MON dynstat_vvel_min             =  -1.2922178312763E-01
(PID.TID 0000.0001) %MON dynstat_vvel_mean            =  -1.5867772178485E-05
(PID.TID 0000.0001) %MON dynstat_vvel_sd              =   1.0551839594632E-02
(PID.TID 0000.0001) %MON dynstat_vvel_del2            =   3.0589653940775E-03
(PID.TID 0000.0001) %MON dynstat_wvel_max             =   2.8566329652253E+00
(PID.TID 0000.0001) %MON dynstat_wvel_min             =  -1.5800735953388E+00
(PID.TID 0000.0001) %MON dynstat_wvel_mean            =   2.7271336650235E-05
(PID.TID 0000.0001) %MON dynstat_wvel_sd              =   2.1604671243091E-01
(PID.TID 0000.0001) %MON dynstat_wvel_del2            =   9.0342947552233E-02
(PID.TID 0000.0001) %MON dynstat_theta_max            =   2.9990628111110E+01
(PID.TID 0000.0001) %MON dynstat_theta_min            =  -3.2418974483976E+00
(PID.TID 0000.0001) %MON dynstat_theta_mean           =   3.6038393896757E+00
(PID.TID 0000.0001) %MON dynstat_theta_sd             =   4.4035653143745E+00
(PID.TID 0000.0001) %MON dynstat_theta_del2           =   1.4327021392056E-01
(PID.TID 0000.0001) %MON dynstat_salt_max             =   3.7433465092886E+01
(PID.TID 0000.0001) %MON dynstat_salt_min             =   2.9767293743574E+01
(PID.TID 0000.0001) %MON dynstat_salt_mean            =   3.4718000930676E+01
(PID.TID 0000.0001) %MON dynstat_salt_sd              =   2.9441348706820E-01
(PID.TID 0000.0001) %MON dynstat_salt_del2            =   2.6686976541993E-02
(PID.TID 0000.0001) %MON advcfl_uvel_max              =   1.1878702371386E-01
(PID.TID 0000.0001) %MON advcfl_vvel_max              =   5.0211439986922E-02
(PID.TID 0000.0001) %MON advcfl_wvel_max              =   1.0049013112833E-01
(PID.TID 0000.0001) %MON advcfl_W_hf_max              =   1.0049013112833E-01
(PID.TID 0000.0001) %MON ke_max                       =   1.7978748299166E-02
(PID.TID 0000.0001) %MON ke_mean                      =   4.2338691916880E-04
(PID.TID 0000.0001) %MON ke_volint                    =   1.8876093086821E+18
(PID.TID 0000.0001) %MON ke_volmean                   =   1.4042474394964E-04
(PID.TID 0000.0001) %MON ke_vol                       =   1.3442141716555E+22
(PID.TID 0000.0001) %MON surf_Corr_theta_mean         =   4.2994336604959E-04
(PID.TID 0000.0001) %MON surf_Corr_salt_mean          =   5.0372208021529E-05
(PID.TID 0000.0001) // =======================================================
(PID.TID 0000.0001) // End MONITOR dynamic field statistics
(PID.TID 0000.0001) // =======================================================
time,SST,SSS,fu,fv,Q,E-P,i0,i1,a,b =   2.9376E+06 -3.5249E-02  0.0000E+00 -2.1501E-02 -3.0843E-02  1.3808E+02 -2.0964E-09     1     2  6.6667E-01  3.3333E-01
time,fu0,fu1,fu =   2.9376E+06 -3.5633E-02 -1.4435E-02 -2.1501E-02  6.6667E-01  3.3333E-01
(PID.TID 0000.0001) %GM: Global mean of phiHydLow =  0.25183590287978014E+02
 cg2d: Sum(rhs),rhsMax =   8.04911692853238E-16  1.72988727584930E+02
(PID.TID 0000.0001)                    cg2d_init_res =    2.20927513518979E-03
(PID.TID 0000.0001)                       cg2d_iters =    99
(PID.TID 0000.0001)                         cg2d_res =    9.15556253737168E-10
(PID.TID 0000.0001) // =======================================================
(PID.TID 0000.0001) // Begin MONITOR dynamic field statistics
(PID.TID 0000.0001) // =======================================================
(PID.TID 0000.0001) %MON time_tsnumber                =                    18
(PID.TID 0000.0001) %MON time_secondsf                =   3.1104000000000E+06
(PID.TID 0000.0001) %MON dynstat_eta_max              =   4.8796891060920E+04
(PID.TID 0000.0001) %MON dynstat_eta_min              =  -9.2824827347647E+04
(PID.TID 0000.0001) %MON dynstat_eta_mean             =   1.5551003342066E-13
(PID.TID 0000.0001) %MON dynstat_eta_sd               =   3.9720509361437E+04
(PID.TID 0000.0001) %MON dynstat_eta_del2             =   2.3967089737141E+04
(PID.TID 0000.0001) %MON dynstat_uvel_max             =   1.9674073921884E-01
(PID.TID 0000.0001) %MON dynstat_uvel_min             =  -9.5053378852425E-02
(PID.TID 0000.0001) %MON dynstat_uvel_mean            =   4.6420257635056E-04
(PID.TID 0000.0001) %MON dynstat_uvel_sd              =   1.4870449155976E-02
(PID.TID 0000.0001) %MON dynstat_uvel_del2            =   3.0454892124429E-03
(PID.TID 0000.0001) %MON dynstat_vvel_max             =   9.4734763805483E-02
(PID.TID 0000.0001) %MON dynstat_vvel_min             =  -1.2522569706560E-01
(PID.TID 0000.0001) %MON dynstat_vvel_mean            =  -4.6484677134025E-05
(PID.TID 0000.0001) %MON dynstat_vvel_sd              =   1.0309925018315E-02
(PID.TID 0000.0001) %MON dynstat_vvel_del2            =   3.0529024693215E-03
(PID.TID 0000.0001) %MON dynstat_wvel_max             =   2.9395586318736E+00
(PID.TID 0000.0001) %MON dynstat_wvel_min             =  -1.6431154694122E+00
(PID.TID 0000.0001) %MON dynstat_wvel_mean            =  -4.7518732648685E-06
(PID.TID 0000.0001) %MON dynstat_wvel_sd              =   2.0966233161511E-01
(PID.TID 0000.0001) %MON dynstat_wvel_del2            =   8.9253996634641E-02
(PID.TID 0000.0001) %MON dynstat_theta_max            =   2.9987521456143E+01
(PID.TID 0000.0001) %MON dynstat_theta_min            =  -3.2721053647532E+00
(PID.TID 0000.0001) %MON dynstat_theta_mean           =   3.6039359385049E+00
(PID.TID 0000.0001) %MON dynstat_theta_sd             =   4.4038590570366E+00
(PID.TID 0000.0001) %MON dynstat_theta_del2           =   1.4349722147938E-01
(PID.TID 0000.0001) %MON dynstat_salt_max             =   3.7433874311430E+01
(PID.TID 0000.0001) %MON dynstat_salt_min             =   2.9766008770877E+01
(PID.TID 0000.0001) %MON dynstat_salt_mean            =   3.4718000830240E+01
(PID.TID 0000.0001) %MON dynstat_salt_sd              =   2.9441391891824E-01
(PID.TID 0000.0001) %MON dynstat_salt_del2            =   2.6708193194355E-02
(PID.TID 0000.0001) %MON advcfl_uvel_max              =   1.2370092966483E-01
(PID.TID 0000.0001) %MON advcfl_vvel_max              =   4.8658689122248E-02
(PID.TID 0000.0001) %MON advcfl_wvel_max              =   9.8325994025916E-02
(PID.TID 0000.0001) %MON advcfl_W_hf_max              =   9.8325994025916E-02
(PID.TID 0000.0001) %MON ke_max                       =   1.8840482717900E-02
(PID.TID 0000.0001) %MON ke_mean                      =   4.4773784250929E-04
(PID.TID 0000.0001) %MON ke_volint                    =   1.9878867770424E+18
(PID.TID 0000.0001) %MON ke_volmean                   =   1.4788467633800E-04
(PID.TID 0000.0001) %MON ke_vol                       =   1.3442141716555E+22
(PID.TID 0000.0001) %MON surf_Corr_theta_mean         =  -4.2644453860995E-05
(PID.TID 0000.0001) %MON surf_Corr_salt_mean          =   8.4699746325259E-05
(PID.TID 0000.0001) // =======================================================
(PID.TID 0000.0001) // End MONITOR dynamic field statistics
(PID.TID 0000.0001) // =======================================================
time,SST,SSS,fu,fv,Q,E-P,i0,i1,a,b =   3.1104E+06 -1.3462E-01  0.0000E+00 -2.0088E-02 -2.8201E-02  1.4061E+02 -2.0964E-09     1     2  7.3333E-01  2.6667E-01
time,fu0,fu1,fu =   3.1104E+06 -3.5633E-02 -1.4435E-02 -2.0088E-02  7.3333E-01  2.6667E-01
(PID.TID 0000.0001) %GM: Global mean of phiHydLow =  0.25183771688827321E+02
 cg2d: Sum(rhs),rhsMax =   8.88178419700125E-16  1.72985068540980E+02
(PID.TID 0000.0001)                    cg2d_init_res =    2.18114603526367E-03
(PID.TID 0000.0001)                       cg2d_iters =    99
(PID.TID 0000.0001)                         cg2d_res =    9.76378266311873E-10
(PID.TID 0000.0001) // =======================================================
(PID.TID 0000.0001) // Begin MONITOR dynamic field statistics
(PID.TID 0000.0001) // =======================================================
(PID.TID 0000.0001) %MON time_tsnumber                =                    19
(PID.TID 0000.0001) %MON time_secondsf                =   3.2832000000000E+06
(PID.TID 0000.0001) %MON dynstat_eta_max              =   4.8175394339562E+04
(PID.TID 0000.0001) %MON dynstat_eta_min              =  -9.2707131882404E+04
(PID.TID 0000.0001) %MON dynstat_eta_mean             =  -1.7683719366078E-12
(PID.TID 0000.0001) %MON dynstat_eta_sd               =   3.9700601440921E+04
(PID.TID 0000.0001) %MON dynstat_eta_del2             =   2.3966211334453E+04
(PID.TID 0000.0001) %MON dynstat_uvel_max             =   2.0110680715624E-01
(PID.TID 0000.0001) %MON dynstat_uvel_min             =  -9.8431910536660E-02
(PID.TID 0000.0001) %MON dynstat_uvel_mean            =   5.6869121804142E-04
(PID.TID 0000.0001) %MON dynstat_uvel_sd              =   1.5524563405305E-02
(PID.TID 0000.0001) %MON dynstat_uvel_del2            =   3.1430253699627E-03
(PID.TID 0000.0001) %MON dynstat_vvel_max             =   9.6881070745286E-02
(PID.TID 0000.0001) %MON dynstat_vvel_min             =  -1.1986165671729E-01
(PID.TID 0000.0001) %MON dynstat_vvel_mean            =  -6.2371205742740E-05
(PID.TID 0000.0001) %MON dynstat_vvel_sd              =   1.0055798678742E-02
(PID.TID 0000.0001) %MON dynstat_vvel_del2            =   3.0509754314857E-03
(PID.TID 0000.0001) %MON dynstat_wvel_max             =   3.0100037440789E+00
(PID.TID 0000.0001) %MON dynstat_wvel_min             =  -1.7733445463796E+00
(PID.TID 0000.0001) %MON dynstat_wvel_mean            =  -3.2970812264340E-05
(PID.TID 0000.0001) %MON dynstat_wvel_sd              =   2.0413071699099E-01
(PID.TID 0000.0001) %MON dynstat_wvel_del2            =   8.8685081911391E-02
(PID.TID 0000.0001) %MON dynstat_theta_max            =   2.9979684449860E+01
(PID.TID 0000.0001) %MON dynstat_theta_min            =  -3.2978819270165E+00
(PID.TID 0000.0001) %MON dynstat_theta_mean           =   3.6040337669160E+00
(PID.TID 0000.0001) %MON dynstat_theta_sd             =   4.4041722801914E+00
(PID.TID 0000.0001) %MON dynstat_theta_del2           =   1.4382212692648E-01
(PID.TID 0000.0001) %MON dynstat_salt_max             =   3.7434417230006E+01
(PID.TID 0000.0001) %MON dynstat_salt_min             =   2.9764564702183E+01
(PID.TID 0000.0001) %MON dynstat_salt_mean            =   3.4718000739593E+01
(PID.TID 0000.0001) %MON dynstat_salt_sd              =   2.9441597093655E-01
(PID.TID 0000.0001) %MON dynstat_salt_del2            =   2.6750973769126E-02
(PID.TID 0000.0001) %MON advcfl_uvel_max              =   1.2741642574330E-01
(PID.TID 0000.0001) %MON advcfl_vvel_max              =   4.6574395100623E-02
(PID.TID 0000.0001) %MON advcfl_wvel_max              =   9.7962469777948E-02
(PID.TID 0000.0001) %MON advcfl_W_hf_max              =   9.7962469777948E-02
(PID.TID 0000.0001) %MON ke_max                       =   1.9573873233733E-02
(PID.TID 0000.0001) %MON ke_mean                      =   4.6978530634070E-04
(PID.TID 0000.0001) %MON ke_volint                    =   2.0783949847097E+18
(PID.TID 0000.0001) %MON ke_volmean                   =   1.5461784502316E-04
(PID.TID 0000.0001) %MON ke_vol                       =   1.3442141716555E+22
(PID.TID 0000.0001) %MON surf_Corr_theta_mean         =  -3.7817274874963E-04
(PID.TID 0000.0001) %MON surf_Corr_salt_mean          =   1.0974222155190E-04
(PID.TID 0000.0001) // =======================================================
(PID.TID 0000.0001) // End MONITOR dynamic field statistics
(PID.TID 0000.0001) // =======================================================
time,SST,SSS,fu,fv,Q,E-P,i0,i1,a,b =   3.2832E+06 -2.3399E-01  0.0000E+00 -1.8674E-02 -2.5560E-02  1.4314E+02 -2.0964E-09     1     2  8.0000E-01  2.0000E-01
time,fu0,fu1,fu =   3.2832E+06 -3.5633E-02 -1.4435E-02 -1.8674E-02  8.0000E-01  2.0000E-01
(PID.TID 0000.0001) %GM: Global mean of phiHydLow =  0.25184150850679341E+02
 cg2d: Sum(rhs),rhsMax =   1.94289029309402E-15  1.72980641407962E+02
(PID.TID 0000.0001)                    cg2d_init_res =    2.20336655675237E-03
(PID.TID 0000.0001)                       cg2d_iters =   103
(PID.TID 0000.0001)                         cg2d_res =    8.80505308000855E-10
(PID.TID 0000.0001) // =======================================================
(PID.TID 0000.0001) // Begin MONITOR dynamic field statistics
(PID.TID 0000.0001) // =======================================================
(PID.TID 0000.0001) %MON time_tsnumber                =                    20
(PID.TID 0000.0001) %MON time_secondsf                =   3.4560000000000E+06
(PID.TID 0000.0001) %MON dynstat_eta_max              =   4.6875387006861E+04
(PID.TID 0000.0001) %MON dynstat_eta_min              =  -9.2592574454701E+04
(PID.TID 0000.0001) %MON dynstat_eta_mean             =   2.0460996149991E-12
(PID.TID 0000.0001) %MON dynstat_eta_sd               =   3.9660480884285E+04
(PID.TID 0000.0001) %MON dynstat_eta_del2             =   2.3964912263459E+04
(PID.TID 0000.0001) %MON dynstat_uvel_max             =   2.0380711146676E-01
(PID.TID 0000.0001) %MON dynstat_uvel_min             =  -1.0117106153711E-01
(PID.TID 0000.0001) %MON dynstat_uvel_mean            =   6.5022011437823E-04
(PID.TID 0000.0001) %MON dynstat_uvel_sd              =   1.6087006362544E-02
(PID.TID 0000.0001) %MON dynstat_uvel_del2            =   3.2336271603246E-03
(PID.TID 0000.0001) %MON dynstat_vvel_max             =   9.8605674788242E-02
(PID.TID 0000.0001) %MON dynstat_vvel_min             =  -1.1322352375354E-01
(PID.TID 0000.0001) %MON dynstat_vvel_mean            =  -5.6309284950327E-05
(PID.TID 0000.0001) %MON dynstat_vvel_sd              =   9.8146435078021E-03
(PID.TID 0000.0001) %MON dynstat_vvel_del2            =   3.0580744118147E-03
(PID.TID 0000.0001) %MON dynstat_wvel_max             =   3.0674883173414E+00
(PID.TID 0000.0001) %MON dynstat_wvel_min             =  -1.8904369218536E+00
(PID.TID 0000.0001) %MON dynstat_wvel_mean            =  -6.2448691777848E-05
(PID.TID 0000.0001) %MON dynstat_wvel_sd              =   1.9978837952305E-01
(PID.TID 0000.0001) %MON dynstat_wvel_del2            =   8.8511645182401E-02
(PID.TID 0000.0001) %MON dynstat_theta_max            =   2.9967099364551E+01
(PID.TID 0000.0001) %MON dynstat_theta_min            =  -3.3192742220078E+00
(PID.TID 0000.0001) %MON dynstat_theta_mean           =   3.6041328121575E+00
(PID.TID 0000.0001) %MON dynstat_theta_sd             =   4.4045044889141E+00
(PID.TID 0000.0001) %MON dynstat_theta_del2           =   1.4393753121524E-01
(PID.TID 0000.0001) %MON dynstat_salt_max             =   3.7435286475255E+01
(PID.TID 0000.0001) %MON dynstat_salt_min             =   2.9762956143224E+01
(PID.TID 0000.0001) %MON dynstat_salt_mean            =   3.4718000673347E+01
(PID.TID 0000.0001) %MON dynstat_salt_sd              =   2.9441588426311E-01
(PID.TID 0000.0001) %MON dynstat_salt_del2            =   2.6780194708842E-02
(PID.TID 0000.0001) %MON advcfl_uvel_max              =   1.2983544458212E-01
(PID.TID 0000.0001) %MON advcfl_vvel_max              =   4.3995029556616E-02
(PID.TID 0000.0001) %MON advcfl_wvel_max              =   9.7200806557743E-02
(PID.TID 0000.0001) %MON advcfl_W_hf_max              =   9.7200806557743E-02
(PID.TID 0000.0001) %MON ke_max                       =   2.0296913521653E-02
(PID.TID 0000.0001) %MON ke_mean                      =   4.8919875468414E-04
(PID.TID 0000.0001) %MON ke_volint                    =   2.1583525237990E+18
(PID.TID 0000.0001) %MON ke_volmean                   =   1.6056611880091E-04
(PID.TID 0000.0001) %MON ke_vol                       =   1.3442141716555E+22
(PID.TID 0000.0001) %MON surf_Corr_theta_mean         =  -4.5433864228207E-04
(PID.TID 0000.0001) %MON surf_Corr_salt_mean          =   1.2204417114634E-04
(PID.TID 0000.0001) // =======================================================
(PID.TID 0000.0001) // End MONITOR dynamic field statistics
(PID.TID 0000.0001) // =======================================================
(PID.TID 0000.0001)   Seconds in section "ALL                    [THE_MODEL_MAIN]":
(PID.TID 0000.0001)           User time:  6.
(PID.TID 0000.0001)         System time:  0.649999976
(PID.TID 0000.0001)     Wall clock time:  6.86754596
(PID.TID 0000.0001)          No. starts: 1
(PID.TID 0000.0001)           No. stops: 1
(PID.TID 0000.0001)   Seconds in section "INITIALISE_FIXED       [THE_MODEL_MAIN]":
(PID.TID 0000.0001)           User time:  0.119999997
(PID.TID 0000.0001)         System time:  0.00999999978
(PID.TID 0000.0001)     Wall clock time:  0.132061958
(PID.TID 0000.0001)          No. starts: 1
(PID.TID 0000.0001)           No. stops: 1
(PID.TID 0000.0001)   Seconds in section "THE_MAIN_LOOP          [THE_MODEL_MAIN]":
(PID.TID 0000.0001)           User time:  5.80999983
(PID.TID 0000.0001)         System time:  0.559999993
(PID.TID 0000.0001)     Wall clock time:  6.59120703
(PID.TID 0000.0001)          No. starts: 1
(PID.TID 0000.0001)           No. stops: 1
(PID.TID 0000.0001)   Seconds in section "INITIALISE_VARIA    [THE_MAIN_LOOP]":
(PID.TID 0000.0001)           User time:  0.0600000098
(PID.TID 0000.0001)         System time:  0.0199999996
(PID.TID 0000.0001)     Wall clock time:  0.0764069557
(PID.TID 0000.0001)          No. starts: 1
(PID.TID 0000.0001)           No. stops: 1
(PID.TID 0000.0001)   Seconds in section "WRITE_STATE         [THE_MAIN_LOOP]":
(PID.TID 0000.0001)           User time:  0.049999997
(PID.TID 0000.0001)         System time:  0.0200000014
(PID.TID 0000.0001)     Wall clock time:  0.0713280439
(PID.TID 0000.0001)          No. starts: 1
(PID.TID 0000.0001)           No. stops: 1
(PID.TID 0000.0001)   Seconds in section "MONITOR             [THE_MAIN_LOOP]":
(PID.TID 0000.0001)           User time:  0.0199999958
(PID.TID 0000.0001)         System time:  0.
(PID.TID 0000.0001)     Wall clock time:  0.0257799625
(PID.TID 0000.0001)          No. starts: 1
(PID.TID 0000.0001)           No. stops: 1
(PID.TID 0000.0001)   Seconds in section "MAIN LOOP           [THE_MAIN_LOOP]":
(PID.TID 0000.0001)           User time:  5.67999983
(PID.TID 0000.0001)         System time:  0.519999992
(PID.TID 0000.0001)     Wall clock time:  6.41753197
(PID.TID 0000.0001)          No. starts: 1
(PID.TID 0000.0001)           No. stops: 1
(PID.TID 0000.0001)   Seconds in section "FORWARD_STEP        [THE_MAIN_LOOP]":
(PID.TID 0000.0001)           User time:  5.67999983
(PID.TID 0000.0001)         System time:  0.519999992
(PID.TID 0000.0001)     Wall clock time:  6.41712797
(PID.TID 0000.0001)          No. starts: 20
(PID.TID 0000.0001)           No. stops: 20
(PID.TID 0000.0001)   Seconds in section "UPDATE_ETAH        [FORWARD_STEP]":
(PID.TID 0000.0001)           User time:  0.
(PID.TID 0000.0001)         System time:  0.
(PID.TID 0000.0001)     Wall clock time:  0.00117874146
(PID.TID 0000.0001)          No. starts: 20
(PID.TID 0000.0001)           No. stops: 20
(PID.TID 0000.0001)   Seconds in section "CALC_SURF_DR      [FORWARD_STEP]":
(PID.TID 0000.0001)           User time:  0.0300002098
(PID.TID 0000.0001)         System time:  0.
(PID.TID 0000.0001)     Wall clock time:  0.0228432417
(PID.TID 0000.0001)          No. starts: 20
(PID.TID 0000.0001)           No. stops: 20
(PID.TID 0000.0001)   Seconds in section "EXTERNAL_FIELDS_LOAD[FORWARD_STEP]":
(PID.TID 0000.0001)           User time:  0.00999999046
(PID.TID 0000.0001)         System time:  0.00999999046
(PID.TID 0000.0001)     Wall clock time:  0.0342149734
(PID.TID 0000.0001)          No. starts: 20
(PID.TID 0000.0001)           No. stops: 20
(PID.TID 0000.0001)   Seconds in section "THERMODYNAMICS      [FORWARD_STEP]":
(PID.TID 0000.0001)           User time:  1.84999999
(PID.TID 0000.0001)         System time:  0.169999998
(PID.TID 0000.0001)     Wall clock time:  2.12187493
(PID.TID 0000.0001)          No. starts: 20
(PID.TID 0000.0001)           No. stops: 20
(PID.TID 0000.0001)   Seconds in section "BLOCKING_EXCHANGES  [FORWARD_STEP]":
(PID.TID 0000.0001)           User time:  0.
(PID.TID 0000.0001)         System time:  0.
(PID.TID 0000.0001)     Wall clock time:  0.0321011543
(PID.TID 0000.0001)          No. starts: 40
(PID.TID 0000.0001)           No. stops: 40
(PID.TID 0000.0001)   Seconds in section "DYNAMICS            [FORWARD_STEP]":
(PID.TID 0000.0001)           User time:  2.10000074
(PID.TID 0000.0001)         System time:  0.169999987
(PID.TID 0000.0001)     Wall clock time:  2.28639412
(PID.TID 0000.0001)          No. starts: 20
(PID.TID 0000.0001)           No. stops: 20
(PID.TID 0000.0001)   Seconds in section "UPDATE_SURF_DR     [FORWARD_STEP]":
(PID.TID 0000.0001)           User time:  0.00999999046
(PID.TID 0000.0001)         System time:  0.
(PID.TID 0000.0001)     Wall clock time:  0.0157371759
(PID.TID 0000.0001)          No. starts: 20
(PID.TID 0000.0001)           No. stops: 20
(PID.TID 0000.0001)   Seconds in section "UPDATE_CG2D        [FORWARD_STEP]":
(PID.TID 0000.0001)           User time:  0.
(PID.TID 0000.0001)         System time:  0.
(PID.TID 0000.0001)     Wall clock time:  0.
(PID.TID 0000.0001)          No. starts: 1
(PID.TID 0000.0001)           No. stops: 0
(PID.TID 0000.0001)   Seconds in section "SOLVE_FOR_PRESSURE  [FORWARD_STEP]":
(PID.TID 0000.0001)           User time:  0.619998366
(PID.TID 0000.0001)         System time:  0.120000064
(PID.TID 0000.0001)     Wall clock time:  0.741154075
(PID.TID 0000.0001)          No. starts: 20
(PID.TID 0000.0001)           No. stops: 20
(PID.TID 0000.0001)   Seconds in section "THE_CORRECTION_STEP [FORWARD_STEP]":
(PID.TID 0000.0001)           User time:  0.41000098
(PID.TID 0000.0001)         System time:  0.00999999046
(PID.TID 0000.0001)     Wall clock time:  0.434443235
(PID.TID 0000.0001)          No. starts: 20
(PID.TID 0000.0001)           No. stops: 20
(PID.TID 0000.0001)   Seconds in section "MONITOR             [FORWARD_STEP]":
(PID.TID 0000.0001)           User time:  0.549999654
(PID.TID 0000.0001)         System time:  0.0199999809
(PID.TID 0000.0001)     Wall clock time:  0.592842937
(PID.TID 0000.0001)          No. starts: 20
(PID.TID 0000.0001)           No. stops: 20
(PID.TID 0000.0001)   Seconds in section "DO_THE_MODEL_IO     [FORWARD_STEP]":
(PID.TID 0000.0001)           User time:  0.0599999428
(PID.TID 0000.0001)         System time:  0.0199999809
(PID.TID 0000.0001)     Wall clock time:  0.0969510078
(PID.TID 0000.0001)          No. starts: 20
(PID.TID 0000.0001)           No. stops: 20
(PID.TID 0000.0001)   Seconds in section "WRITE_CHECKPOINT    [FORWARD_STEP]":
(PID.TID 0000.0001)           User time:  0.
(PID.TID 0000.0001)         System time:  0.
(PID.TID 0000.0001)     Wall clock time:  0.00055038929
(PID.TID 0000.0001)          No. starts: 20
(PID.TID 0000.0001)           No. stops: 20
(PID.TID 0000.0001)   Seconds in section "WRITE_CHECKPOINT       [THE_MODEL_MAIN]":
(PID.TID 0000.0001)           User time:  0.0700001717
(PID.TID 0000.0001)         System time:  0.0799999833
(PID.TID 0000.0001)     Wall clock time:  0.144107938
(PID.TID 0000.0001)          No. starts: 1
(PID.TID 0000.0001)           No. stops: 1
(PID.TID 0000.0001) // ======================================================
(PID.TID 0000.0001) // Tile <-> Tile communication statistics
(PID.TID 0000.0001) // ======================================================
(PID.TID 0000.0001) // o Tile number: 000001
(PID.TID 0000.0001) //         No. X exchanges =              0
(PID.TID 0000.0001) //            Max. X spins =              0
(PID.TID 0000.0001) //            Min. X spins =     1000000000
(PID.TID 0000.0001) //          Total. X spins =              0
(PID.TID 0000.0001) //            Avg. X spins =       0.00E+00
(PID.TID 0000.0001) //         No. Y exchanges =              0
(PID.TID 0000.0001) //            Max. Y spins =              0
(PID.TID 0000.0001) //            Min. Y spins =     1000000000
(PID.TID 0000.0001) //          Total. Y spins =              0
(PID.TID 0000.0001) //            Avg. Y spins =       0.00E+00
(PID.TID 0000.0001) // o Thread number: 000001
(PID.TID 0000.0001) //            No. barriers =          32430
(PID.TID 0000.0001) //      Max. barrier spins =              1
(PID.TID 0000.0001) //      Min. barrier spins =              1
(PID.TID 0000.0001) //     Total barrier spins =          32430
(PID.TID 0000.0001) //      Avg. barrier spins =       1.00E+00
