(PID.TID 0000.0001) 
(PID.TID 0000.0001) // ======================================================
(PID.TID 0000.0001) //                      MITgcm UV
(PID.TID 0000.0001) //                      =========
(PID.TID 0000.0001) // ======================================================
(PID.TID 0000.0001) // execution environment starting up...
(PID.TID 0000.0001) // Run starting Wed Apr  1 14:19:48 1998
(PID.TID 0000.0001) // on melville.lcs.mit.edu
(PID.TID 0000.0001) // account cnh
(PID.TID 0000.0001) // MITgcm UV Release: $Name:  $
(PID.TID 0000.0001) 
(PID.TID 0000.0001) // =======================================================
(PID.TID 0000.0001) // Execution Environment parameter file "eedata"
(PID.TID 0000.0001) // =======================================================
(PID.TID 0000.0001) ># Example "eedata" file
(PID.TID 0000.0001) ># Lines beginning "#" are comments
(PID.TID 0000.0001) ># nTx - No. threads per process in X
(PID.TID 0000.0001) ># nTy - No. threads per process in Y
(PID.TID 0000.0001) > &EEPARMS
(PID.TID 0000.0001) > nTx=1,nTy=1
(PID.TID 0000.0001) > &
(PID.TID 0000.0001) ># Note: Some systems use & as the
(PID.TID 0000.0001) ># namelist terminator. Other systems
(PID.TID 0000.0001) ># use a / character (as shown here).
(PID.TID 0000.0001) ># BUT some compilers do not understand "/"
(PID.TID 0000.0001) 
(PID.TID 0000.0001) // =======================================================
(PID.TID 0000.0001) // Computational Grid Specification ( see files "SIZE.h" )
(PID.TID 0000.0001) //                                  ( and "eedata"       )
(PID.TID 0000.0001) // =======================================================
(PID.TID 0000.0001)      nPx =    1 ; /* No. processes in X */
(PID.TID 0000.0001)      nPy =    1 ; /* No. processes in Y */
(PID.TID 0000.0001)      nSx =    1 ; /* No. tiles in X per process */
(PID.TID 0000.0001)      nSy =    1 ; /* No. tiles in Y per process */
(PID.TID 0000.0001)      sNx =   90 ; /* Tile size in X */
(PID.TID 0000.0001)      sNy =   40 ; /* Tile size in Y */
(PID.TID 0000.0001)      OLx =    2 ; /* Tile overlap distance in X */
(PID.TID 0000.0001)      OLy =    2 ; /* Tile overlap distance in Y */
(PID.TID 0000.0001)      nTx =    1 ; /* No. threads in X per process */
(PID.TID 0000.0001)      nTy =    1 ; /* No. threads in Y per process */
(PID.TID 0000.0001)       Nr =   15 ; /* No. levels in the vertical   */
(PID.TID 0000.0001)       nX =   90 ; /* Total domain size in X ( = nPx*nSx*sNx ) */
(PID.TID 0000.0001)       nY =   40 ; /* Total domain size in Y ( = nPy*nSy*sNy ) */
(PID.TID 0000.0001)   nTiles =    1 ; /* Total no. tiles per process ( = nSx*nSy ) */
(PID.TID 0000.0001)   nProcs =    1 ; /* Total no. processes ( = nPx*nPy ) */
(PID.TID 0000.0001) nThreads =    1 ; /* Total no. threads per process ( = nTx*nTy ) */
(PID.TID 0000.0001) usingMPI =    F ; /* Flag used to control whether MPI is in use */
(PID.TID 0000.0001)                   /*  note: To execute a program with MPI calls */
(PID.TID 0000.0001)                   /*  it must be launched appropriately e.g     */
(PID.TID 0000.0001)                   /*  "mpirun -np 64 ......"                    */
(PID.TID 0000.0001) useCoupler=   F ; /* Flag used to control communications with */
(PID.TID 0000.0001)                   /*  other model components, through a coupler */
(PID.TID 0000.0001) 
(PID.TID 0000.0001) // ======================================================
(PID.TID 0000.0001) // Mapping of tiles to threads
(PID.TID 0000.0001) // ======================================================
(PID.TID 0000.0001) // -o- Thread   1, tiles (   1:   1,   1:   1)
(PID.TID 0000.0001) 
(PID.TID 0000.0001) // ======================================================
(PID.TID 0000.0001) // Tile <-> Tile connectvity table
(PID.TID 0000.0001) // ======================================================
(PID.TID 0000.0001) // Tile number: 000001 (process no. = 000001)
(PID.TID 0000.0001) //        WEST: Tile = 000001, Process = 000001, Comm = put
(PID.TID 0000.0001) //                bi = 000001, bj = 000001
(PID.TID 0000.0001) //        EAST: Tile = 000001, Process = 000001, Comm = put
(PID.TID 0000.0001) //                bi = 000001, bj = 000001
(PID.TID 0000.0001) //       SOUTH: Tile = 000001, Process = 000001, Comm = put
(PID.TID 0000.0001) //                bi = 000001, bj = 000001
(PID.TID 0000.0001) //       NORTH: Tile = 000001, Process = 000001, Comm = put
(PID.TID 0000.0001) //                bi = 000001, bj = 000001
(PID.TID 0000.0001) 
(PID.TID 0000.0001) // =======================================================
(PID.TID 0000.0001) // Model parameter file "data"
(PID.TID 0000.0001) // =======================================================
(PID.TID 0000.0001) ># ====================
(PID.TID 0000.0001) ># | Model parameters |
(PID.TID 0000.0001) ># ====================
(PID.TID 0000.0001) >#
(PID.TID 0000.0001) ># Continuous equation parameters
(PID.TID 0000.0001) > &PARM01
(PID.TID 0000.0001) > tRef=15*20.,
(PID.TID 0000.0001) > sRef=15*35.,
(PID.TID 0000.0001) > viscAh =3.E5,
(PID.TID 0000.0001) > no_slip_sides=.TRUE.,
(PID.TID 0000.0001) > viscAr =1.721611620915750e5,
(PID.TID 0000.0001) >#viscAz =1.67E-3,
(PID.TID 0000.0001) > no_slip_bottom=.FALSE.,
(PID.TID 0000.0001) > diffKhT=1.E3,
(PID.TID 0000.0001) > diffKrT=5.154525811125000e3,
(PID.TID 0000.0001) >#diffKzT=0.5E-4,
(PID.TID 0000.0001) > diffKhS=1.E3,
(PID.TID 0000.0001) > diffKrS=5.154525811125000e3,
(PID.TID 0000.0001) >#diffKzS=0.5E-4,
(PID.TID 0000.0001) > implicitDiffusion=.TRUE.,
(PID.TID 0000.0001) > ivdc_kappa=1.030905162225000e9,
(PID.TID 0000.0001) >#ivdc_kappa=10.0,
(PID.TID 0000.0001) > gravity=9.81,
(PID.TID 0000.0001) > rhonil=1035.,
(PID.TID 0000.0001) > rhoConstFresh=999.8,
(PID.TID 0000.0001) > buoyancyRelation='OCEANICP',
(PID.TID 0000.0001) > integr_GeoPot=1,
(PID.TID 0000.0001) > eosType='JMD95P',
(PID.TID 0000.0001) > useNHMTerms=.TRUE.,
(PID.TID 0000.0001) > rigidLid=.FALSE.,
(PID.TID 0000.0001) > implicitFreeSurface=.TRUE.,
(PID.TID 0000.0001) > exactConserv=.TRUE.,
(PID.TID 0000.0001) > nonlinFreeSurf=4,
(PID.TID 0000.0001) > hFacInf=0.2,
(PID.TID 0000.0001) > hFacSup=2.0,
(PID.TID 0000.0001) >#useRealFreshWaterFlux=.TRUE.,
(PID.TID 0000.0001) > readBinaryPrec=64,
(PID.TID 0000.0001) > writeBinaryPrec=64,
(PID.TID 0000.0001) > cosPower=0.5,
(PID.TID 0000.0001) > &
(PID.TID 0000.0001) >
(PID.TID 0000.0001) ># Elliptic solver parameters
(PID.TID 0000.0001) > &PARM02
(PID.TID 0000.0001) > cg2dMaxIters=200,
(PID.TID 0000.0001) > cg2dTargetResidual=1.E-9,
(PID.TID 0000.0001) > &
(PID.TID 0000.0001) >
(PID.TID 0000.0001) ># Time stepping parameters
(PID.TID 0000.0001) > &PARM03
(PID.TID 0000.0001) > startTime =           0.,
(PID.TID 0000.0001) > endTime   =     3456000.,
(PID.TID 0000.0001) ># after 100 years of intergration, one gets a reasonable flow field
(PID.TID 0000.0001) >#endTime   = 3110400000.,
(PID.TID 0000.0001) > deltaTmom      =   1200.0,
(PID.TID 0000.0001) > deltaTtracer   = 172800.0,
(PID.TID 0000.0001) > deltaTfreesurf = 172800.0,
(PID.TID 0000.0001) > deltaTClock    = 172800.0,
(PID.TID 0000.0001) > pChkptFreq  = 3110400000.,
(PID.TID 0000.0001) > dumpFreq    = 3110400000.,
(PID.TID 0000.0001) > taveFreq    = 3110400000.,
(PID.TID 0000.0001) > monitorFreq =   1.,
(PID.TID 0000.0001) > periodicExternalForcing=.TRUE.,
(PID.TID 0000.0001) > externForcingPeriod=2592000.,
(PID.TID 0000.0001) > externForcingCycle=31104000.,
(PID.TID 0000.0001) > tauThetaClimRelax=5184000.0,
(PID.TID 0000.0001) > abEps=0.1,
(PID.TID 0000.0001) > &
(PID.TID 0000.0001) >
(PID.TID 0000.0001) ># Gridding parameters
(PID.TID 0000.0001) > &PARM04
(PID.TID 0000.0001) > usingCartesianGrid=.FALSE.,
(PID.TID 0000.0001) > usingSphericalPolarGrid=.TRUE.,
(PID.TID 0000.0001) > dXspacing=4.,
(PID.TID 0000.0001) > dYspacing=4.,
(PID.TID 0000.0001) > Ro_SeaLevel=53023122.566084,
(PID.TID 0000.0001) > groundAtK1=.TRUE.,
(PID.TID 0000.0001) > delR=7103300.720021, 6570548.440790, 6041670.010249,
(PID.TID 0000.0001) >      5516436.666057, 4994602.034410, 4475903.435290,
(PID.TID 0000.0001) >      3960063.245801, 3446790.312651, 2935781.405664,
(PID.TID 0000.0001) >      2426722.705046, 1919291.315988, 1413156.804970,
(PID.TID 0000.0001) >      1008846.750166,  705919.025481,  504089.693499,
(PID.TID 0000.0001) > phiMin=-80.,
(PID.TID 0000.0001) > &
(PID.TID 0000.0001) >
(PID.TID 0000.0001) ># Input datasets
(PID.TID 0000.0001) > &PARM05
(PID.TID 0000.0001) > topoFile       ='topog.bin',
(PID.TID 0000.0001) > pLoadFile      ='deltageopotjmd95.bin',
(PID.TID 0000.0001) > hydrogThetaFile='lev_t.bin',
(PID.TID 0000.0001) > hydrogSaltFile ='lev_s.bin',
(PID.TID 0000.0001) > zonalWindFile  ='trenberth_taux.bin',
(PID.TID 0000.0001) > meridWindFile  ='trenberth_tauy.bin',
(PID.TID 0000.0001) > thetaClimFile  ='lev_sst.bin',
(PID.TID 0000.0001) >#saltClimFile   ='lev_sss.bin',
(PID.TID 0000.0001) > surfQFile      ='shi_qnet.bin',
(PID.TID 0000.0001) > EmPmRFile      ='shi_empmr.bin',
(PID.TID 0000.0001) > &
(PID.TID 0000.0001) 
(PID.TID 0000.0001) S/R INI_PARMS ; read PARM01 : OK
(PID.TID 0000.0001) S/R INI_PARMS ; read PARM02 : OK
(PID.TID 0000.0001) S/R INI_PARMS ; read PARM03 : OK
(PID.TID 0000.0001) S/R INI_PARMS ; read PARM04 : OK
(PID.TID 0000.0001) S/R INI_PARMS ; read PARM05 : OK
(PID.TID 0000.0001) %MON XC_max                       =   3.5800000000000E+02
(PID.TID 0000.0001) %MON XC_min                       =   2.0000000000000E+00
(PID.TID 0000.0001) %MON XC_mean                      =   1.8000000000000E+02
(PID.TID 0000.0001) %MON XC_sd                        =   1.0391663325314E+02
(PID.TID 0000.0001) %MON XG_max                       =   3.5600000000000E+02
(PID.TID 0000.0001) %MON XG_min                       =   4.0000000000000E+00
(PID.TID 0000.0001) %MON XG_mean                      =   1.8000000000000E+02
(PID.TID 0000.0001) %MON XG_sd                        =   1.0276186062932E+02
(PID.TID 0000.0001) %MON DXC_max                      =   4.4443898815675E+05
(PID.TID 0000.0001) %MON DXC_min                      =   9.2460385861875E+04
(PID.TID 0000.0001) %MON DXC_mean                     =   3.1372497618153E+05
(PID.TID 0000.0001) %MON DXC_sd                       =   1.1216447457560E+05
(PID.TID 0000.0001) %MON DXF_max                      =   4.4443898815675E+05
(PID.TID 0000.0001) %MON DXF_min                      =   9.2460385861875E+04
(PID.TID 0000.0001) %MON DXF_mean                     =   3.1372497618153E+05
(PID.TID 0000.0001) %MON DXF_sd                       =   1.1216447457560E+05
(PID.TID 0000.0001) %MON DXG_max                      =   4.4470989340816E+05
(PID.TID 0000.0001) %MON DXG_min                      =   7.7223062580781E+04
(PID.TID 0000.0001) %MON DXG_mean                     =   3.1353386340260E+05
(PID.TID 0000.0001) %MON DXG_sd                       =   1.1256651772502E+05
(PID.TID 0000.0001) %MON DXV_max                      =   4.4470989340816E+05
(PID.TID 0000.0001) %MON DXV_min                      =   7.7223062580781E+04
(PID.TID 0000.0001) %MON DXV_mean                     =   3.1353386340260E+05
(PID.TID 0000.0001) %MON DXV_sd                       =   1.1256651772502E+05
(PID.TID 0000.0001) %MON YC_max                       =   7.8000000000000E+01
(PID.TID 0000.0001) %MON YC_min                       =  -7.8000000000000E+01
(PID.TID 0000.0001) %MON YC_mean                      =   0.0000000000000E+00
(PID.TID 0000.0001) %MON YC_sd                        =   4.6173585522461E+01
(PID.TID 0000.0001) %MON YG_max                       =   7.6000000000000E+01
(PID.TID 0000.0001) %MON YG_min                       =  -8.0000000000000E+01
(PID.TID 0000.0001) %MON YG_mean                      =  -2.0512820512821E+00
(PID.TID 0000.0001) %MON YG_sd                        =   4.6760682979564E+01
(PID.TID 0000.0001) %MON DYC_max                      =   4.4470989340816E+05
(PID.TID 0000.0001) %MON DYC_min                      =   4.4470989340816E+05
(PID.TID 0000.0001) %MON DYC_mean                     =   4.4470989340814E+05
(PID.TID 0000.0001) %MON DYC_sd                       =   1.9848812371492E-08
(PID.TID 0000.0001) %MON DYF_max                      =   4.4470989340816E+05
(PID.TID 0000.0001) %MON DYF_min                      =   4.4470989340816E+05
(PID.TID 0000.0001) %MON DYF_mean                     =   4.4470989340814E+05
(PID.TID 0000.0001) %MON DYF_sd                       =   1.9848812371492E-08
(PID.TID 0000.0001) %MON DYG_max                      =   4.4470989340816E+05
(PID.TID 0000.0001) %MON DYG_min                      =   4.4470989340816E+05
(PID.TID 0000.0001) %MON DYG_mean                     =   4.4470989340814E+05
(PID.TID 0000.0001) %MON DYG_sd                       =   1.9848812371492E-08
(PID.TID 0000.0001) %MON DYU_max                      =   4.4470989340816E+05
(PID.TID 0000.0001) %MON DYU_min                      =   4.4470989340816E+05
(PID.TID 0000.0001) %MON DYU_mean                     =   4.4470989340814E+05
(PID.TID 0000.0001) %MON DYU_sd                       =   1.9848812371492E-08
(PID.TID 0000.0001) %MON RA_max                       =   1.9760627980089E+11
(PID.TID 0000.0001) %MON RA_min                       =   4.1109698667290E+10
(PID.TID 0000.0001) %MON RA_mean                      =   1.3948826965197E+11
(PID.TID 0000.0001) %MON RA_sd                        =   4.9870522472902E+10
(PID.TID 0000.0001) %MON RAW_max                      =   1.9760627980089E+11
(PID.TID 0000.0001) %MON RAW_min                      =   4.1109698667290E+10
(PID.TID 0000.0001) %MON RAW_mean                     =   1.3948826965197E+11
(PID.TID 0000.0001) %MON RAW_sd                       =   4.9870522472902E+10
(PID.TID 0000.0001) %MON RAS_max                      =   1.9772672958215E+11
(PID.TID 0000.0001) %MON RAS_min                      =   3.4334886267982E+10
(PID.TID 0000.0001) %MON RAS_mean                     =   1.3940329716694E+11
(PID.TID 0000.0001) %MON RAS_sd                       =   5.0049278732354E+10
(PID.TID 0000.0001) %MON RAZ_max                      =   1.9772672958215E+11
(PID.TID 0000.0001) %MON RAZ_min                      =   3.4334886267982E+10
(PID.TID 0000.0001) %MON RAZ_mean                     =   1.3940329716694E+11
(PID.TID 0000.0001) %MON RAZ_sd                       =   5.0049278732354E+10
(PID.TID 0000.0001)  MDSREADFIELD: opening global file: topog.bin
(PID.TID 0000.0001) // =======================================================
(PID.TID 0000.0001) // Field Model R_low (ini_masks_etc) at iteration          1
(PID.TID 0000.0001) // CMIN =          1.008622348308563E-06
(PID.TID 0000.0001) // CMAX =          1.008622348308563E-06
(PID.TID 0000.0001) // CINT =          0.000000000000000E+00
(PID.TID 0000.0001) // SYMBOLS (CMIN->CMAX): -abcdefghijklmnopqrstuvwxyz+
(PID.TID 0000.0001) //                  0.0: .
(PID.TID 0000.0001) // RANGE I (Lo:Hi:Step):(  -1:  92:   1)
(PID.TID 0000.0001) // RANGE J (Lo:Hi:Step):(  42:  -1:  -1)
(PID.TID 0000.0001) // RANGE K (Lo:Hi:Step):(   1:   1:   1)
(PID.TID 0000.0001) // =======================================================
(PID.TID 0000.0001) K =   1
(PID.TID 0000.0001) //                I=8       I=18      I=28      I=38      I=48      I=58      I=68      I=78      I=88
(PID.TID 0000.0001) // |--J--|*01234567|901234567|901234567|901234567|901234567|901234567|901234567|901234567|901234567|9012
(PID.TID 0000.0001) //     42 ----------------------------------------------------------------------------------------------
(PID.TID 0000.0001) //     41 ----------------------------------------------------------------------------------------------
(PID.TID 0000.0001) //     40 ----------------------------------------------------------------------------------------------
(PID.TID 0000.0001) //     39 ----------------------------------------------------------------------------------------------
(PID.TID 0000.0001) //     38 ----------------------------------------------------------------------------------------------
(PID.TID 0000.0001) //     37 ----------------------------------------------------------------------------------------------
(PID.TID 0000.0001) //     36 ----------------------------------------------------------------------------------------------
(PID.TID 0000.0001) //     35 ----------------------------------------------------------------------------------------------
(PID.TID 0000.0001) //     34 ----------------------------------------------------------------------------------------------
(PID.TID 0000.0001) //     33 ----------------------------------------------------------------------------------------------
(PID.TID 0000.0001) //     32 ----------------------------------------------------------------------------------------------
(PID.TID 0000.0001) //     31 ----------------------------------------------------------------------------------------------
(PID.TID 0000.0001) //     30 ----------------------------------------------------------------------------------------------
(PID.TID 0000.0001) //     29 ----------------------------------------------------------------------------------------------
(PID.TID 0000.0001) //     28 ----------------------------------------------------------------------------------------------
(PID.TID 0000.0001) //     27 ----------------------------------------------------------------------------------------------
(PID.TID 0000.0001) //     26 ----------------------------------------------------------------------------------------------
(PID.TID 0000.0001) //     25 ----------------------------------------------------------------------------------------------
(PID.TID 0000.0001) //     24 ----------------------------------------------------------------------------------------------
(PID.TID 0000.0001) //     23 ----------------------------------------------------------------------------------------------
(PID.TID 0000.0001) //     22 ----------------------------------------------------------------------------------------------
(PID.TID 0000.0001) //     21 ----------------------------------------------------------------------------------------------
(PID.TID 0000.0001) //     20 ----------------------------------------------------------------------------------------------
(PID.TID 0000.0001) //     19 ----------------------------------------------------------------------------------------------
(PID.TID 0000.0001) //     18 ----------------------------------------------------------------------------------------------
(PID.TID 0000.0001) //     17 ----------------------------------------------------------------------------------------------
(PID.TID 0000.0001) //     16 ----------------------------------------------------------------------------------------------
(PID.TID 0000.0001) //     15 ----------------------------------------------------------------------------------------------
(PID.TID 0000.0001) //     14 ----------------------------------------------------------------------------------------------
(PID.TID 0000.0001) //     13 ----------------------------------------------------------------------------------------------
(PID.TID 0000.0001) //     12 ----------------------------------------------------------------------------------------------
(PID.TID 0000.0001) //     11 ----------------------------------------------------------------------------------------------
(PID.TID 0000.0001) //     10 ----------------------------------------------------------------------------------------------
(PID.TID 0000.0001) //      9 ----------------------------------------------------------------------------------------------
(PID.TID 0000.0001) //      8 ----------------------------------------------------------------------------------------------
(PID.TID 0000.0001) //      7 ----------------------------------------------------------------------------------------------
(PID.TID 0000.0001) //      6 ----------------------------------------------------------------------------------------------
(PID.TID 0000.0001) //      5 ----------------------------------------------------------------------------------------------
(PID.TID 0000.0001) //      4 ----------------------------------------------------------------------------------------------
(PID.TID 0000.0001) //      3 ----------------------------------------------------------------------------------------------
(PID.TID 0000.0001) //      2 ----------------------------------------------------------------------------------------------
(PID.TID 0000.0001) //      1 ----------------------------------------------------------------------------------------------
(PID.TID 0000.0001) //      0 ----------------------------------------------------------------------------------------------
(PID.TID 0000.0001) //     -1 ----------------------------------------------------------------------------------------------
(PID.TID 0000.0001) // =======================================================
(PID.TID 0000.0001) // END OF FIELD                                          =
(PID.TID 0000.0001) // =======================================================
(PID.TID 0000.0001) 
(PID.TID 0000.0001) // =======================================================
(PID.TID 0000.0001) // Field Model Ro_surf (ini_masks_etc) at iteration          1
(PID.TID 0000.0001) // CMIN =          1.008622348308563E-06
(PID.TID 0000.0001) // CMAX =          5.302312256608400E+07
(PID.TID 0000.0001) // CINT =          1.963819354299370E+06
(PID.TID 0000.0001) // SYMBOLS (CMIN->CMAX): -abcdefghijklmnopqrstuvwxyz+
(PID.TID 0000.0001) //                  0.0: .
(PID.TID 0000.0001) // RANGE I (Lo:Hi:Step):(  -1:  92:   1)
(PID.TID 0000.0001) // RANGE J (Lo:Hi:Step):(  42:  -1:  -1)
(PID.TID 0000.0001) // RANGE K (Lo:Hi:Step):(   1:   1:   1)
(PID.TID 0000.0001) // =======================================================
(PID.TID 0000.0001) K =   1
(PID.TID 0000.0001) //                I=8       I=18      I=28      I=38      I=48      I=58      I=68      I=78      I=88
(PID.TID 0000.0001) // |--J--|*01234567|901234567|901234567|901234567|901234567|901234567|901234567|901234567|901234567|9012
(PID.TID 0000.0001) //     42 --------------------------------------------bbcdnttwwwttttqnnlfddc--abcc-----ccbcltttttba-----
(PID.TID 0000.0001) //     41 ----------------------------------------------------------------------------------------------
(PID.TID 0000.0001) //     40 innllaa-aaaaaaaaaaaaa------------------------------------------------------------------aaainnl
(PID.TID 0000.0001) //     39 gnnllibbaaaaaaaa---aa-----------------------------------------------------bdda--------abffgnnl
(PID.TID 0000.0001) //     38 nllllibbaaaaaaa-----------------------------------------------------------bddca------bccfgnlll
(PID.TID 0000.0001) //     37 nnnga------------------------------------------------------------------aa---bca---bggc--agnnng
(PID.TID 0000.0001) //     36 fgga-----------------------------------------nnaa--------------------aaaaaaabnnn-bllfggffcfgga
(PID.TID 0000.0001) //     35 aaaa---------------------------------aaaa--iinnqqa---atttn-----------aaa----annqqqnglllgddaaaa
(PID.TID 0000.0001) //     34 -------------------------------------affc-tticcfab-wwwttttn------------------anqttqqqtttna----
(PID.TID 0000.0001) //     33 a-------------------------------------ffa+++t+++++++++wwwtqna-----------------aifwwtnttttda---
(PID.TID 0000.0001) //     32 a-------------------------------------ag++++t++++++++++wwttnn----------------aaatwttqltttna---
(PID.TID 0000.0001) //     31 --------------------------------------++++++w++++++++++wwwtqn--------------iw++twwwtiltwwn----
(PID.TID 0000.0001) //     30 -------------------------------------t++++w++w+++++++++++++ww------------at++++twwwlgqtwwq----
(PID.TID 0000.0001) //     29 -----------------------------------gf++++t+++tqt+++++++++++wwt-----------w++w+++wtnqq++wtq----
(PID.TID 0000.0001) //     28 ---------------------------------actn+++++++++++++++++++wwwwwtq---------iw++++++wntww++wqa----
(PID.TID 0000.0001) //     27 ----------------cc--------------aftttlt++++++++w+nnw+++wwwwwwttt---aaac-iw++++++qt+++++t------
(PID.TID 0000.0001) //     26 ----------------cnn-----------afw+++wl+++++++++++qwtn++++++wwtttqg-aa-ii-c++++++tw++++wq------
(PID.TID 0000.0001) //     25 ----------------qttq---lla---atfw+++wl+++ww++qqtnt+++++++++wwtttqnn---iifnac+++wqw++wwqq------
(PID.TID 0000.0001) //     24 --------------cntwwtg-qqqa---ftt-++twn+++++++++++++++++++wwwwwttqnqqqf-afnnddwwwtw++++wt------
(PID.TID 0000.0001) //     23 --------------dttwwtl-ttqd---fff--tqtq++++ttw+++++w++++++wwwwwttqqqqqql----bbqwwwt++++ww------
(PID.TID 0000.0001) //     22 gii-----------wwwqttgnttqq---bb-dlqwwlltwwwwt++++++wt+w++wwwwwwtttqqqqii------dwwwttwwtwwigii-
(PID.TID 0000.0001) //     21 ++wqi--------nwwwwqtiwwwqqb-----dltwwqtttnwwt++++++wqwwwwwwwwwttttqnnill--------twwtqttwww++wq
(PID.TID 0000.0001) //     20 ++wwi-------nwwwwwtqwwwwqww------b-fqqqgiltttt+++++++wwwwwwwwwwtttqttqqn---------ntt+++ttw++ww
(PID.TID 0000.0001) //     19 ww++t-------qwwlittl+++qwwwwd---aba-----iannww++++t++++wwwwwwwwttqtttttt-----------w+++wqtww++
(PID.TID 0000.0001) //     18 w+++w-------qtnttfqq+++qwww++w+qfaa---iiblntwwwwtwtq+++wwtwwwwwtqtttttwwa----------w+++wqtw+++
(PID.TID 0000.0001) //     17 w+++w-------q-twwdqt+++l+++++++qf-----iilnninnnltwww++wwwttttttnqttqtwwwq---------tw+++wqtw+++
(PID.TID 0000.0001) //     16 w+++w------gn-wwtnntw++i++++++nf-------flnnfnnndf+++wwqflnttttqntttttwwwqt--------it+++wqtw+++
(PID.TID 0000.0001) //     15 w++wlb----aqq-wwwttnwwwnw+++++f---------lggdllnf++++wwwwwtqtttqqtttttwwqttt------atw+++wqtw++w
(PID.TID 0000.0001) //     14 w++nwn----dwwi+++tqqqtwnw++w+tb---------ttgglttg++++++wwtwttqqqnqttqqqqtttt-----aqtw+++wntw++n
(PID.TID 0000.0001) //     13 wwn++t----nwwl+++qwwtqttliiw++n---------wwggittg++++++++wwwtttqqnqqttqttttl----aqttlwwwtntwwn+
(PID.TID 0000.0001) //     12 tt+++wdaqttwwnwntwwwtntqttww++wt+++a----wwigiilw+++++++++wwqtttqqqqqtttttt-----qwwwwttttnttt++
(PID.TID 0000.0001) //     11 tw+++w++qtwwwnnt++wwtlttttwww++++++++--wwwwng-nw+w+++++++++wwwtqntttqqtttt----n+++++wwtqnqtw++
(PID.TID 0000.0001) //     10 tw++ww+w++wtiqqt++wwtqnnnqttwwww+++++w-wwwwtd-nbiw+++++++++wwwtqnttwwttqtq--ad++++++wwttnqtw++
(PID.TID 0000.0001) //      9 ttwwwww+++llglntwtwtqqqttnnnttwwwwwwwwnwwwwt-fbt+++++++++++wwwtnqttwwwttqf-aad++++++wwwtqnttww
(PID.TID 0000.0001) //      8 tttqqqw++twwttwwwwfblqttttttnqqqttqqqtwtwwticfw++++++wwwwwwwttqnttwwwwwwta-aacttn++wtwwwtntttq
(PID.TID 0000.0001) //      7 ninnwwqqt++wnw++wwtgcqtwwwttwwwwwwwttnttwwntw++++++wwwwtttqtqnnttwww+++wwt-aaaintgfqtqwwwtninn
(PID.TID 0000.0001) //      6 w++++++++++++++++wwwnggwwwwwwwwwwwwwwtqqqqttw++++wwwtqnnqnwtww+++w+w+++wwwtqqqqtilnniwtqtww+++
(PID.TID 0000.0001) //      5 +++++++++++++++++wwwttttwwwwwwwwwwwwwtqqqlnlwwwwtttnnnqtwwww++++++++w+wwwwtqqqgitwwwwww+++++++
(PID.TID 0000.0001) //      4 ++tw++++++wwwqttttqqqttqqlbdnnllqqlnqqqqqnnnlnqlnnntttwwwwww+++++++wwwwwttnb--cqtwwwwww+++++tw
(PID.TID 0000.0001) //      3 ttttilqqqdcc----------------------------cclgnqqqqttwwwwwwwwwtttttwwwwttqqbb--ciqtwwwwwwwwttttt
(PID.TID 0000.0001) //      2 --------------------------------------------bbcdnttwwwttttqnnlfddc--abcc-----ccbcltttttba-----
(PID.TID 0000.0001) //      1 ----------------------------------------------------------------------------------------------
(PID.TID 0000.0001) //      0 innllaa-aaaaaaaaaaaaa------------------------------------------------------------------aaainnl
(PID.TID 0000.0001) //     -1 gnnllibbaaaaaaaa---aa-----------------------------------------------------bdda--------abffgnnl
(PID.TID 0000.0001) // =======================================================
(PID.TID 0000.0001) // END OF FIELD                                          =
(PID.TID 0000.0001) // =======================================================
(PID.TID 0000.0001) 
(PID.TID 0000.0001) // =======================================================
(PID.TID 0000.0001) // Field hFacC at iteration          1
(PID.TID 0000.0001) // CMIN =          1.000000000000000E+00
(PID.TID 0000.0001) // CMAX =          1.000000000000000E+00
(PID.TID 0000.0001) // CINT =          0.000000000000000E+00
(PID.TID 0000.0001) // SYMBOLS (CMIN->CMAX): -abcdefghijklmnopqrstuvwxyz+
(PID.TID 0000.0001) //                  0.0: .
(PID.TID 0000.0001) // RANGE I (Lo:Hi:Step):(  -1:  92:   1)
(PID.TID 0000.0001) // RANGE J (Lo:Hi:Step):(  42:  -1:  -1)
(PID.TID 0000.0001) // RANGE K (Lo:Hi:Step):(   1:   1:   1)
(PID.TID 0000.0001) // =======================================================
(PID.TID 0000.0001) K =   1
(PID.TID 0000.0001) //                I=8       I=18      I=28      I=38      I=48      I=58      I=68      I=78      I=88
(PID.TID 0000.0001) // |--J--|*01234567|901234567|901234567|901234567|901234567|901234567|901234567|901234567|901234567|9012
(PID.TID 0000.0001) //     42 ..............................................................................................
(PID.TID 0000.0001) //     41 ..............................................................................................
(PID.TID 0000.0001) //     40 ..............................................................................................
(PID.TID 0000.0001) //     39 ..............................................................................................
(PID.TID 0000.0001) //     38 ..............................................................................................
(PID.TID 0000.0001) //     37 ..............................................................................................
(PID.TID 0000.0001) //     36 ..............................................................................................
(PID.TID 0000.0001) //     35 ..............................................................................................
(PID.TID 0000.0001) //     34 ..............................................................................................
(PID.TID 0000.0001) //     33 .........................................---.---------........................................
(PID.TID 0000.0001) //     32 ........................................----.----------.......................................
(PID.TID 0000.0001) //     31 ......................................------.----------......................--...............
(PID.TID 0000.0001) //     30 ......................................----.--.-------------................----...............
(PID.TID 0000.0001) //     29 .....................................----.---...-----------...............--.---.....--.......
(PID.TID 0000.0001) //     28 .....................................-------------------..................------.....--.......
(PID.TID 0000.0001) //     27 .......................................--------.-...---...................------..-----.......
(PID.TID 0000.0001) //     26 .................................---..-----------....------...............------..----........
(PID.TID 0000.0001) //     25 .................................---..---..--.....---------.................---...--..........
(PID.TID 0000.0001) //     24 .................................--...-------------------.........................----........
(PID.TID 0000.0001) //     23 ......................................----...-----.------.........................----........
(PID.TID 0000.0001) //     22 .............................................------..-.--.....................................
(PID.TID 0000.0001) //     21 --...........................................------.......................................--..
(PID.TID 0000.0001) //     20 --............................................-------...............................---...--..
(PID.TID 0000.0001) //     19 ..--................---.......................----.----.............................---.....--
(PID.TID 0000.0001) //     18 .---................---....--.-.....................---.............................---....---
(PID.TID 0000.0001) //     17 .---................---.-------.....................--..............................---....---
(PID.TID 0000.0001) //     16 .---.................--.------...................---................................---....---
(PID.TID 0000.0001) //     15 .--......................-----..................----................................---....--.
(PID.TID 0000.0001) //     14 .--...........---........--.-...................------..............................---....--.
(PID.TID 0000.0001) //     13 ...--.........---...........--..................--------.....................................-
(PID.TID 0000.0001) //     12 ..---.......................--..---.............---------...................................--
(PID.TID 0000.0001) //     11 ..---.--........--...........--------...........-.---------....................-----........--
(PID.TID 0000.0001) //     10 ..--..-.--......--..............-----.............---------...................------........--
(PID.TID 0000.0001) //      9 .......---......................................-----------...................------..........
(PID.TID 0000.0001) //      8 .......--......................................------............................--...........
(PID.TID 0000.0001) //      7 .........--...--.............................------.................---.......................
(PID.TID 0000.0001) //      6 .----------------............................----.............---.-.---....................---
(PID.TID 0000.0001) //      5 -----------------...........................................--------.-.................-------
(PID.TID 0000.0001) //      4 --..------..................................................-------....................-----..
(PID.TID 0000.0001) //      3 ..............................................................................................
(PID.TID 0000.0001) //      2 ..............................................................................................
(PID.TID 0000.0001) //      1 ..............................................................................................
(PID.TID 0000.0001) //      0 ..............................................................................................
(PID.TID 0000.0001) //     -1 ..............................................................................................
(PID.TID 0000.0001) // =======================================================
(PID.TID 0000.0001) // END OF FIELD                                          =
(PID.TID 0000.0001) // =======================================================
(PID.TID 0000.0001) 
(PID.TID 0000.0001) // =======================================================
(PID.TID 0000.0001) // Field hFacW at iteration          1
(PID.TID 0000.0001) // CMIN =          1.000000000000000E+00
(PID.TID 0000.0001) // CMAX =          1.000000000000000E+00
(PID.TID 0000.0001) // CINT =          0.000000000000000E+00
(PID.TID 0000.0001) // SYMBOLS (CMIN->CMAX): -abcdefghijklmnopqrstuvwxyz+
(PID.TID 0000.0001) //                  0.0: .
(PID.TID 0000.0001) // RANGE I (Lo:Hi:Step):(  -1:  92:   1)
(PID.TID 0000.0001) // RANGE J (Lo:Hi:Step):(  42:  -1:  -1)
(PID.TID 0000.0001) // RANGE K (Lo:Hi:Step):(   1:   1:   1)
(PID.TID 0000.0001) // =======================================================
(PID.TID 0000.0001) K =   1
(PID.TID 0000.0001) //                I=8       I=18      I=28      I=38      I=48      I=58      I=68      I=78      I=88
(PID.TID 0000.0001) // |--J--|*01234567|901234567|901234567|901234567|901234567|901234567|901234567|901234567|901234567|9012
(PID.TID 0000.0001) //     42 ..............................................................................................
(PID.TID 0000.0001) //     41 ..............................................................................................
(PID.TID 0000.0001) //     40 ..............................................................................................
(PID.TID 0000.0001) //     39 ..............................................................................................
(PID.TID 0000.0001) //     38 ..............................................................................................
(PID.TID 0000.0001) //     37 ..............................................................................................
(PID.TID 0000.0001) //     36 ..............................................................................................
(PID.TID 0000.0001) //     35 ..............................................................................................
(PID.TID 0000.0001) //     34 ..............................................................................................
(PID.TID 0000.0001) //     33 ..........................................--..--------........................................
(PID.TID 0000.0001) //     32 .........................................---..---------.......................................
(PID.TID 0000.0001) //     31 .......................................-----..---------.......................-...............
(PID.TID 0000.0001) //     30 .......................................---..-..------------.................---...............
(PID.TID 0000.0001) //     29 ......................................---..--....----------................-..--......-.......
(PID.TID 0000.0001) //     28 ......................................------------------...................-----......-.......
(PID.TID 0000.0001) //     27 ........................................-------......--....................-----...----.......
(PID.TID 0000.0001) //     26 ..................................--...----------.....-----................-----...---........
(PID.TID 0000.0001) //     25 ..................................--...--...-......--------..................--....-..........
(PID.TID 0000.0001) //     24 ..................................-....------------------..........................---........
(PID.TID 0000.0001) //     23 .......................................---....----..-----..........................---........
(PID.TID 0000.0001) //     22 ..............................................-----.....-.....................................
(PID.TID 0000.0001) //     21 .-............................................-----........................................-..
(PID.TID 0000.0001) //     20 .-.............................................------................................--....-..
(PID.TID 0000.0001) //     19 ...-.................--........................---..---..............................--......-
(PID.TID 0000.0001) //     18 ..--.................--.....-........................--..............................--.....--
(PID.TID 0000.0001) //     17 ..--.................--..------......................-...............................--.....--
(PID.TID 0000.0001) //     16 ..--..................-..-----....................--.................................--.....--
(PID.TID 0000.0001) //     15 ..-.......................----...................---.................................--.....-.
(PID.TID 0000.0001) //     14 ..-............--.........-......................-----...............................--.....-.
(PID.TID 0000.0001) //     13 ....-..........--............-...................-------......................................
(PID.TID 0000.0001) //     12 ...--........................-...--..............--------....................................-
(PID.TID 0000.0001) //     11 ...--..-.........-............-------..............--------.....................----.........-
(PID.TID 0000.0001) //     10 ...-.....-.......-...............----..............--------....................-----.........-
(PID.TID 0000.0001) //      9 ........--.......................................----------....................-----..........
(PID.TID 0000.0001) //      8 ........-.......................................-----.............................-...........
(PID.TID 0000.0001) //      7 ..........-....-..............................-----..................--.......................
(PID.TID 0000.0001) //      6 ..---------------.............................---..............--....--.....................--
(PID.TID 0000.0001) //      5 -----------------............................................-------....................------
(PID.TID 0000.0001) //      4 --...-----...................................................------.....................----..
(PID.TID 0000.0001) //      3 ..............................................................................................
(PID.TID 0000.0001) //      2 ..............................................................................................
(PID.TID 0000.0001) //      1 ..............................................................................................
(PID.TID 0000.0001) //      0 ..............................................................................................
(PID.TID 0000.0001) //     -1 ..............................................................................................
(PID.TID 0000.0001) // =======================================================
(PID.TID 0000.0001) // END OF FIELD                                          =
(PID.TID 0000.0001) // =======================================================
(PID.TID 0000.0001) 
(PID.TID 0000.0001) // =======================================================
(PID.TID 0000.0001) // Field hFacS at iteration          1
(PID.TID 0000.0001) // CMIN =          1.000000000000000E+00
(PID.TID 0000.0001) // CMAX =          1.000000000000000E+00
(PID.TID 0000.0001) // CINT =          0.000000000000000E+00
(PID.TID 0000.0001) // SYMBOLS (CMIN->CMAX): -abcdefghijklmnopqrstuvwxyz+
(PID.TID 0000.0001) //                  0.0: .
(PID.TID 0000.0001) // RANGE I (Lo:Hi:Step):(  -1:  92:   1)
(PID.TID 0000.0001) // RANGE J (Lo:Hi:Step):(  42:  -1:  -1)
(PID.TID 0000.0001) // RANGE K (Lo:Hi:Step):(   1:   1:   1)
(PID.TID 0000.0001) // =======================================================
(PID.TID 0000.0001) K =   1
(PID.TID 0000.0001) //                I=8       I=18      I=28      I=38      I=48      I=58      I=68      I=78      I=88
(PID.TID 0000.0001) // |--J--|*01234567|901234567|901234567|901234567|901234567|901234567|901234567|901234567|901234567|9012
(PID.TID 0000.0001) //     42 ..............................................................................................
(PID.TID 0000.0001) //     41 ..............................................................................................
(PID.TID 0000.0001) //     40 ..............................................................................................
(PID.TID 0000.0001) //     39 ..............................................................................................
(PID.TID 0000.0001) //     38 ..............................................................................................
(PID.TID 0000.0001) //     37 ..............................................................................................
(PID.TID 0000.0001) //     36 ..............................................................................................
(PID.TID 0000.0001) //     35 ..............................................................................................
(PID.TID 0000.0001) //     34 ..............................................................................................
(PID.TID 0000.0001) //     33 .........................................---.---------........................................
(PID.TID 0000.0001) //     32 ........................................----.----------.......................................
(PID.TID 0000.0001) //     31 ......................................----.-..---------......................--...............
(PID.TID 0000.0001) //     30 ......................................---..--...-----------................-.--...............
(PID.TID 0000.0001) //     29 .....................................----.---...--------..................--.---.....--.......
(PID.TID 0000.0001) //     28 .......................................--------.-...---...................------.....--.......
(PID.TID 0000.0001) //     27 .......................................--------.-....--...................------..----........
(PID.TID 0000.0001) //     26 .................................---..---..--........------.................---...--..........
(PID.TID 0000.0001) //     25 .................................--...---..--.....-------.........................--..........
(PID.TID 0000.0001) //     24 ......................................----...-----.------.........................----........
(PID.TID 0000.0001) //     23 .............................................-----...-.--.....................................
(PID.TID 0000.0001) //     22 .............................................------...........................................
(PID.TID 0000.0001) //     21 --............................................-----.......................................--..
(PID.TID 0000.0001) //     20 ..............................................----.--...............................---.......
(PID.TID 0000.0001) //     19 ..--................---.............................---.............................---.....--
(PID.TID 0000.0001) //     18 .---................---....--.-.....................--..............................---....---
(PID.TID 0000.0001) //     17 .---.................--.------......................................................---....---
(PID.TID 0000.0001) //     16 .--......................-----...................---................................---....--.
(PID.TID 0000.0001) //     15 .--......................--.-...................----................................---....--.
(PID.TID 0000.0001) //     14 ..............---...........-...................------........................................
(PID.TID 0000.0001) //     13 ...--.......................--..................--------.....................................-
(PID.TID 0000.0001) //     12 ..---........................-..---.............-.-------...................................--
(PID.TID 0000.0001) //     11 ..--..-.........--..............-----.............---------....................-----........--
(PID.TID 0000.0001) //     10 ........--........................................---------...................------..........
(PID.TID 0000.0001) //      9 .......--.......................................-----............................--...........
(PID.TID 0000.0001) //      8 ...............................................----...........................................
(PID.TID 0000.0001) //      7 .........--...--.............................----...................---.......................
(PID.TID 0000.0001) //      6 .----------------.............................................---.-..-.....................---
(PID.TID 0000.0001) //      5 --..------..................................................-------....................-----..
(PID.TID 0000.0001) //      4 ..............................................................................................
(PID.TID 0000.0001) //      3 ..............................................................................................
(PID.TID 0000.0001) //      2 ..............................................................................................
(PID.TID 0000.0001) //      1 ..............................................................................................
(PID.TID 0000.0001) //      0 ..............................................................................................
(PID.TID 0000.0001) //     -1 ..............................................................................................
(PID.TID 0000.0001) // =======================================================
(PID.TID 0000.0001) // END OF FIELD                                          =
(PID.TID 0000.0001) // =======================================================
(PID.TID 0000.0001) 
(PID.TID 0000.0001)  PACKAGES_BOOT: opening data.pkg
(PID.TID 0000.0001)  OPEN_COPY_DATA_FILE: opening file data.pkg
(PID.TID 0000.0001) // =======================================================
(PID.TID 0000.0001) // Parameter file "data.pkg"
(PID.TID 0000.0001) // =======================================================
(PID.TID 0000.0001) ># Packages
(PID.TID 0000.0001) > &PACKAGES
(PID.TID 0000.0001) > &
(PID.TID 0000.0001) 
(PID.TID 0000.0001)  PACKAGES_BOOT: finished reading data.pkg
(PID.TID 0000.0001) 
(PID.TID 0000.0001) // ===================================
(PID.TID 0000.0001) // GAD parameters :
(PID.TID 0000.0001) // ===================================
(PID.TID 0000.0001) tempAdvScheme =   /* Temp. advection scheme selector */
(PID.TID 0000.0001)                       2
(PID.TID 0000.0001)     ;
(PID.TID 0000.0001) tempMultiDimAdvec =   /* use Muti-Dim Advec method for Temp */
(PID.TID 0000.0001)                   F
(PID.TID 0000.0001)     ;
(PID.TID 0000.0001) tempAdamsBashforth =   /* use Adams-Bashforth time-stepping for Temp */
(PID.TID 0000.0001)                   T
(PID.TID 0000.0001)     ;
(PID.TID 0000.0001) saltAdvScheme =   /* Salt. advection scheme selector */
(PID.TID 0000.0001)                       2
(PID.TID 0000.0001)     ;
(PID.TID 0000.0001) saltMultiDimAdvec =   /* use Muti-Dim Advec method for Salt */
(PID.TID 0000.0001)                   F
(PID.TID 0000.0001)     ;
(PID.TID 0000.0001) saltAdamsBashforth =   /* use Adams-Bashforth time-stepping for Salt */
(PID.TID 0000.0001)                   T
(PID.TID 0000.0001)     ;
(PID.TID 0000.0001) // ===================================
(PID.TID 0000.0001) %MON fCori_max                    =   1.4226580169407E-04
(PID.TID 0000.0001) %MON fCori_min                    =  -1.4226580169407E-04
(PID.TID 0000.0001) %MON fCori_mean                   =   7.5291817533716E-23
(PID.TID 0000.0001) %MON fCori_sd                     =   9.6335367303778E-05
(PID.TID 0000.0001) %MON fCoriG_max                   =   1.4112379284621E-04
(PID.TID 0000.0001) %MON fCoriG_min                   =  -1.4323448157692E-04
(PID.TID 0000.0001) %MON fCoriG_mean                  =  -3.6726790147928E-06
(PID.TID 0000.0001) %MON fCoriG_sd                    =   9.7510077443652E-05
(PID.TID 0000.0001) %MON fCoriCos_max                 =   1.4535550371427E-04
(PID.TID 0000.0001) %MON fCoriCos_min                 =   3.0239529651320E-05
(PID.TID 0000.0001) %MON fCoriCos_mean                =   1.0260497651149E-04
(PID.TID 0000.0001) %MON fCoriCos_sd                  =   3.6683828681187E-05
(PID.TID 0000.0001) // CG2D normalisation factor =          0.6002578945994698667540502E-08
(PID.TID 0000.0001) 
(PID.TID 0000.0001) CONFIG_CHECK: OK
(PID.TID 0000.0001) // =======================================================
(PID.TID 0000.0001) // Model configuration
(PID.TID 0000.0001) // =======================================================
(PID.TID 0000.0001) //
(PID.TID 0000.0001) // "Physical" paramters ( PARM01 in namelist )
(PID.TID 0000.0001) //
(PID.TID 0000.0001) buoyancyRelation = OCEANICP
(PID.TID 0000.0001) tRef =   /* Reference temperature profile ( oC or oK ) */
(PID.TID 0000.0001)    15 @  2.000000000000000E+01              /* K =  1: 15 */
(PID.TID 0000.0001)     ;
(PID.TID 0000.0001) sRef =   /* Reference salinity profile ( ppt ) */
(PID.TID 0000.0001)    15 @  3.500000000000000E+01              /* K =  1: 15 */
(PID.TID 0000.0001)     ;
(PID.TID 0000.0001) viscAh =   /* Lateral eddy viscosity ( m^2/s ) */
(PID.TID 0000.0001)                 3.000000000000000E+05
(PID.TID 0000.0001)     ;
(PID.TID 0000.0001) viscA4 =   /* Lateral biharmonic viscosity ( m^4/s ) */
(PID.TID 0000.0001)                 0.000000000000000E+00
(PID.TID 0000.0001)     ;
(PID.TID 0000.0001) no_slip_sides =  /* Viscous BCs: No-slip sides */
(PID.TID 0000.0001)                   T
(PID.TID 0000.0001)     ;
(PID.TID 0000.0001) viscAr =   /* Vertical eddy viscosity ( units of r^2/s ) */
(PID.TID 0000.0001)                 1.721611620915750E+05
(PID.TID 0000.0001)     ;
(PID.TID 0000.0001) diffKhT =   /* Laplacian diffusion of heat laterally ( m^2/s ) */
(PID.TID 0000.0001)                 1.000000000000000E+03
(PID.TID 0000.0001)     ;
(PID.TID 0000.0001) diffK4T =   /* Bihaarmonic diffusion of heat laterally ( m^4/s ) */
(PID.TID 0000.0001)                 0.000000000000000E+00
(PID.TID 0000.0001)     ;
(PID.TID 0000.0001) diffKrT =   /* Laplacian diffusion of heat vertically ( m^2/s ) */
(PID.TID 0000.0001)                 5.154525811125000E+03
(PID.TID 0000.0001)     ;
(PID.TID 0000.0001) diffKhS =   /* Laplacian diffusion of salt laterally ( m^2/s ) */
(PID.TID 0000.0001)                 1.000000000000000E+03
(PID.TID 0000.0001)     ;
(PID.TID 0000.0001) diffK4S =   /* Bihaarmonic diffusion of salt laterally ( m^4/s ) */
(PID.TID 0000.0001)                 0.000000000000000E+00
(PID.TID 0000.0001)     ;
(PID.TID 0000.0001) diffKrS =   /* Laplacian diffusion of salt vertically ( m^2/s ) */
(PID.TID 0000.0001)                 5.154525811125000E+03
(PID.TID 0000.0001)     ;
(PID.TID 0000.0001)  Equation of State : eosType = JMD95P
(PID.TID 0000.0001) tAlpha =   /* Linear EOS thermal expansion coefficient ( 1/degree ) */
(PID.TID 0000.0001)                 1.234567000000000E+05
(PID.TID 0000.0001)     ;
(PID.TID 0000.0001) sBeta =   /* Linear EOS haline contraction coefficient ( 1/ppt ) */
(PID.TID 0000.0001)                 1.234567000000000E+05
(PID.TID 0000.0001)     ;
(PID.TID 0000.0001) rhonil =   /* Reference density ( kg/m^3 ) */
(PID.TID 0000.0001)                 1.035000000000000E+03
(PID.TID 0000.0001)     ;
(PID.TID 0000.0001) rhoConst =   /* Reference density ( kg/m^3 ) */
(PID.TID 0000.0001)                 1.035000000000000E+03
(PID.TID 0000.0001)     ;
(PID.TID 0000.0001) rhoConstFresh =   /* Reference density ( kg/m^3 ) */
(PID.TID 0000.0001)                 9.998000000000000E+02
(PID.TID 0000.0001)     ;
(PID.TID 0000.0001) gravity =   /* Gravitational acceleration ( m/s^2 ) */
(PID.TID 0000.0001)                 9.810000000000000E+00
(PID.TID 0000.0001)     ;
(PID.TID 0000.0001) gBaro =   /* Barotropic gravity ( m/s^2 ) */
(PID.TID 0000.0001)                 9.810000000000000E+00
(PID.TID 0000.0001)     ;
(PID.TID 0000.0001) rotationPeriod =   /* Rotation Period ( s ) */
(PID.TID 0000.0001)                 8.640000000000000E+04
(PID.TID 0000.0001)     ;
(PID.TID 0000.0001) omega =   /* Angular velocity ( rad/s ) */
(PID.TID 0000.0001)                 7.272205216643040E-05
(PID.TID 0000.0001)     ;
(PID.TID 0000.0001) f0 =   /* Reference coriolis parameter ( 1/s ) */
(PID.TID 0000.0001)                 1.000000000000000E-04
(PID.TID 0000.0001)     ;
(PID.TID 0000.0001) beta =   /* Beta ( 1/(m.s) ) */
(PID.TID 0000.0001)                 9.999999999999999E-12
(PID.TID 0000.0001)     ;
(PID.TID 0000.0001) freeSurfFac =   /* Implicit free surface factor */
(PID.TID 0000.0001)                 1.000000000000000E+00
(PID.TID 0000.0001)     ;
(PID.TID 0000.0001) implicitFreeSurface =   /* Implicit free surface on/off flag */
(PID.TID 0000.0001)                   T
(PID.TID 0000.0001)     ;
(PID.TID 0000.0001) rigidLid =   /* Rigid lid on/off flag */
(PID.TID 0000.0001)                   F
(PID.TID 0000.0001)     ;
(PID.TID 0000.0001) implicSurfPress =   /* Surface Pressure implicit factor (0-1)*/
(PID.TID 0000.0001)                 1.000000000000000E+00
(PID.TID 0000.0001)     ;
(PID.TID 0000.0001) implicDiv2Dflow =   /* Barot. Flow Div. implicit factor (0-1)*/
(PID.TID 0000.0001)                 1.000000000000000E+00
(PID.TID 0000.0001)     ;
(PID.TID 0000.0001) exactConserv =   /* Exact Volume Conservation on/off flag*/
(PID.TID 0000.0001)                   T
(PID.TID 0000.0001)     ;
(PID.TID 0000.0001) uniformLin_PhiSurf =   /* use uniform Bo_surf on/off flag*/
(PID.TID 0000.0001)                   T
(PID.TID 0000.0001)     ;
(PID.TID 0000.0001) nonlinFreeSurf =   /* Non-linear Free Surf. options (-1,0,1,2,3)*/
(PID.TID 0000.0001)                       4
(PID.TID 0000.0001)     ;
(PID.TID 0000.0001)      -1,0= Off ; 1,2,3= On, 2=+rescale gU,gV, 3=+update cg2d solv.
(PID.TID 0000.0001) hFacInf =   /* lower threshold for hFac (nonlinFreeSurf only)*/
(PID.TID 0000.0001)                 2.000000000000000E-01
(PID.TID 0000.0001)     ;
(PID.TID 0000.0001) hFacSup =   /* upper threshold for hFac (nonlinFreeSurf only)*/
(PID.TID 0000.0001)                 2.000000000000000E+00
(PID.TID 0000.0001)     ;
(PID.TID 0000.0001) select_rStar =   /* r* Coordinate options (not yet implemented)*/
(PID.TID 0000.0001)                       0
(PID.TID 0000.0001)     ;
(PID.TID 0000.0001) useRealFreshWaterFlux =   /* Real Fresh Water Flux on/off flag*/
(PID.TID 0000.0001)                   F
(PID.TID 0000.0001)     ;
(PID.TID 0000.0001) convertFW2Salt = /* convert F.W. Flux to Salt Flux (-1=use local S)(ppt)*/
(PID.TID 0000.0001)                 3.500000000000000E+01
(PID.TID 0000.0001)     ;
(PID.TID 0000.0001) nonHydrostatic =  /* Non-Hydrostatic on/off flag */
(PID.TID 0000.0001)                   F
(PID.TID 0000.0001)     ;
(PID.TID 0000.0001) momStepping =  /* Momentum equation on/off flag */
(PID.TID 0000.0001)                   T
(PID.TID 0000.0001)     ;
(PID.TID 0000.0001) momAdvection =  /* Momentum advection on/off flag */
(PID.TID 0000.0001)                   T
(PID.TID 0000.0001)     ;
(PID.TID 0000.0001) momViscosity =  /* Momentum viscosity on/off flag */
(PID.TID 0000.0001)                   T
(PID.TID 0000.0001)     ;
(PID.TID 0000.0001) momImplVertAdv =/* Momentum implicit vert. advection on/off*/
(PID.TID 0000.0001)                   F
(PID.TID 0000.0001)     ;
(PID.TID 0000.0001) implicitViscosity = /* Implicit viscosity on/off flag */
(PID.TID 0000.0001)                   F
(PID.TID 0000.0001)     ;
(PID.TID 0000.0001) useCoriolis =  /* Coriolis on/off flag */
(PID.TID 0000.0001)                   T
(PID.TID 0000.0001)     ;
(PID.TID 0000.0001) useCDscheme =  /* CD scheme on/off flag */
(PID.TID 0000.0001)                   F
(PID.TID 0000.0001)     ;
(PID.TID 0000.0001) useJamartWetPoints= /* Coriolis WetPoints method flag */
(PID.TID 0000.0001)                   F
(PID.TID 0000.0001)     ;
(PID.TID 0000.0001) momForcing =  /* Momentum forcing on/off flag */
(PID.TID 0000.0001)                   T
(PID.TID 0000.0001)     ;
(PID.TID 0000.0001) momPressureForcing =  /* Momentum pressure term on/off flag */
(PID.TID 0000.0001)                   T
(PID.TID 0000.0001)     ;
(PID.TID 0000.0001) staggerTimeStep =   /* Stagger time stepping on/off flag */
(PID.TID 0000.0001)                   F
(PID.TID 0000.0001)     ;
(PID.TID 0000.0001) multiDimAdvection =   /* enable/disable Multi-Dim Advection */
(PID.TID 0000.0001)                   T
(PID.TID 0000.0001)     ;
(PID.TID 0000.0001) implicitDiffusion =/* Implicit Diffusion on/off flag */
(PID.TID 0000.0001)                   T
(PID.TID 0000.0001)     ;
(PID.TID 0000.0001) tempStepping =  /* Temperature equation on/off flag */
(PID.TID 0000.0001)                   T
(PID.TID 0000.0001)     ;
(PID.TID 0000.0001) tempAdvection=  /* Temperature advection on/off flag */
(PID.TID 0000.0001)                   T
(PID.TID 0000.0001)     ;
(PID.TID 0000.0001) tempImplVertAdv =/* Temp. implicit vert. advection on/off */
(PID.TID 0000.0001)                   F
(PID.TID 0000.0001)     ;
(PID.TID 0000.0001) tempForcing  =  /* Temperature forcing on/off flag */
(PID.TID 0000.0001)                   T
(PID.TID 0000.0001)     ;
(PID.TID 0000.0001) saltStepping =  /* Salinity equation on/off flag */
(PID.TID 0000.0001)                   T
(PID.TID 0000.0001)     ;
(PID.TID 0000.0001) saltAdvection=  /* Salinity advection on/off flag */
(PID.TID 0000.0001)                   T
(PID.TID 0000.0001)     ;
(PID.TID 0000.0001) saltImplVertAdv =/* Sali. implicit vert. advection on/off */
(PID.TID 0000.0001)                   F
(PID.TID 0000.0001)     ;
(PID.TID 0000.0001) saltForcing  =  /* Salinity forcing on/off flag */
(PID.TID 0000.0001)                   T
(PID.TID 0000.0001)     ;
(PID.TID 0000.0001) //
(PID.TID 0000.0001) // Elliptic solver(s) paramters ( PARM02 in namelist )
(PID.TID 0000.0001) //
(PID.TID 0000.0001) cg2dMaxIters =   /* Upper limit on 2d con. grad iterations  */
(PID.TID 0000.0001)                     200
(PID.TID 0000.0001)     ;
(PID.TID 0000.0001) cg2dChkResFreq =   /* 2d con. grad convergence test frequency */
(PID.TID 0000.0001)                       1
(PID.TID 0000.0001)     ;
(PID.TID 0000.0001) cg2dTargetResidual =   /* 2d con. grad target residual  */
(PID.TID 0000.0001)                 1.000000000000000E-09
(PID.TID 0000.0001)     ;
(PID.TID 0000.0001) //
(PID.TID 0000.0001) // Time stepping paramters ( PARM03 in namelist )
(PID.TID 0000.0001) //
(PID.TID 0000.0001) nIter0 =   /* Base timestep number  */
(PID.TID 0000.0001)                       0
(PID.TID 0000.0001)     ;
(PID.TID 0000.0001) nTimeSteps =   /* Number of timesteps */
(PID.TID 0000.0001)                      20
(PID.TID 0000.0001)     ;
(PID.TID 0000.0001) deltatTmom =   /* Momentum equation timestep ( s ) */
(PID.TID 0000.0001)                 1.200000000000000E+03
(PID.TID 0000.0001)     ;
(PID.TID 0000.0001) deltaTfreesurf =   /* FreeSurface equation timestep ( s ) */
(PID.TID 0000.0001)                 1.728000000000000E+05
(PID.TID 0000.0001)     ;
(PID.TID 0000.0001) deltatTtracer =   /* Tracer equation timestep ( s ) */
(PID.TID 0000.0001)                 1.728000000000000E+05
(PID.TID 0000.0001)     ;
(PID.TID 0000.0001) deltatTClock  =   /* Model clock timestep ( s ) */
(PID.TID 0000.0001)                 1.728000000000000E+05
(PID.TID 0000.0001)     ;
(PID.TID 0000.0001) cAdjFreq =   /* Convective adjustment interval ( s ) */
(PID.TID 0000.0001)                 0.000000000000000E+00
(PID.TID 0000.0001)     ;
(PID.TID 0000.0001) forcing_In_AB =   /* put T,S Forcing in Adams-Bash. stepping */
(PID.TID 0000.0001)                   T
(PID.TID 0000.0001)     ;
(PID.TID 0000.0001) abeps =   /* Adams-Bashforth stabilizing weight */
(PID.TID 0000.0001)                 1.000000000000000E-01
(PID.TID 0000.0001)     ;
(PID.TID 0000.0001) startTime =   /* Run start time ( s ). */
(PID.TID 0000.0001)                 0.000000000000000E+00
(PID.TID 0000.0001)     ;
(PID.TID 0000.0001) endTime =   /* Integration ending time ( s ). */
(PID.TID 0000.0001)                 3.456000000000000E+06
(PID.TID 0000.0001)     ;
(PID.TID 0000.0001) pChkPtFreq =   /* Permanent restart/checkpoint file interval ( s ). */
(PID.TID 0000.0001)                 3.110400000000000E+09
(PID.TID 0000.0001)     ;
(PID.TID 0000.0001) chkPtFreq =   /* Rolling restart/checkpoint file interval ( s ). */
(PID.TID 0000.0001)                 0.000000000000000E+00
(PID.TID 0000.0001)     ;
(PID.TID 0000.0001) dumpFreq =   /* Model state write out interval ( s ). */
(PID.TID 0000.0001)                 3.110400000000000E+09
(PID.TID 0000.0001)     ;
(PID.TID 0000.0001) externForcingPeriod =   /* forcing period (s) */
(PID.TID 0000.0001)                 2.592000000000000E+06
(PID.TID 0000.0001)     ;
(PID.TID 0000.0001) externForcingCycle =   /* period of the cyle (s). */
(PID.TID 0000.0001)                 3.110400000000000E+07
(PID.TID 0000.0001)     ;
(PID.TID 0000.0001) tauThetaClimRelax =   /* relaxation time scale (s) */
(PID.TID 0000.0001)                 5.184000000000000E+06
(PID.TID 0000.0001)     ;
(PID.TID 0000.0001) tauSaltClimRelax =   /* relaxation time scale (s) */
(PID.TID 0000.0001)                 0.000000000000000E+00
(PID.TID 0000.0001)     ;
(PID.TID 0000.0001) latBandClimRelax =   /* max. Lat. where relaxation */
(PID.TID 0000.0001)                 1.800000000000000E+02
(PID.TID 0000.0001)     ;
(PID.TID 0000.0001) //
(PID.TID 0000.0001) // Gridding paramters ( PARM04 in namelist )
(PID.TID 0000.0001) //
(PID.TID 0000.0001) usingCartesianGrid =   /* Cartesian coordinates flag ( True / False ) */
(PID.TID 0000.0001)                   F
(PID.TID 0000.0001)     ;
(PID.TID 0000.0001) usingSphericalPolarGrid =   /* Spherical coordinates flag ( True / False ) */
(PID.TID 0000.0001)                   T
(PID.TID 0000.0001)     ;
(PID.TID 0000.0001) groundAtK1 =   /* Lower Boundary (ground) at the surface(k=1) ( T / F ) */
(PID.TID 0000.0001)                   T
(PID.TID 0000.0001)     ;
(PID.TID 0000.0001) Ro_SeaLevel =   /* r(1) ( units of r ) */
(PID.TID 0000.0001)                 5.302312256608400E+07
(PID.TID 0000.0001)     ;
(PID.TID 0000.0001) rkFac =   /* minus Vertical index orientation  */
(PID.TID 0000.0001)                 1.000000000000000E+00
(PID.TID 0000.0001)     ;
(PID.TID 0000.0001) horiVertRatio =   /* Ratio on units : Horiz - Vertical */
(PID.TID 0000.0001)                 1.015335000000000E+04
(PID.TID 0000.0001)     ;
(PID.TID 0000.0001) drC =   /* C spacing ( units of r ) */
(PID.TID 0000.0001)                 3.551650360010500E+06,      /* K =  1 */
(PID.TID 0000.0001)                 6.836924580405500E+06,      /* K =  2 */
(PID.TID 0000.0001)                 6.306109225519501E+06,      /* K =  3 */
(PID.TID 0000.0001)                 5.779053338153000E+06,      /* K =  4 */
(PID.TID 0000.0001)                 5.255519350233500E+06,      /* K =  5 */
(PID.TID 0000.0001)                 4.735252734850001E+06,      /* K =  6 */
(PID.TID 0000.0001)                 4.217983340545500E+06,      /* K =  7 */
(PID.TID 0000.0001)                 3.703426779226000E+06,      /* K =  8 */
(PID.TID 0000.0001)                 3.191285859157500E+06,      /* K =  9 */
(PID.TID 0000.0001)                 2.681252055355000E+06,      /* K = 10 */
(PID.TID 0000.0001)                 2.173007010517000E+06,      /* K = 11 */
(PID.TID 0000.0001)                 1.666224060479000E+06,      /* K = 12 */
(PID.TID 0000.0001)                 1.211001777568000E+06,      /* K = 13 */
(PID.TID 0000.0001)                 8.573828878235000E+05,      /* K = 14 */
(PID.TID 0000.0001)                 6.050043594899999E+05       /* K = 15 */
(PID.TID 0000.0001)     ;
(PID.TID 0000.0001) drF =   /* W spacing ( units of r ) */
(PID.TID 0000.0001)                 7.103300720021000E+06,      /* K =  1 */
(PID.TID 0000.0001)                 6.570548440790000E+06,      /* K =  2 */
(PID.TID 0000.0001)                 6.041670010249000E+06,      /* K =  3 */
(PID.TID 0000.0001)                 5.516436666057000E+06,      /* K =  4 */
(PID.TID 0000.0001)                 4.994602034410000E+06,      /* K =  5 */
(PID.TID 0000.0001)                 4.475903435290000E+06,      /* K =  6 */
(PID.TID 0000.0001)                 3.960063245801000E+06,      /* K =  7 */
(PID.TID 0000.0001)                 3.446790312651000E+06,      /* K =  8 */
(PID.TID 0000.0001)                 2.935781405664000E+06,      /* K =  9 */
(PID.TID 0000.0001)                 2.426722705046000E+06,      /* K = 10 */
(PID.TID 0000.0001)                 1.919291315988000E+06,      /* K = 11 */
(PID.TID 0000.0001)                 1.413156804970000E+06,      /* K = 12 */
(PID.TID 0000.0001)                 1.008846750166000E+06,      /* K = 13 */
(PID.TID 0000.0001)                 7.059190254810000E+05,      /* K = 14 */
(PID.TID 0000.0001)                 5.040896934990000E+05       /* K = 15 */
(PID.TID 0000.0001)     ;
(PID.TID 0000.0001) delX =   /* U spacing ( m - cartesian, degrees - spherical ) */
(PID.TID 0000.0001)    90 @  4.000000000000000E+00              /* I =  1: 90 */
(PID.TID 0000.0001)     ;
(PID.TID 0000.0001) delY =   /* V spacing ( m - cartesian, degrees - spherical ) */
(PID.TID 0000.0001)    40 @  4.000000000000000E+00              /* J =  1: 40 */
(PID.TID 0000.0001)     ;
(PID.TID 0000.0001) phiMin =    /* South edge (ignored - cartesian, degrees - spherical ) */
(PID.TID 0000.0001)                -8.000000000000000E+01
(PID.TID 0000.0001)     ;
(PID.TID 0000.0001) thetaMin =    /* West edge ( ignored - cartesian, degrees - spherical ) */
(PID.TID 0000.0001)                 0.000000000000000E+00
(PID.TID 0000.0001)     ;
(PID.TID 0000.0001) rSphere =    /* Radius ( ignored - cartesian, m - spherical ) */
(PID.TID 0000.0001)                 6.370000000000000E+06
(PID.TID 0000.0001)     ;
(PID.TID 0000.0001) xcoord =   /* P-point X coord ( m - cartesian, degrees - spherical ) */
(PID.TID 0000.0001)                 2.000000000000000E+00,      /* I =  1 */
(PID.TID 0000.0001)                 6.000000000000000E+00,      /* I =  2 */
(PID.TID 0000.0001)                 1.000000000000000E+01,      /* I =  3 */
(PID.TID 0000.0001)                 1.400000000000000E+01,      /* I =  4 */
(PID.TID 0000.0001)                 1.800000000000000E+01,      /* I =  5 */
(PID.TID 0000.0001)                 2.200000000000000E+01,      /* I =  6 */
(PID.TID 0000.0001)                 2.600000000000000E+01,      /* I =  7 */
(PID.TID 0000.0001)                 3.000000000000000E+01,      /* I =  8 */
(PID.TID 0000.0001)                 3.400000000000000E+01,      /* I =  9 */
(PID.TID 0000.0001)                 3.800000000000000E+01,      /* I = 10 */
(PID.TID 0000.0001)                 4.200000000000000E+01,      /* I = 11 */
(PID.TID 0000.0001)                 4.600000000000000E+01,      /* I = 12 */
(PID.TID 0000.0001)                 5.000000000000000E+01,      /* I = 13 */
(PID.TID 0000.0001)                 5.400000000000000E+01,      /* I = 14 */
(PID.TID 0000.0001)                 5.800000000000000E+01,      /* I = 15 */
(PID.TID 0000.0001)                 6.200000000000000E+01,      /* I = 16 */
(PID.TID 0000.0001)                 6.600000000000000E+01,      /* I = 17 */
(PID.TID 0000.0001)                 7.000000000000000E+01,      /* I = 18 */
(PID.TID 0000.0001)                 7.400000000000000E+01,      /* I = 19 */
(PID.TID 0000.0001)                 7.800000000000000E+01,      /* I = 20 */
(PID.TID 0000.0001)                 8.200000000000000E+01,      /* I = 21 */
(PID.TID 0000.0001)                 8.600000000000000E+01,      /* I = 22 */
(PID.TID 0000.0001)                 9.000000000000000E+01,      /* I = 23 */
(PID.TID 0000.0001)                 9.400000000000000E+01,      /* I = 24 */
(PID.TID 0000.0001)                 9.800000000000000E+01,      /* I = 25 */
(PID.TID 0000.0001)                 1.020000000000000E+02,      /* I = 26 */
(PID.TID 0000.0001)                 1.060000000000000E+02,      /* I = 27 */
(PID.TID 0000.0001)                 1.100000000000000E+02,      /* I = 28 */
(PID.TID 0000.0001)                 1.140000000000000E+02,      /* I = 29 */
(PID.TID 0000.0001)                 1.180000000000000E+02,      /* I = 30 */
(PID.TID 0000.0001)                 1.220000000000000E+02,      /* I = 31 */
(PID.TID 0000.0001)                 1.260000000000000E+02,      /* I = 32 */
(PID.TID 0000.0001)                 1.300000000000000E+02,      /* I = 33 */
(PID.TID 0000.0001)                 1.340000000000000E+02,      /* I = 34 */
(PID.TID 0000.0001)                 1.380000000000000E+02,      /* I = 35 */
(PID.TID 0000.0001)                 1.420000000000000E+02,      /* I = 36 */
(PID.TID 0000.0001)                 1.460000000000000E+02,      /* I = 37 */
(PID.TID 0000.0001)                 1.500000000000000E+02,      /* I = 38 */
(PID.TID 0000.0001)                 1.540000000000000E+02,      /* I = 39 */
(PID.TID 0000.0001)                 1.580000000000000E+02,      /* I = 40 */
(PID.TID 0000.0001)                 1.620000000000000E+02,      /* I = 41 */
(PID.TID 0000.0001)                 1.660000000000000E+02,      /* I = 42 */
(PID.TID 0000.0001)                 1.700000000000000E+02,      /* I = 43 */
(PID.TID 0000.0001)                 1.740000000000000E+02,      /* I = 44 */
(PID.TID 0000.0001)                 1.780000000000000E+02,      /* I = 45 */
(PID.TID 0000.0001)                 1.820000000000000E+02,      /* I = 46 */
(PID.TID 0000.0001)                 1.860000000000000E+02,      /* I = 47 */
(PID.TID 0000.0001)                 1.900000000000000E+02,      /* I = 48 */
(PID.TID 0000.0001)                 1.940000000000000E+02,      /* I = 49 */
(PID.TID 0000.0001)                 1.980000000000000E+02,      /* I = 50 */
(PID.TID 0000.0001)                 2.020000000000000E+02,      /* I = 51 */
(PID.TID 0000.0001)                 2.060000000000000E+02,      /* I = 52 */
(PID.TID 0000.0001)                 2.100000000000000E+02,      /* I = 53 */
(PID.TID 0000.0001)                 2.140000000000000E+02,      /* I = 54 */
(PID.TID 0000.0001)                 2.180000000000000E+02,      /* I = 55 */
(PID.TID 0000.0001)                 2.220000000000000E+02,      /* I = 56 */
(PID.TID 0000.0001)                 2.260000000000000E+02,      /* I = 57 */
(PID.TID 0000.0001)                 2.300000000000000E+02,      /* I = 58 */
(PID.TID 0000.0001)                 2.340000000000000E+02,      /* I = 59 */
(PID.TID 0000.0001)                 2.380000000000000E+02,      /* I = 60 */
(PID.TID 0000.0001)                 2.420000000000000E+02,      /* I = 61 */
(PID.TID 0000.0001)                 2.460000000000000E+02,      /* I = 62 */
(PID.TID 0000.0001)                 2.500000000000000E+02,      /* I = 63 */
(PID.TID 0000.0001)                 2.540000000000000E+02,      /* I = 64 */
(PID.TID 0000.0001)                 2.580000000000000E+02,      /* I = 65 */
(PID.TID 0000.0001)                 2.620000000000000E+02,      /* I = 66 */
(PID.TID 0000.0001)                 2.660000000000000E+02,      /* I = 67 */
(PID.TID 0000.0001)                 2.700000000000000E+02,      /* I = 68 */
(PID.TID 0000.0001)                 2.740000000000000E+02,      /* I = 69 */
(PID.TID 0000.0001)                 2.780000000000000E+02,      /* I = 70 */
(PID.TID 0000.0001)                 2.820000000000000E+02,      /* I = 71 */
(PID.TID 0000.0001)                 2.860000000000000E+02,      /* I = 72 */
(PID.TID 0000.0001)                 2.900000000000000E+02,      /* I = 73 */
(PID.TID 0000.0001)                 2.940000000000000E+02,      /* I = 74 */
(PID.TID 0000.0001)                 2.980000000000000E+02,      /* I = 75 */
(PID.TID 0000.0001)                 3.020000000000000E+02,      /* I = 76 */
(PID.TID 0000.0001)                 3.060000000000000E+02,      /* I = 77 */
(PID.TID 0000.0001)                 3.100000000000000E+02,      /* I = 78 */
(PID.TID 0000.0001)                 3.140000000000000E+02,      /* I = 79 */
(PID.TID 0000.0001)                 3.180000000000000E+02,      /* I = 80 */
(PID.TID 0000.0001)                 3.220000000000000E+02,      /* I = 81 */
(PID.TID 0000.0001)                 3.260000000000000E+02,      /* I = 82 */
(PID.TID 0000.0001)                 3.300000000000000E+02,      /* I = 83 */
(PID.TID 0000.0001)                 3.340000000000000E+02,      /* I = 84 */
(PID.TID 0000.0001)                 3.380000000000000E+02,      /* I = 85 */
(PID.TID 0000.0001)                 3.420000000000000E+02,      /* I = 86 */
(PID.TID 0000.0001)                 3.460000000000000E+02,      /* I = 87 */
(PID.TID 0000.0001)                 3.500000000000000E+02,      /* I = 88 */
(PID.TID 0000.0001)                 3.540000000000000E+02,      /* I = 89 */
(PID.TID 0000.0001)                 3.580000000000000E+02       /* I = 90 */
(PID.TID 0000.0001)     ;
(PID.TID 0000.0001) ycoord =   /* P-point Y coord ( m - cartesian, degrees - spherical ) */
(PID.TID 0000.0001)                -7.800000000000000E+01,      /* J =  1 */
(PID.TID 0000.0001)                -7.400000000000000E+01,      /* J =  2 */
(PID.TID 0000.0001)                -7.000000000000000E+01,      /* J =  3 */
(PID.TID 0000.0001)                -6.600000000000000E+01,      /* J =  4 */
(PID.TID 0000.0001)                -6.200000000000000E+01,      /* J =  5 */
(PID.TID 0000.0001)                -5.800000000000000E+01,      /* J =  6 */
(PID.TID 0000.0001)                -5.400000000000000E+01,      /* J =  7 */
(PID.TID 0000.0001)                -5.000000000000000E+01,      /* J =  8 */
(PID.TID 0000.0001)                -4.600000000000000E+01,      /* J =  9 */
(PID.TID 0000.0001)                -4.200000000000000E+01,      /* J = 10 */
(PID.TID 0000.0001)                -3.800000000000000E+01,      /* J = 11 */
(PID.TID 0000.0001)                -3.400000000000000E+01,      /* J = 12 */
(PID.TID 0000.0001)                -3.000000000000000E+01,      /* J = 13 */
(PID.TID 0000.0001)                -2.600000000000000E+01,      /* J = 14 */
(PID.TID 0000.0001)                -2.200000000000000E+01,      /* J = 15 */
(PID.TID 0000.0001)                -1.800000000000000E+01,      /* J = 16 */
(PID.TID 0000.0001)                -1.400000000000000E+01,      /* J = 17 */
(PID.TID 0000.0001)                -1.000000000000000E+01,      /* J = 18 */
(PID.TID 0000.0001)                -6.000000000000000E+00,      /* J = 19 */
(PID.TID 0000.0001)                -2.000000000000000E+00,      /* J = 20 */
(PID.TID 0000.0001)                 2.000000000000000E+00,      /* J = 21 */
(PID.TID 0000.0001)                 6.000000000000000E+00,      /* J = 22 */
(PID.TID 0000.0001)                 1.000000000000000E+01,      /* J = 23 */
(PID.TID 0000.0001)                 1.400000000000000E+01,      /* J = 24 */
(PID.TID 0000.0001)                 1.800000000000000E+01,      /* J = 25 */
(PID.TID 0000.0001)                 2.200000000000000E+01,      /* J = 26 */
(PID.TID 0000.0001)                 2.600000000000000E+01,      /* J = 27 */
(PID.TID 0000.0001)                 3.000000000000000E+01,      /* J = 28 */
(PID.TID 0000.0001)                 3.400000000000000E+01,      /* J = 29 */
(PID.TID 0000.0001)                 3.800000000000000E+01,      /* J = 30 */
(PID.TID 0000.0001)                 4.200000000000000E+01,      /* J = 31 */
(PID.TID 0000.0001)                 4.600000000000000E+01,      /* J = 32 */
(PID.TID 0000.0001)                 5.000000000000000E+01,      /* J = 33 */
(PID.TID 0000.0001)                 5.400000000000000E+01,      /* J = 34 */
(PID.TID 0000.0001)                 5.800000000000000E+01,      /* J = 35 */
(PID.TID 0000.0001)                 6.200000000000000E+01,      /* J = 36 */
(PID.TID 0000.0001)                 6.600000000000000E+01,      /* J = 37 */
(PID.TID 0000.0001)                 7.000000000000000E+01,      /* J = 38 */
(PID.TID 0000.0001)                 7.400000000000000E+01,      /* J = 39 */
(PID.TID 0000.0001)                 7.800000000000000E+01       /* J = 40 */
(PID.TID 0000.0001)     ;
(PID.TID 0000.0001) rcoord =   /* P-point R coordinate (  units of r ) */
(PID.TID 0000.0001)                 4.947147220607350E+07,      /* K =  1 */
(PID.TID 0000.0001)                 4.263454762566800E+07,      /* K =  2 */
(PID.TID 0000.0001)                 3.632843840014850E+07,      /* K =  3 */
(PID.TID 0000.0001)                 3.054938506199550E+07,      /* K =  4 */
(PID.TID 0000.0001)                 2.529386571176200E+07,      /* K =  5 */
(PID.TID 0000.0001)                 2.055861297691200E+07,      /* K =  6 */
(PID.TID 0000.0001)                 1.634062963636650E+07,      /* K =  7 */
(PID.TID 0000.0001)                 1.263720285714050E+07,      /* K =  8 */
(PID.TID 0000.0001)                 9.445916997983005E+06,      /* K =  9 */
(PID.TID 0000.0001)                 6.764664942628005E+06,      /* K = 10 */
(PID.TID 0000.0001)                 4.591657932111004E+06,      /* K = 11 */
(PID.TID 0000.0001)                 2.925433871632004E+06,      /* K = 12 */
(PID.TID 0000.0001)                 1.714432094064004E+06,      /* K = 13 */
(PID.TID 0000.0001)                 8.570492062405043E+05,      /* K = 14 */
(PID.TID 0000.0001)                 2.520448467505043E+05       /* K = 15 */
(PID.TID 0000.0001)     ;
(PID.TID 0000.0001) rF =   /* W-Interf. R coordinate (  units of r ) */
(PID.TID 0000.0001)                 5.302312256608400E+07,      /* K =  1 */
(PID.TID 0000.0001)                 4.591982184606300E+07,      /* K =  2 */
(PID.TID 0000.0001)                 3.934927340527300E+07,      /* K =  3 */
(PID.TID 0000.0001)                 3.330760339502400E+07,      /* K =  4 */
(PID.TID 0000.0001)                 2.779116672896700E+07,      /* K =  5 */
(PID.TID 0000.0001)                 2.279656469455700E+07,      /* K =  6 */
(PID.TID 0000.0001)                 1.832066125926699E+07,      /* K =  7 */
(PID.TID 0000.0001)                 1.436059801346599E+07,      /* K =  8 */
(PID.TID 0000.0001)                 1.091380770081500E+07,      /* K =  9 */
(PID.TID 0000.0001)                 7.978026295150995E+06,      /* K = 10 */
(PID.TID 0000.0001)                 5.551303590104995E+06,      /* K = 11 */
(PID.TID 0000.0001)                 3.632012274116995E+06,      /* K = 12 */
(PID.TID 0000.0001)                 2.218855469146995E+06,      /* K = 13 */
(PID.TID 0000.0001)                 1.210008718980995E+06,      /* K = 14 */
(PID.TID 0000.0001)                 5.040896934999955E+05,      /* K = 15 */
(PID.TID 0000.0001)                 9.955256246030331E-07       /* K = 16 */
(PID.TID 0000.0001)     ;
(PID.TID 0000.0001) dxF =  /* dxF(:,1,:,1) ( m - cartesian, degrees - spherical ) */
(PID.TID 0000.0001)    90 @  9.246038586187513E+04              /* I =  1: 90 */
(PID.TID 0000.0001)     ;
(PID.TID 0000.0001) dxF =  /* dxF(1,:,1,:) ( m - cartesian, degrees - spherical ) */
(PID.TID 0000.0001)                 9.246038586187513E+04,      /* J =  1 */
(PID.TID 0000.0001)                 1.225786591246834E+05,      /* J =  2 */
(PID.TID 0000.0001)                 1.520997414818001E+05,      /* J =  3 */
(PID.TID 0000.0001)                 1.808798091874300E+05,      /* J =  4 */
(PID.TID 0000.0001)                 2.087786486446736E+05,      /* J =  5 */
(PID.TID 0000.0001)                 2.356603395120766E+05,      /* J =  6 */
(PID.TID 0000.0001)                 2.613939168938713E+05,      /* J =  7 */
(PID.TID 0000.0001)                 2.858540093877838E+05,      /* J =  8 */
(PID.TID 0000.0001)                 3.089214498819035E+05,      /* J =  9 */
(PID.TID 0000.0001)                 3.304838561248741E+05,      /* J = 10 */
(PID.TID 0000.0001)                 3.504361782409254E+05,      /* J = 11 */
(PID.TID 0000.0001)                 3.686812105223083E+05,      /* J = 12 */
(PID.TID 0000.0001)                 3.851300650057322E+05,      /* J = 13 */
(PID.TID 0000.0001)                 3.997026045255871E+05,      /* J = 14 */
(PID.TID 0000.0001)                 4.123278331341585E+05,      /* J = 15 */
(PID.TID 0000.0001)                 4.229442419867491E+05,      /* J = 16 */
(PID.TID 0000.0001)                 4.315001090065869E+05,      /* J = 17 */
(PID.TID 0000.0001)                 4.379537508695839E+05,      /* J = 18 */
(PID.TID 0000.0001)                 4.422737260813013E+05,      /* J = 19 */
(PID.TID 0000.0001)     2 @  4.444389881567501E+05,             /* J = 20: 21 */
(PID.TID 0000.0001)                 4.422737260813013E+05,      /* J = 22 */
(PID.TID 0000.0001)                 4.379537508695839E+05,      /* J = 23 */
(PID.TID 0000.0001)                 4.315001090065869E+05,      /* J = 24 */
(PID.TID 0000.0001)                 4.229442419867491E+05,      /* J = 25 */
(PID.TID 0000.0001)                 4.123278331341585E+05,      /* J = 26 */
(PID.TID 0000.0001)                 3.997026045255871E+05,      /* J = 27 */
(PID.TID 0000.0001)                 3.851300650057322E+05,      /* J = 28 */
(PID.TID 0000.0001)                 3.686812105223083E+05,      /* J = 29 */
(PID.TID 0000.0001)                 3.504361782409254E+05,      /* J = 30 */
(PID.TID 0000.0001)                 3.304838561248741E+05,      /* J = 31 */
(PID.TID 0000.0001)                 3.089214498819035E+05,      /* J = 32 */
(PID.TID 0000.0001)                 2.858540093877838E+05,      /* J = 33 */
(PID.TID 0000.0001)                 2.613939168938713E+05,      /* J = 34 */
(PID.TID 0000.0001)                 2.356603395120766E+05,      /* J = 35 */
(PID.TID 0000.0001)                 2.087786486446736E+05,      /* J = 36 */
(PID.TID 0000.0001)                 1.808798091874300E+05,      /* J = 37 */
(PID.TID 0000.0001)                 1.520997414818001E+05,      /* J = 38 */
(PID.TID 0000.0001)                 1.225786591246834E+05,      /* J = 39 */
(PID.TID 0000.0001)                 9.246038586187513E+04       /* J = 40 */
(PID.TID 0000.0001)     ;
(PID.TID 0000.0001) dyF =  /* dyF(:,1,:,1) ( m - cartesian, degrees - spherical ) */
(PID.TID 0000.0001)    90 @  4.447098934081552E+05              /* I =  1: 90 */
(PID.TID 0000.0001)     ;
(PID.TID 0000.0001) dyF =  /* dyF(1,:,1,:) ( m - cartesian, degrees - spherical ) */
(PID.TID 0000.0001)    40 @  4.447098934081552E+05              /* J =  1: 40 */
(PID.TID 0000.0001)     ;
(PID.TID 0000.0001) dxG =  /* dxG(:,1,:,1) ( m - cartesian, degrees - spherical ) */
(PID.TID 0000.0001)    90 @  7.722306258078101E+04              /* I =  1: 90 */
(PID.TID 0000.0001)     ;
(PID.TID 0000.0001) dxG =  /* dxG(1,:,1,:) ( m - cartesian, degrees - spherical ) */
(PID.TID 0000.0001)                 7.722306258078101E+04,      /* J =  1 */
(PID.TID 0000.0001)                 1.075850604052271E+05,      /* J =  2 */
(PID.TID 0000.0001)                 1.374229146297914E+05,      /* J =  3 */
(PID.TID 0000.0001)                 1.665912582279823E+05,      /* J =  4 */
(PID.TID 0000.0001)                 1.949479859617814E+05,      /* J =  5 */
(PID.TID 0000.0001)                 2.223549467040776E+05,      /* J =  6 */
(PID.TID 0000.0001)                 2.486786164970726E+05,      /* J =  7 */
(PID.TID 0000.0001)                 2.737907490675810E+05,      /* J =  8 */
(PID.TID 0000.0001)                 2.975690006299820E+05,      /* J =  9 */
(PID.TID 0000.0001)                 3.198975259328452E+05,      /* J = 10 */
(PID.TID 0000.0001)                 3.406675426453503E+05,      /* J = 11 */
(PID.TID 0000.0001)                 3.597778613338689E+05,      /* J = 12 */
(PID.TID 0000.0001)                 3.771353784467131E+05,      /* J = 13 */
(PID.TID 0000.0001)                 3.926555299052806E+05,      /* J = 14 */
(PID.TID 0000.0001)                 4.062627030917454E+05,      /* J = 15 */
(PID.TID 0000.0001)                 4.178906052261313E+05,      /* J = 16 */
(PID.TID 0000.0001)                 4.274825863380723E+05,      /* J = 17 */
(PID.TID 0000.0001)                 4.349919152597734E+05,      /* J = 18 */
(PID.TID 0000.0001)                 4.403820072955634E+05,      /* J = 19 */
(PID.TID 0000.0001)                 4.436266024588540E+05,      /* J = 20 */
(PID.TID 0000.0001)                 4.447098934081552E+05,      /* J = 21 */
(PID.TID 0000.0001)                 4.436266024588540E+05,      /* J = 22 */
(PID.TID 0000.0001)                 4.403820072955634E+05,      /* J = 23 */
(PID.TID 0000.0001)                 4.349919152597734E+05,      /* J = 24 */
(PID.TID 0000.0001)                 4.274825863380723E+05,      /* J = 25 */
(PID.TID 0000.0001)                 4.178906052261313E+05,      /* J = 26 */
(PID.TID 0000.0001)                 4.062627030917454E+05,      /* J = 27 */
(PID.TID 0000.0001)                 3.926555299052806E+05,      /* J = 28 */
(PID.TID 0000.0001)                 3.771353784467131E+05,      /* J = 29 */
(PID.TID 0000.0001)                 3.597778613338689E+05,      /* J = 30 */
(PID.TID 0000.0001)                 3.406675426453503E+05,      /* J = 31 */
(PID.TID 0000.0001)                 3.198975259328452E+05,      /* J = 32 */
(PID.TID 0000.0001)                 2.975690006299820E+05,      /* J = 33 */
(PID.TID 0000.0001)                 2.737907490675810E+05,      /* J = 34 */
(PID.TID 0000.0001)                 2.486786164970726E+05,      /* J = 35 */
(PID.TID 0000.0001)                 2.223549467040776E+05,      /* J = 36 */
(PID.TID 0000.0001)                 1.949479859617814E+05,      /* J = 37 */
(PID.TID 0000.0001)                 1.665912582279823E+05,      /* J = 38 */
(PID.TID 0000.0001)                 1.374229146297914E+05,      /* J = 39 */
(PID.TID 0000.0001)                 1.075850604052271E+05       /* J = 40 */
(PID.TID 0000.0001)     ;
(PID.TID 0000.0001) dyG =  /* dyG(:,1,:,1) ( m - cartesian, degrees - spherical ) */
(PID.TID 0000.0001)    90 @  4.447098934081552E+05              /* I =  1: 90 */
(PID.TID 0000.0001)     ;
(PID.TID 0000.0001) dyG =  /* dyG(1,:,1,:) ( m - cartesian, degrees - spherical ) */
(PID.TID 0000.0001)    40 @  4.447098934081552E+05              /* J =  1: 40 */
(PID.TID 0000.0001)     ;
(PID.TID 0000.0001) dxC =  /* dxC(:,1,:,1) ( m - cartesian, degrees - spherical ) */
(PID.TID 0000.0001)    90 @  9.246038586187513E+04              /* I =  1: 90 */
(PID.TID 0000.0001)     ;
(PID.TID 0000.0001) dxC =  /* dxC(1,:,1,:) ( m - cartesian, degrees - spherical ) */
(PID.TID 0000.0001)                 9.246038586187513E+04,      /* J =  1 */
(PID.TID 0000.0001)                 1.225786591246834E+05,      /* J =  2 */
(PID.TID 0000.0001)                 1.520997414818001E+05,      /* J =  3 */
(PID.TID 0000.0001)                 1.808798091874300E+05,      /* J =  4 */
(PID.TID 0000.0001)                 2.087786486446736E+05,      /* J =  5 */
(PID.TID 0000.0001)                 2.356603395120766E+05,      /* J =  6 */
(PID.TID 0000.0001)                 2.613939168938713E+05,      /* J =  7 */
(PID.TID 0000.0001)                 2.858540093877838E+05,      /* J =  8 */
(PID.TID 0000.0001)                 3.089214498819035E+05,      /* J =  9 */
(PID.TID 0000.0001)                 3.304838561248741E+05,      /* J = 10 */
(PID.TID 0000.0001)                 3.504361782409254E+05,      /* J = 11 */
(PID.TID 0000.0001)                 3.686812105223083E+05,      /* J = 12 */
(PID.TID 0000.0001)                 3.851300650057322E+05,      /* J = 13 */
(PID.TID 0000.0001)                 3.997026045255871E+05,      /* J = 14 */
(PID.TID 0000.0001)                 4.123278331341585E+05,      /* J = 15 */
(PID.TID 0000.0001)                 4.229442419867491E+05,      /* J = 16 */
(PID.TID 0000.0001)                 4.315001090065869E+05,      /* J = 17 */
(PID.TID 0000.0001)                 4.379537508695839E+05,      /* J = 18 */
(PID.TID 0000.0001)                 4.422737260813013E+05,      /* J = 19 */
(PID.TID 0000.0001)     2 @  4.444389881567501E+05,             /* J = 20: 21 */
(PID.TID 0000.0001)                 4.422737260813013E+05,      /* J = 22 */
(PID.TID 0000.0001)                 4.379537508695839E+05,      /* J = 23 */
(PID.TID 0000.0001)                 4.315001090065869E+05,      /* J = 24 */
(PID.TID 0000.0001)                 4.229442419867491E+05,      /* J = 25 */
(PID.TID 0000.0001)                 4.123278331341585E+05,      /* J = 26 */
(PID.TID 0000.0001)                 3.997026045255871E+05,      /* J = 27 */
(PID.TID 0000.0001)                 3.851300650057322E+05,      /* J = 28 */
(PID.TID 0000.0001)                 3.686812105223083E+05,      /* J = 29 */
(PID.TID 0000.0001)                 3.504361782409254E+05,      /* J = 30 */
(PID.TID 0000.0001)                 3.304838561248741E+05,      /* J = 31 */
(PID.TID 0000.0001)                 3.089214498819035E+05,      /* J = 32 */
(PID.TID 0000.0001)                 2.858540093877838E+05,      /* J = 33 */
(PID.TID 0000.0001)                 2.613939168938713E+05,      /* J = 34 */
(PID.TID 0000.0001)                 2.356603395120766E+05,      /* J = 35 */
(PID.TID 0000.0001)                 2.087786486446736E+05,      /* J = 36 */
(PID.TID 0000.0001)                 1.808798091874300E+05,      /* J = 37 */
(PID.TID 0000.0001)                 1.520997414818001E+05,      /* J = 38 */
(PID.TID 0000.0001)                 1.225786591246834E+05,      /* J = 39 */
(PID.TID 0000.0001)                 9.246038586187513E+04       /* J = 40 */
(PID.TID 0000.0001)     ;
(PID.TID 0000.0001) dyC =  /* dyC(:,1,:,1) ( m - cartesian, degrees - spherical ) */
(PID.TID 0000.0001)    90 @  4.447098934081552E+05              /* I =  1: 90 */
(PID.TID 0000.0001)     ;
(PID.TID 0000.0001) dyC =  /* dyC(1,:,1,:) ( m - cartesian, degrees - spherical ) */
(PID.TID 0000.0001)    40 @  4.447098934081552E+05              /* J =  1: 40 */
(PID.TID 0000.0001)     ;
(PID.TID 0000.0001) dxV =  /* dxV(:,1,:,1) ( m - cartesian, degrees - spherical ) */
(PID.TID 0000.0001)    90 @  7.722306258078101E+04              /* I =  1: 90 */
(PID.TID 0000.0001)     ;
(PID.TID 0000.0001) dxV =  /* dxV(1,:,1,:) ( m - cartesian, degrees - spherical ) */
(PID.TID 0000.0001)                 7.722306258078101E+04,      /* J =  1 */
(PID.TID 0000.0001)                 1.075850604052271E+05,      /* J =  2 */
(PID.TID 0000.0001)                 1.374229146297914E+05,      /* J =  3 */
(PID.TID 0000.0001)                 1.665912582279823E+05,      /* J =  4 */
(PID.TID 0000.0001)                 1.949479859617814E+05,      /* J =  5 */
(PID.TID 0000.0001)                 2.223549467040776E+05,      /* J =  6 */
(PID.TID 0000.0001)                 2.486786164970726E+05,      /* J =  7 */
(PID.TID 0000.0001)                 2.737907490675810E+05,      /* J =  8 */
(PID.TID 0000.0001)                 2.975690006299820E+05,      /* J =  9 */
(PID.TID 0000.0001)                 3.198975259328452E+05,      /* J = 10 */
(PID.TID 0000.0001)                 3.406675426453503E+05,      /* J = 11 */
(PID.TID 0000.0001)                 3.597778613338689E+05,      /* J = 12 */
(PID.TID 0000.0001)                 3.771353784467131E+05,      /* J = 13 */
(PID.TID 0000.0001)                 3.926555299052806E+05,      /* J = 14 */
(PID.TID 0000.0001)                 4.062627030917454E+05,      /* J = 15 */
(PID.TID 0000.0001)                 4.178906052261313E+05,      /* J = 16 */
(PID.TID 0000.0001)                 4.274825863380723E+05,      /* J = 17 */
(PID.TID 0000.0001)                 4.349919152597734E+05,      /* J = 18 */
(PID.TID 0000.0001)                 4.403820072955634E+05,      /* J = 19 */
(PID.TID 0000.0001)                 4.436266024588540E+05,      /* J = 20 */
(PID.TID 0000.0001)                 4.447098934081552E+05,      /* J = 21 */
(PID.TID 0000.0001)                 4.436266024588540E+05,      /* J = 22 */
(PID.TID 0000.0001)                 4.403820072955634E+05,      /* J = 23 */
(PID.TID 0000.0001)                 4.349919152597734E+05,      /* J = 24 */
(PID.TID 0000.0001)                 4.274825863380723E+05,      /* J = 25 */
(PID.TID 0000.0001)                 4.178906052261313E+05,      /* J = 26 */
(PID.TID 0000.0001)                 4.062627030917454E+05,      /* J = 27 */
(PID.TID 0000.0001)                 3.926555299052806E+05,      /* J = 28 */
(PID.TID 0000.0001)                 3.771353784467131E+05,      /* J = 29 */
(PID.TID 0000.0001)                 3.597778613338689E+05,      /* J = 30 */
(PID.TID 0000.0001)                 3.406675426453503E+05,      /* J = 31 */
(PID.TID 0000.0001)                 3.198975259328452E+05,      /* J = 32 */
(PID.TID 0000.0001)                 2.975690006299820E+05,      /* J = 33 */
(PID.TID 0000.0001)                 2.737907490675810E+05,      /* J = 34 */
(PID.TID 0000.0001)                 2.486786164970726E+05,      /* J = 35 */
(PID.TID 0000.0001)                 2.223549467040776E+05,      /* J = 36 */
(PID.TID 0000.0001)                 1.949479859617814E+05,      /* J = 37 */
(PID.TID 0000.0001)                 1.665912582279823E+05,      /* J = 38 */
(PID.TID 0000.0001)                 1.374229146297914E+05,      /* J = 39 */
(PID.TID 0000.0001)                 1.075850604052271E+05       /* J = 40 */
(PID.TID 0000.0001)     ;
(PID.TID 0000.0001) dyU =  /* dyU(:,1,:,1) ( m - cartesian, degrees - spherical ) */
(PID.TID 0000.0001)    90 @  4.447098934081552E+05              /* I =  1: 90 */
(PID.TID 0000.0001)     ;
(PID.TID 0000.0001) dyU =  /* dyU(1,:,1,:) ( m - cartesian, degrees - spherical ) */
(PID.TID 0000.0001)    40 @  4.447098934081552E+05              /* J =  1: 40 */
(PID.TID 0000.0001)     ;
(PID.TID 0000.0001) rA =  /* rA(:,1,:,1) ( m - cartesian, degrees - spherical ) */
(PID.TID 0000.0001)    90 @  4.110969866729054E+10              /* I =  1: 90 */
(PID.TID 0000.0001)     ;
(PID.TID 0000.0001) rA =  /* rA(1,:,1,:) ( m - cartesian, degrees - spherical ) */
(PID.TID 0000.0001)                 4.110969866729054E+10,      /* J =  1 */
(PID.TID 0000.0001)                 5.450087291636668E+10,      /* J =  2 */
(PID.TID 0000.0001)                 6.762652439100243E+10,      /* J =  3 */
(PID.TID 0000.0001)                 8.042270623659999E+10,      /* J =  4 */
(PID.TID 0000.0001)                 9.282707674147508E+10,      /* J =  5 */
(PID.TID 0000.0001)                 1.047792030594103E+11,      /* J =  6 */
(PID.TID 0000.0001)                 1.162208556324092E+11,      /* J =  7 */
(PID.TID 0000.0001)                 1.270962918792467E+11,      /* J =  8 */
(PID.TID 0000.0001)                 1.373525277677230E+11,      /* J =  9 */
(PID.TID 0000.0001)                 1.469395959475425E+11,      /* J = 10 */
(PID.TID 0000.0001)                 1.558107891862221E+11,      /* J = 11 */
(PID.TID 0000.0001)                 1.639228879220325E+11,      /* J = 12 */
(PID.TID 0000.0001)                 1.712363708253575E+11,      /* J = 13 */
(PID.TID 0000.0001)                 1.777156073426414E+11,      /* J = 14 */
(PID.TID 0000.0001)                 1.833290312848624E+11,      /* J = 15 */
(PID.TID 0000.0001)                 1.880492946148330E+11,      /* J = 16 */
(PID.TID 0000.0001)                 1.918534006840893E+11,      /* J = 17 */
(PID.TID 0000.0001)                 1.947228162702492E+11,      /* J = 18 */
(PID.TID 0000.0001)                 1.966435618690094E+11,      /* J = 19 */
(PID.TID 0000.0001)                 1.976062798008855E+11,      /* J = 20 */
(PID.TID 0000.0001)                 1.976062798008856E+11,      /* J = 21 */
(PID.TID 0000.0001)                 1.966435618690094E+11,      /* J = 22 */
(PID.TID 0000.0001)                 1.947228162702492E+11,      /* J = 23 */
(PID.TID 0000.0001)                 1.918534006840893E+11,      /* J = 24 */
(PID.TID 0000.0001)                 1.880492946148330E+11,      /* J = 25 */
(PID.TID 0000.0001)                 1.833290312848623E+11,      /* J = 26 */
(PID.TID 0000.0001)                 1.777156073426414E+11,      /* J = 27 */
(PID.TID 0000.0001)                 1.712363708253574E+11,      /* J = 28 */
(PID.TID 0000.0001)                 1.639228879220325E+11,      /* J = 29 */
(PID.TID 0000.0001)                 1.558107891862220E+11,      /* J = 30 */
(PID.TID 0000.0001)                 1.469395959475424E+11,      /* J = 31 */
(PID.TID 0000.0001)                 1.373525277677230E+11,      /* J = 32 */
(PID.TID 0000.0001)                 1.270962918792467E+11,      /* J = 33 */
(PID.TID 0000.0001)                 1.162208556324095E+11,      /* J = 34 */
(PID.TID 0000.0001)                 1.047792030594104E+11,      /* J = 35 */
(PID.TID 0000.0001)                 9.282707674147527E+10,      /* J = 36 */
(PID.TID 0000.0001)                 8.042270623660011E+10,      /* J = 37 */
(PID.TID 0000.0001)                 6.762652439100233E+10,      /* J = 38 */
(PID.TID 0000.0001)                 5.450087291636658E+10,      /* J = 39 */
(PID.TID 0000.0001)                 4.110969866729044E+10       /* J = 40 */
(PID.TID 0000.0001)     ;
(PID.TID 0000.0001) rAw =  /* rAw(:,1,:,1) ( m - cartesian, degrees - spherical ) */
(PID.TID 0000.0001)    90 @  4.110969866729054E+10              /* I =  1: 90 */
(PID.TID 0000.0001)     ;
(PID.TID 0000.0001) rAw =  /* rAw(1,:,1,:) ( m - cartesian, degrees - spherical ) */
(PID.TID 0000.0001)                 4.110969866729054E+10,      /* J =  1 */
(PID.TID 0000.0001)                 5.450087291636668E+10,      /* J =  2 */
(PID.TID 0000.0001)                 6.762652439100243E+10,      /* J =  3 */
(PID.TID 0000.0001)                 8.042270623659999E+10,      /* J =  4 */
(PID.TID 0000.0001)                 9.282707674147508E+10,      /* J =  5 */
(PID.TID 0000.0001)                 1.047792030594103E+11,      /* J =  6 */
(PID.TID 0000.0001)                 1.162208556324092E+11,      /* J =  7 */
(PID.TID 0000.0001)                 1.270962918792467E+11,      /* J =  8 */
(PID.TID 0000.0001)                 1.373525277677230E+11,      /* J =  9 */
(PID.TID 0000.0001)                 1.469395959475425E+11,      /* J = 10 */
(PID.TID 0000.0001)                 1.558107891862221E+11,      /* J = 11 */
(PID.TID 0000.0001)                 1.639228879220325E+11,      /* J = 12 */
(PID.TID 0000.0001)                 1.712363708253575E+11,      /* J = 13 */
(PID.TID 0000.0001)                 1.777156073426414E+11,      /* J = 14 */
(PID.TID 0000.0001)                 1.833290312848624E+11,      /* J = 15 */
(PID.TID 0000.0001)                 1.880492946148330E+11,      /* J = 16 */
(PID.TID 0000.0001)                 1.918534006840893E+11,      /* J = 17 */
(PID.TID 0000.0001)                 1.947228162702492E+11,      /* J = 18 */
(PID.TID 0000.0001)                 1.966435618690094E+11,      /* J = 19 */
(PID.TID 0000.0001)                 1.976062798008855E+11,      /* J = 20 */
(PID.TID 0000.0001)                 1.976062798008856E+11,      /* J = 21 */
(PID.TID 0000.0001)                 1.966435618690094E+11,      /* J = 22 */
(PID.TID 0000.0001)                 1.947228162702492E+11,      /* J = 23 */
(PID.TID 0000.0001)                 1.918534006840893E+11,      /* J = 24 */
(PID.TID 0000.0001)                 1.880492946148330E+11,      /* J = 25 */
(PID.TID 0000.0001)                 1.833290312848623E+11,      /* J = 26 */
(PID.TID 0000.0001)                 1.777156073426414E+11,      /* J = 27 */
(PID.TID 0000.0001)                 1.712363708253574E+11,      /* J = 28 */
(PID.TID 0000.0001)                 1.639228879220325E+11,      /* J = 29 */
(PID.TID 0000.0001)                 1.558107891862220E+11,      /* J = 30 */
(PID.TID 0000.0001)                 1.469395959475424E+11,      /* J = 31 */
(PID.TID 0000.0001)                 1.373525277677230E+11,      /* J = 32 */
(PID.TID 0000.0001)                 1.270962918792467E+11,      /* J = 33 */
(PID.TID 0000.0001)                 1.162208556324095E+11,      /* J = 34 */
(PID.TID 0000.0001)                 1.047792030594104E+11,      /* J = 35 */
(PID.TID 0000.0001)                 9.282707674147527E+10,      /* J = 36 */
(PID.TID 0000.0001)                 8.042270623660011E+10,      /* J = 37 */
(PID.TID 0000.0001)                 6.762652439100233E+10,      /* J = 38 */
(PID.TID 0000.0001)                 5.450087291636658E+10,      /* J = 39 */
(PID.TID 0000.0001)                 4.110969866729044E+10       /* J = 40 */
(PID.TID 0000.0001)     ;
(PID.TID 0000.0001) rAs =  /* rAs(:,1,:,1) ( m - cartesian, degrees - spherical ) */
(PID.TID 0000.0001)    90 @  3.433488626798236E+10              /* I =  1: 90 */
(PID.TID 0000.0001)     ;
(PID.TID 0000.0001) rAs =  /* rAs(1,:,1,:) ( m - cartesian, degrees - spherical ) */
(PID.TID 0000.0001)                 3.433488626798236E+10,      /* J =  1 */
(PID.TID 0000.0001)                 4.783442523123635E+10,      /* J =  2 */
(PID.TID 0000.0001)                 6.110091968306405E+10,      /* J =  3 */
(PID.TID 0000.0001)                 7.406973659603827E+10,      /* J =  4 */
(PID.TID 0000.0001)                 8.667769319778091E+10,      /* J =  5 */
(PID.TID 0000.0001)                 9.886336479107472E+10,      /* J =  6 */
(PID.TID 0000.0001)                 1.105673840088174E+11,      /* J =  7 */
(PID.TID 0000.0001)                 1.217327300458637E+11,      /* J =  8 */
(PID.TID 0000.0001)                 1.323050064586579E+11,      /* J =  9 */
(PID.TID 0000.0001)                 1.422327061792379E+11,      /* J = 10 */
(PID.TID 0000.0001)                 1.514674624524945E+11,      /* J = 11 */
(PID.TID 0000.0001)                 1.599642844741385E+11,      /* J = 12 */
(PID.TID 0000.0001)                 1.676817765813787E+11,      /* J = 13 */
(PID.TID 0000.0001)                 1.745823399284268E+11,      /* J = 14 */
(PID.TID 0000.0001)                 1.806323556642997E+11,      /* J = 15 */
(PID.TID 0000.0001)                 1.858023487204767E+11,      /* J = 16 */
(PID.TID 0000.0001)                 1.900671314104744E+11,      /* J = 17 */
(PID.TID 0000.0001)                 1.934059261417216E+11,      /* J = 18 */
(PID.TID 0000.0001)                 1.958024666419019E+11,      /* J = 19 */
(PID.TID 0000.0001)                 1.972450772065981E+11,      /* J = 20 */
(PID.TID 0000.0001)                 1.977267295821495E+11,      /* J = 21 */
(PID.TID 0000.0001)                 1.972450772065981E+11,      /* J = 22 */
(PID.TID 0000.0001)                 1.958024666419019E+11,      /* J = 23 */
(PID.TID 0000.0001)                 1.934059261417216E+11,      /* J = 24 */
(PID.TID 0000.0001)                 1.900671314104744E+11,      /* J = 25 */
(PID.TID 0000.0001)                 1.858023487204767E+11,      /* J = 26 */
(PID.TID 0000.0001)                 1.806323556642997E+11,      /* J = 27 */
(PID.TID 0000.0001)                 1.745823399284267E+11,      /* J = 28 */
(PID.TID 0000.0001)                 1.676817765813788E+11,      /* J = 29 */
(PID.TID 0000.0001)                 1.599642844741386E+11,      /* J = 30 */
(PID.TID 0000.0001)                 1.514674624524945E+11,      /* J = 31 */
(PID.TID 0000.0001)                 1.422327061792377E+11,      /* J = 32 */
(PID.TID 0000.0001)                 1.323050064586577E+11,      /* J = 33 */
(PID.TID 0000.0001)                 1.217327300458638E+11,      /* J = 34 */
(PID.TID 0000.0001)                 1.105673840088174E+11,      /* J = 35 */
(PID.TID 0000.0001)                 9.886336479107451E+10,      /* J = 36 */
(PID.TID 0000.0001)                 8.667769319778070E+10,      /* J = 37 */
(PID.TID 0000.0001)                 7.406973659603806E+10,      /* J = 38 */
(PID.TID 0000.0001)                 6.110091968306404E+10,      /* J = 39 */
(PID.TID 0000.0001)                 4.783442523123634E+10       /* J = 40 */
(PID.TID 0000.0001)     ;
(PID.TID 0000.0001) 
(PID.TID 0000.0001)  MDSREADFIELD: opening global file: lev_t.bin
(PID.TID 0000.0001) // =======================================================
(PID.TID 0000.0001) // Field Initial Temperature at iteration          1
(PID.TID 0000.0001) // CMIN =         -8.538625820175458E-01
(PID.TID 0000.0001) // CMAX =          2.012045717433744E+00
(PID.TID 0000.0001) // CINT =          1.061447518315292E-01
(PID.TID 0000.0001) // SYMBOLS (CMIN->CMAX): -abcdefghijklmnopqrstuvwxyz+
(PID.TID 0000.0001) //                  0.0: .
(PID.TID 0000.0001) // RANGE I (Lo:Hi:Step):(   1:  90:   1)
(PID.TID 0000.0001) // RANGE J (Lo:Hi:Step):(  40:   1:  -1)
(PID.TID 0000.0001) // RANGE K (Lo:Hi:Step):(   1:   1:   1)
(PID.TID 0000.0001) // =======================================================
(PID.TID 0000.0001) K =   1
(PID.TID 0000.0001)                I=10      I=20      I=30      I=40      I=50      I=60      I=70      I=80      I=90
(PID.TID 0000.0001) |--J--|123456789|123456789|123456789|123456789|123456789|123456789|123456789|123456789|123456789|
(PID.TID 0000.0001)     40 ..........................................................................................
(PID.TID 0000.0001)     39 ..........................................................................................
(PID.TID 0000.0001)     38 ..........................................................................................
(PID.TID 0000.0001)     37 ..........................................................................................
(PID.TID 0000.0001)     36 ..........................................................................................
(PID.TID 0000.0001)     35 ..........................................................................................
(PID.TID 0000.0001)     34 ..........................................................................................
(PID.TID 0000.0001)     33 .......................................rrr.rrrrrrsss......................................
(PID.TID 0000.0001)     32 ......................................rrrr.rrrrssssss.....................................
(PID.TID 0000.0001)     31 ....................................rrrrrr.rrrrssssss......................yy.............
(PID.TID 0000.0001)     30 ....................................rrrr.rr.rrsssssssssss................yyyy.............
(PID.TID 0000.0001)     29 ...................................rrrr.rrr...rssrsrrssss...............yy.yyy.....++.....
(PID.TID 0000.0001)     28 ...................................rrrrrrrrrrrrrrrrrrr..................yyyxxx.....++.....
(PID.TID 0000.0001)     27 .....................................rrrrrrrr.r...rrr...................yyxxxx..zzzz+.....
(PID.TID 0000.0001)     26 ...............................tss..rrrrrrrrrrr....rrrrrr...............yyyxxx..zzzz......
(PID.TID 0000.0001)     25 ...............................stt..rrr..rq.....qrrrrqqqq.................www...zz........
(PID.TID 0000.0001)     24 ...............................tt...rrrrrqqqqqqqqqqqqqq.........................zzzz......
(PID.TID 0000.0001)     23 ....................................rrrr...qqqqq.qrrqrr.........................yzzz......
(PID.TID 0000.0001)     22 ...........................................qppppp..r.rr...................................
(PID.TID 0000.0001)     21 ...........................................pppppp.......................................yz
(PID.TID 0000.0001)     20 ............................................ppppppp...............................llp...zz
(PID.TID 0000.0001)     19 zz................qqq.......................pppp.pppp.............................lll.....
(PID.TID 0000.0001)     18 zz................qqq....oo.o.....................qpq.............................lll....z
(PID.TID 0000.0001)     17 zz................qqq.ooooooo.....................qp..............................lll....z
(PID.TID 0000.0001)     16 ++.................qq.oooooo...................nno................................llm....+
(PID.TID 0000.0001)     15 +......................noooo..................nnno................................llm....+
(PID.TID 0000.0001)     14 +...........nnn........nn.o...................nnnooo..............................mmm....+
(PID.TID 0000.0001)     13 .oo.........nnn...........oo..................nnnnnnoo....................................
(PID.TID 0000.0001)     12 nmm.......................nn..mmm.............ooooooooo...................................
(PID.TID 0000.0001)     11 oon.ll........ii...........mmmmmmmm...........n.noooooooo....................ggfgg........
(PID.TID 0000.0001)     10 on..l.hi......ii..............lmmmm.............mnnoooooo...................hhgggg........
(PID.TID 0000.0001)      9 .....ggg......................................nmmmmnnnnnn...................hhgggg........
(PID.TID 0000.0001)      8 .....fe......................................mmmmmm............................ff.........
(PID.TID 0000.0001)      7 .......bb...cc.............................llmmmm.................iii.....................
(PID.TID 0000.0001)      6 -aaaaabbbbbbccc............................lllm.............hhi.i.iii....................-
(PID.TID 0000.0001)      5 ---aaaaaaaaabbb...........................................hhhhhhhh.h.................-----
(PID.TID 0000.0001)      4 ..-aaaaa..................................................hhhhhhh....................----a
(PID.TID 0000.0001)      3 ..........................................................................................
(PID.TID 0000.0001)      2 ..........................................................................................
(PID.TID 0000.0001)      1 ..........................................................................................
(PID.TID 0000.0001) // =======================================================
(PID.TID 0000.0001) // END OF FIELD                                          =
(PID.TID 0000.0001) // =======================================================
(PID.TID 0000.0001) 
(PID.TID 0000.0001)  MDSREADFIELD: opening global file: lev_s.bin
(PID.TID 0000.0001) // =======================================================
(PID.TID 0000.0001) // Field Initial Salinity at iteration          1
(PID.TID 0000.0001) // CMIN =          3.464784170881562E+01
(PID.TID 0000.0001) // CMAX =          3.490372370636981E+01
(PID.TID 0000.0001) // CINT =          9.477111020525586E-03
(PID.TID 0000.0001) // SYMBOLS (CMIN->CMAX): -abcdefghijklmnopqrstuvwxyz+
(PID.TID 0000.0001) //                  0.0: .
(PID.TID 0000.0001) // RANGE I (Lo:Hi:Step):(   1:  90:   1)
(PID.TID 0000.0001) // RANGE J (Lo:Hi:Step):(  40:   1:  -1)
(PID.TID 0000.0001) // RANGE K (Lo:Hi:Step):(   1:   1:   1)
(PID.TID 0000.0001) // =======================================================
(PID.TID 0000.0001) K =   1
(PID.TID 0000.0001)                I=10      I=20      I=30      I=40      I=50      I=60      I=70      I=80      I=90
(PID.TID 0000.0001) |--J--|123456789|123456789|123456789|123456789|123456789|123456789|123456789|123456789|123456789|
(PID.TID 0000.0001)     40 ..........................................................................................
(PID.TID 0000.0001)     39 ..........................................................................................
(PID.TID 0000.0001)     38 ..........................................................................................
(PID.TID 0000.0001)     37 ..........................................................................................
(PID.TID 0000.0001)     36 ..........................................................................................
(PID.TID 0000.0001)     35 ..........................................................................................
(PID.TID 0000.0001)     34 ..........................................................................................
(PID.TID 0000.0001)     33 .......................................ddd.ddeeeeddd......................................
(PID.TID 0000.0001)     32 ......................................dddd.dddddddddd.....................................
(PID.TID 0000.0001)     31 ....................................edddde.eeedddddde......................+z.............
(PID.TID 0000.0001)     30 ....................................eefe.ee.eddddddddddee................+++z.............
(PID.TID 0000.0001)     29 ...................................ddee.dee...dddddeddddd...............++.zyy.....yz.....
(PID.TID 0000.0001)     28 ...................................cceebdeeeeeeddddded..................zzzyxx.....zz.....
(PID.TID 0000.0001)     27 .....................................deddeedd.e...dde...................zyyxxx..zzyzz.....
(PID.TID 0000.0001)     26 ...............................ddd..feeeeeeedef....eeeeee...............yzywww..z+zz......
(PID.TID 0000.0001)     25 ...............................ddc..edd..fe.....eeffffeee.................wwv...++........
(PID.TID 0000.0001)     24 ...............................dd...ddeffffeffefeeffeee.........................yyyz......
(PID.TID 0000.0001)     23 ....................................eded...effff.dffeee.........................yyzz......
(PID.TID 0000.0001)     22 ...........................................efffff..e.ee...................................
(PID.TID 0000.0001)     21 ...........................................fffgff.......................................yx
(PID.TID 0000.0001)     20 ............................................fghgffg...............................hin...xx
(PID.TID 0000.0001)     19 xy................ggf.......................fggg.ffff.............................iii.....
(PID.TID 0000.0001)     18 yy................cdd....gh.h.....................fff.............................ihh....y
(PID.TID 0000.0001)     17 yy................ddf.gggghhh.....................ff..............................ijj....y
(PID.TID 0000.0001)     16 yy.................fh.gggggi...................gff................................hii....y
(PID.TID 0000.0001)     15 y......................fgggh..................gggg................................gii....y
(PID.TID 0000.0001)     14 y...........ggg........gg.g...................gggggg..............................ijj....y
(PID.TID 0000.0001)     13 .ii.........ggg...........gg..................gggggfgg....................................
(PID.TID 0000.0001)     12 hhh.......................gg..ggg.............gggggfggg...................................
(PID.TID 0000.0001)     11 ggg.gf........dd...........hggggggg...........f.fggffffgg....................ccbcc........
(PID.TID 0000.0001)     10 gg..f.de......dd..............hgggg.............gfgggfggg...................edcccb........
(PID.TID 0000.0001)      9 .....ccd......................................fffffgggffg...................ccccbb........
(PID.TID 0000.0001)      8 .....cc......................................ffffff............................bb.........
(PID.TID 0000.0001)      7 .......bb...bb.............................efffff.................fff.....................
(PID.TID 0000.0001)      6 ---aaaaaaaabbbb............................efff.............fff.f.fff....................-
(PID.TID 0000.0001)      5 ---aaabaaaaaaaa...........................................ffgfffgf.f.................-----
(PID.TID 0000.0001)      4 ..-aabba..................................................fffffff....................-----
(PID.TID 0000.0001)      3 ..........................................................................................
(PID.TID 0000.0001)      2 ..........................................................................................
(PID.TID 0000.0001)      1 ..........................................................................................
(PID.TID 0000.0001) // =======================================================
(PID.TID 0000.0001) // END OF FIELD                                          =
(PID.TID 0000.0001) // =======================================================
(PID.TID 0000.0001) 
(PID.TID 0000.0001) Start initial hydrostatic pressure computation
(PID.TID 0000.0001) Pressure is predetermined for buoyancyRelation OCEANICP
(PID.TID 0000.0001) 
(PID.TID 0000.0001)  MDSREADFIELD: opening global file: trenberth_taux.bin
(PID.TID 0000.0001)  MDSREADFIELD: opening global file: trenberth_tauy.bin
(PID.TID 0000.0001)  MDSREADFIELD: opening global file: shi_qnet.bin
(PID.TID 0000.0001)  MDSREADFIELD: opening global file: shi_empmr.bin
(PID.TID 0000.0001)  MDSREADFIELD: opening global file: lev_sst.bin
(PID.TID 0000.0001)  MDSREADFIELD: opening global file: deltageopotjmd95.bin
(PID.TID 0000.0001) // =======================================================
(PID.TID 0000.0001) // Model current state
(PID.TID 0000.0001) // =======================================================
(PID.TID 0000.0001) 
(PID.TID 0000.0001) // =======================================================
(PID.TID 0000.0001) // Begin MONITOR dynamic field statistics
(PID.TID 0000.0001) // =======================================================
(PID.TID 0000.0001) %MON time_tsnumber                =                     0
(PID.TID 0000.0001) %MON time_secondsf                =   0.0000000000000E+00
(PID.TID 0000.0001) %MON dynstat_eta_max              =   0.0000000000000E+00
(PID.TID 0000.0001) %MON dynstat_eta_min              =   0.0000000000000E+00
(PID.TID 0000.0001) %MON dynstat_eta_mean             =   0.0000000000000E+00
(PID.TID 0000.0001) %MON dynstat_eta_sd               =   0.0000000000000E+00
(PID.TID 0000.0001) %MON dynstat_eta_del2             =   0.0000000000000E+00
(PID.TID 0000.0001) %MON dynstat_uvel_max             =   0.0000000000000E+00
(PID.TID 0000.0001) %MON dynstat_uvel_min             =   0.0000000000000E+00
(PID.TID 0000.0001) %MON dynstat_uvel_mean            =   0.0000000000000E+00
(PID.TID 0000.0001) %MON dynstat_uvel_sd              =   0.0000000000000E+00
(PID.TID 0000.0001) %MON dynstat_uvel_del2            =   0.0000000000000E+00
(PID.TID 0000.0001) %MON dynstat_vvel_max             =   0.0000000000000E+00
(PID.TID 0000.0001) %MON dynstat_vvel_min             =   0.0000000000000E+00
(PID.TID 0000.0001) %MON dynstat_vvel_mean            =   0.0000000000000E+00
(PID.TID 0000.0001) %MON dynstat_vvel_sd              =   0.0000000000000E+00
(PID.TID 0000.0001) %MON dynstat_vvel_del2            =   0.0000000000000E+00
(PID.TID 0000.0001) %MON dynstat_wvel_max             =   0.0000000000000E+00
(PID.TID 0000.0001) %MON dynstat_wvel_min             =   0.0000000000000E+00
(PID.TID 0000.0001) %MON dynstat_wvel_mean            =   0.0000000000000E+00
(PID.TID 0000.0001) %MON dynstat_wvel_sd              =   0.0000000000000E+00
(PID.TID 0000.0001) %MON dynstat_wvel_del2            =   0.0000000000000E+00
(PID.TID 0000.0001) %MON dynstat_theta_max            =   2.9733511003948E+01
(PID.TID 0000.0001) %MON dynstat_theta_min            =  -2.6263839329562E+00
(PID.TID 0000.0001) %MON dynstat_theta_mean           =   3.6018664655652E+00
(PID.TID 0000.0001) %MON dynstat_theta_sd             =   4.4018845380979E+00
(PID.TID 0000.0001) %MON dynstat_theta_del2           =   1.5429255071065E-01
(PID.TID 0000.0001) %MON dynstat_salt_max             =   3.7475629659304E+01
(PID.TID 0000.0001) %MON dynstat_salt_min             =   2.9752769471420E+01
(PID.TID 0000.0001) %MON dynstat_salt_mean            =   3.4718001015836E+01
(PID.TID 0000.0001) %MON dynstat_salt_sd              =   2.9462524950603E-01
(PID.TID 0000.0001) %MON dynstat_salt_del2            =   2.6846692931047E-02
(PID.TID 0000.0001) %MON advcfl_uvel_max              =   0.0000000000000E+00
(PID.TID 0000.0001) %MON advcfl_vvel_max              =   0.0000000000000E+00
(PID.TID 0000.0001) %MON advcfl_wvel_max              =   0.0000000000000E+00
(PID.TID 0000.0001) %MON advcfl_W_hf_max              =   0.0000000000000E+00
(PID.TID 0000.0001) %MON pe_b_mean                    =   0.0000000000000E+00
(PID.TID 0000.0001) %MON ke_max                       =   0.0000000000000E+00
(PID.TID 0000.0001) %MON ke_mean                      =   0.0000000000000E+00
(PID.TID 0000.0001) %MON ke_vol                       =   1.3442141716555E+22
(PID.TID 0000.0001) %MON vort_r_min                   =   0.0000000000000E+00
(PID.TID 0000.0001) %MON vort_r_max                   =   0.0000000000000E+00
(PID.TID 0000.0001) %MON vort_a_mean                  =  -2.4531015880769E-05
(PID.TID 0000.0001) %MON vort_a_sd                    =   7.3436042941019E-05
(PID.TID 0000.0001) %MON vort_p_mean                  =  -2.9390264918854E-05
(PID.TID 0000.0001) %MON vort_p_sd                    =   1.0331963168452E-04
(PID.TID 0000.0001) %MON surfExpan_theta_mean         =   0.0000000000000E+00
(PID.TID 0000.0001) %MON surfExpan_salt_mean          =   0.0000000000000E+00
(PID.TID 0000.0001) // =======================================================
(PID.TID 0000.0001) // End MONITOR dynamic field statistics
(PID.TID 0000.0001) // =======================================================
 S/R EXTERNAL_FIELDS_LOAD: Reading new data  0. 0
(PID.TID 0000.0001)  MDSREADFIELD: opening global file: trenberth_taux.bin
(PID.TID 0000.0001)  MDSREADFIELD: opening global file: trenberth_taux.bin
(PID.TID 0000.0001)  MDSREADFIELD: opening global file: trenberth_tauy.bin
(PID.TID 0000.0001)  MDSREADFIELD: opening global file: trenberth_tauy.bin
(PID.TID 0000.0001)  MDSREADFIELD: opening global file: shi_qnet.bin
(PID.TID 0000.0001)  MDSREADFIELD: opening global file: shi_qnet.bin
(PID.TID 0000.0001)  MDSREADFIELD: opening global file: shi_empmr.bin
(PID.TID 0000.0001)  MDSREADFIELD: opening global file: shi_empmr.bin
(PID.TID 0000.0001)  MDSREADFIELD: opening global file: lev_sst.bin
(PID.TID 0000.0001)  MDSREADFIELD: opening global file: lev_sst.bin
(PID.TID 0000.0001)  MDSREADFIELD: opening global file: deltageopotjmd95.bin
(PID.TID 0000.0001)  MDSREADFIELD: opening global file: deltageopotjmd95.bin
time,SST,SSS,fu,fv,Q,E-P,i0,i1,a,b =   0.0000E+00  1.1337E-01  0.0000E+00 -4.0176E-02 -6.3320E-02  1.7257E+02 -2.0964E-09    12     1  5.3333E-01  4.6667E-01
time,fu0,fu1,fu =   0.0000E+00 -4.5368E-02 -3.5633E-02 -4.0176E-02  5.3333E-01  4.6667E-01
 cg2d: Sum(rhs),rhsMax =   4.85722573273506E-16  1.71163423876591E+02
(PID.TID 0000.0001)                    cg2d_init_res =    9.36692222671517E+00
(PID.TID 0000.0001)                       cg2d_iters =   107
(PID.TID 0000.0001)                         cg2d_res =    9.63057839210792E-10
(PID.TID 0000.0001) // =======================================================
(PID.TID 0000.0001) // Begin MONITOR dynamic field statistics
(PID.TID 0000.0001) // =======================================================
(PID.TID 0000.0001) %MON time_tsnumber                =                     1
(PID.TID 0000.0001) %MON time_secondsf                =   1.7280000000000E+05
(PID.TID 0000.0001) %MON dynstat_eta_max              =   4.1657165020824E+04
(PID.TID 0000.0001) %MON dynstat_eta_min              =  -8.8276375956761E+04
(PID.TID 0000.0001) %MON dynstat_eta_mean             =  -8.0935828149637E-14
(PID.TID 0000.0001) %MON dynstat_eta_sd               =   3.6901405584725E+04
(PID.TID 0000.0001) %MON dynstat_eta_del2             =   2.3562066944369E+04
(PID.TID 0000.0001) %MON dynstat_uvel_max             =   3.5125732017451E-02
(PID.TID 0000.0001) %MON dynstat_uvel_min             =  -3.5357446912040E-02
(PID.TID 0000.0001) %MON dynstat_uvel_mean            =  -8.4137049442001E-04
(PID.TID 0000.0001) %MON dynstat_uvel_sd              =   2.2142813851380E-03
(PID.TID 0000.0001) %MON dynstat_uvel_del2            =   7.7406251871371E-04
(PID.TID 0000.0001) %MON dynstat_vvel_max             =   3.5008027831034E-02
(PID.TID 0000.0001) %MON dynstat_vvel_min             =  -2.4496078806589E-02
(PID.TID 0000.0001) %MON dynstat_vvel_mean            =   1.0871907722555E-03
(PID.TID 0000.0001) %MON dynstat_vvel_sd              =   2.2888132759184E-03
(PID.TID 0000.0001) %MON dynstat_vvel_del2            =   7.6102756372939E-04
(PID.TID 0000.0001) %MON dynstat_wvel_max             =   5.0250186481040E-01
(PID.TID 0000.0001) %MON dynstat_wvel_min             =  -6.2689460614527E-01
(PID.TID 0000.0001) %MON dynstat_wvel_mean            =  -6.6718508441640E-03
(PID.TID 0000.0001) %MON dynstat_wvel_sd              =   1.5353628629539E-01
(PID.TID 0000.0001) %MON dynstat_wvel_del2            =   6.1610670030928E-02
(PID.TID 0000.0001) %MON dynstat_theta_max            =   2.9713265304180E+01
(PID.TID 0000.0001) %MON dynstat_theta_min            =  -2.6183664565810E+00
(PID.TID 0000.0001) %MON dynstat_theta_mean           =   3.6019910573989E+00
(PID.TID 0000.0001) %MON dynstat_theta_sd             =   4.4015315967483E+00
(PID.TID 0000.0001) %MON dynstat_theta_del2           =   1.5479567598383E-01
(PID.TID 0000.0001) %MON dynstat_salt_max             =   3.7478618521905E+01
(PID.TID 0000.0001) %MON dynstat_salt_min             =   2.9762213911218E+01
(PID.TID 0000.0001) %MON dynstat_salt_mean            =   3.4718001015835E+01
(PID.TID 0000.0001) %MON dynstat_salt_sd              =   2.9451022507207E-01
(PID.TID 0000.0001) %MON dynstat_salt_del2            =   2.6959492538962E-02
(PID.TID 0000.0001) %MON advcfl_uvel_max              =   2.1969228355722E-02
(PID.TID 0000.0001) %MON advcfl_vvel_max              =   1.3602996692611E-02
(PID.TID 0000.0001) %MON advcfl_wvel_max              =   4.1333629360711E-02
(PID.TID 0000.0001) %MON advcfl_W_hf_max              =   4.1333629360710E-02
(PID.TID 0000.0001) %MON pe_b_mean                    =  -6.4369790121839E-03
(PID.TID 0000.0001) %MON ke_max                       =   5.7559085137897E-04
(PID.TID 0000.0001) %MON ke_mean                      =   5.4209038534728E-06
(PID.TID 0000.0001) %MON ke_vol                       =   1.3442141716555E+22
(PID.TID 0000.0001) %MON vort_r_min                   =  -1.1938224035749E-07
(PID.TID 0000.0001) %MON vort_r_max                   =   1.5595002978092E-07
(PID.TID 0000.0001) %MON vort_a_mean                  =  -2.4531015891588E-05
(PID.TID 0000.0001) %MON vort_a_sd                    =   7.3435845880052E-05
(PID.TID 0000.0001) %MON vort_p_mean                  =  -2.9390264931816E-05
(PID.TID 0000.0001) %MON vort_p_sd                    =   1.0331909362888E-04
(PID.TID 0000.0001) %MON surfExpan_theta_mean         =   6.7340147146042E-02
(PID.TID 0000.0001) %MON surfExpan_salt_mean          =  -2.2622015400323E-04
(PID.TID 0000.0001) // =======================================================
(PID.TID 0000.0001) // End MONITOR dynamic field statistics
(PID.TID 0000.0001) // =======================================================
time,SST,SSS,fu,fv,Q,E-P,i0,i1,a,b =   1.7280E+05  2.3410E-01  0.0000E+00 -3.9527E-02 -6.2453E-02  1.6404E+02 -2.0964E-09    12     1  6.0000E-01  4.0000E-01
time,fu0,fu1,fu =   1.7280E+05 -4.5368E-02 -3.5633E-02 -3.9527E-02  6.0000E-01  4.0000E-01
 cg2d: Sum(rhs),rhsMax =   2.94209101525666E-15  1.74491047479738E+02
(PID.TID 0000.0001)                    cg2d_init_res =    2.47708172279513E-01
(PID.TID 0000.0001)                       cg2d_iters =   100
(PID.TID 0000.0001)                         cg2d_res =    8.69452889435396E-10
(PID.TID 0000.0001) // =======================================================
(PID.TID 0000.0001) // Begin MONITOR dynamic field statistics
(PID.TID 0000.0001) // =======================================================
(PID.TID 0000.0001) %MON time_tsnumber                =                     2
(PID.TID 0000.0001) %MON time_secondsf                =   3.4560000000000E+05
(PID.TID 0000.0001) %MON dynstat_eta_max              =   4.8801003935148E+04
(PID.TID 0000.0001) %MON dynstat_eta_min              =  -8.9519125012624E+04
(PID.TID 0000.0001) %MON dynstat_eta_mean             =   9.5241560290036E-13
(PID.TID 0000.0001) %MON dynstat_eta_sd               =   3.9643961847771E+04
(PID.TID 0000.0001) %MON dynstat_eta_del2             =   2.4287467918833E+04
(PID.TID 0000.0001) %MON dynstat_uvel_max             =   6.3634222922679E-02
(PID.TID 0000.0001) %MON dynstat_uvel_min             =  -4.0770527965875E-02
(PID.TID 0000.0001) %MON dynstat_uvel_mean            =  -1.1816102449752E-03
(PID.TID 0000.0001) %MON dynstat_uvel_sd              =   2.2777926493051E-03
(PID.TID 0000.0001) %MON dynstat_uvel_del2            =   8.3222316084319E-04
(PID.TID 0000.0001) %MON dynstat_vvel_max             =   5.2235073509046E-02
(PID.TID 0000.0001) %MON dynstat_vvel_min             =  -3.0675681745593E-02
(PID.TID 0000.0001) %MON dynstat_vvel_mean            =   1.5483556713287E-03
(PID.TID 0000.0001) %MON dynstat_vvel_sd              =   2.9966041351363E-03
(PID.TID 0000.0001) %MON dynstat_vvel_del2            =   9.0390644547169E-04
(PID.TID 0000.0001) %MON dynstat_wvel_max             =   6.3728869238344E-01
(PID.TID 0000.0001) %MON dynstat_wvel_min             =  -7.8830959081477E-01
(PID.TID 0000.0001) %MON dynstat_wvel_mean            =  -3.3033341293978E-03
(PID.TID 0000.0001) %MON dynstat_wvel_sd              =   8.9420032131624E-02
(PID.TID 0000.0001) %MON dynstat_wvel_del2            =   4.6781541393183E-02
(PID.TID 0000.0001) %MON dynstat_theta_max            =   2.9688317749558E+01
(PID.TID 0000.0001) %MON dynstat_theta_min            =  -2.6127583359216E+00
(PID.TID 0000.0001) %MON dynstat_theta_mean           =   3.6019450086209E+00
(PID.TID 0000.0001) %MON dynstat_theta_sd             =   4.4012662190687E+00
(PID.TID 0000.0001) %MON dynstat_theta_del2           =   1.5406689430966E-01
(PID.TID 0000.0001) %MON dynstat_salt_max             =   3.7481694673619E+01
(PID.TID 0000.0001) %MON dynstat_salt_min             =   2.9765580136839E+01
(PID.TID 0000.0001) %MON dynstat_salt_mean            =   3.4718001573791E+01
(PID.TID 0000.0001) %MON dynstat_salt_sd              =   2.9441685774618E-01
(PID.TID 0000.0001) %MON dynstat_salt_del2            =   2.7040206794804E-02
(PID.TID 0000.0001) %MON advcfl_uvel_max              =   3.3744577226829E-02
(PID.TID 0000.0001) %MON advcfl_vvel_max              =   2.0296874065896E-02
(PID.TID 0000.0001) %MON advcfl_wvel_max              =   5.3361721740677E-02
(PID.TID 0000.0001) %MON advcfl_W_hf_max              =   5.3361721740677E-02
(PID.TID 0000.0001) %MON pe_b_mean                    =  -7.1801699538538E-03
(PID.TID 0000.0001) %MON ke_max                       =   1.7108501652507E-03
(PID.TID 0000.0001) %MON ke_mean                      =   8.0817995004352E-06
(PID.TID 0000.0001) %MON ke_vol                       =   1.3442141716555E+22
(PID.TID 0000.0001) %MON vort_r_min                   =  -1.7583725407496E-07
(PID.TID 0000.0001) %MON vort_r_max                   =   1.8567143777433E-07
(PID.TID 0000.0001) %MON vort_a_mean                  =  -2.4531016005855E-05
(PID.TID 0000.0001) %MON vort_a_sd                    =   7.3435759247753E-05
(PID.TID 0000.0001) %MON vort_p_mean                  =  -2.9399877552700E-05
(PID.TID 0000.0001) %MON vort_p_sd                    =   1.0336783841402E-04
(PID.TID 0000.0001) %MON surfExpan_theta_mean         =   3.6681877092933E-02
(PID.TID 0000.0001) %MON surfExpan_salt_mean          =  -9.6953799357668E-05
(PID.TID 0000.0001) // =======================================================
(PID.TID 0000.0001) // End MONITOR dynamic field statistics
(PID.TID 0000.0001) // =======================================================
time,SST,SSS,fu,fv,Q,E-P,i0,i1,a,b =   3.4560E+05  3.5483E-01  0.0000E+00 -3.8878E-02 -6.1587E-02  1.5550E+02 -2.0964E-09    12     1  6.6667E-01  3.3333E-01
time,fu0,fu1,fu =   3.4560E+05 -4.5368E-02 -3.5633E-02 -3.8878E-02  6.6667E-01  3.3333E-01
 cg2d: Sum(rhs),rhsMax =  -3.74700270810990E-16  1.72945928711722E+02
(PID.TID 0000.0001)                    cg2d_init_res =    1.06014926367086E-01
(PID.TID 0000.0001)                       cg2d_iters =    99
(PID.TID 0000.0001)                         cg2d_res =    8.15177193619526E-10
(PID.TID 0000.0001) // =======================================================
(PID.TID 0000.0001) // Begin MONITOR dynamic field statistics
(PID.TID 0000.0001) // =======================================================
(PID.TID 0000.0001) %MON time_tsnumber                =                     3
(PID.TID 0000.0001) %MON time_secondsf                =   5.1840000000000E+05
(PID.TID 0000.0001) %MON dynstat_eta_max              =   5.1297753286323E+04
(PID.TID 0000.0001) %MON dynstat_eta_min              =  -9.1295481037451E+04
(PID.TID 0000.0001) %MON dynstat_eta_mean             =  -3.3545309251465E-12
(PID.TID 0000.0001) %MON dynstat_eta_sd               =   3.9696774459890E+04
(PID.TID 0000.0001) %MON dynstat_eta_del2             =   2.3981509310588E+04
(PID.TID 0000.0001) %MON dynstat_uvel_max             =   7.1974517618097E-02
(PID.TID 0000.0001) %MON dynstat_uvel_min             =  -5.1968821885669E-02
(PID.TID 0000.0001) %MON dynstat_uvel_mean            =  -1.1614093869737E-03
(PID.TID 0000.0001) %MON dynstat_uvel_sd              =   2.7063575042036E-03
(PID.TID 0000.0001) %MON dynstat_uvel_del2            =   1.1074016787261E-03
(PID.TID 0000.0001) %MON dynstat_vvel_max             =   5.4077395959112E-02
(PID.TID 0000.0001) %MON dynstat_vvel_min             =  -4.5486543243163E-02
(PID.TID 0000.0001) %MON dynstat_vvel_mean            =   1.5247168504973E-03
(PID.TID 0000.0001) %MON dynstat_vvel_sd              =   4.1663366888732E-03
(PID.TID 0000.0001) %MON dynstat_vvel_del2            =   1.2424151003544E-03
(PID.TID 0000.0001) %MON dynstat_wvel_max             =   8.8862456021135E-01
(PID.TID 0000.0001) %MON dynstat_wvel_min             =  -1.0818412022359E+00
(PID.TID 0000.0001) %MON dynstat_wvel_mean            =  -1.5498459949708E-03
(PID.TID 0000.0001) %MON dynstat_wvel_sd              =   1.2224222012355E-01
(PID.TID 0000.0001) %MON dynstat_wvel_del2            =   6.2569737891994E-02
(PID.TID 0000.0001) %MON dynstat_theta_max            =   2.9675051403739E+01
(PID.TID 0000.0001) %MON dynstat_theta_min            =  -2.6038579342234E+00
(PID.TID 0000.0001) %MON dynstat_theta_mean           =   3.6021604296627E+00
(PID.TID 0000.0001) %MON dynstat_theta_sd             =   4.4012819003184E+00
(PID.TID 0000.0001) %MON dynstat_theta_del2           =   1.5212462216103E-01
(PID.TID 0000.0001) %MON dynstat_salt_max             =   3.7435160943017E+01
(PID.TID 0000.0001) %MON dynstat_salt_min             =   2.9770563574354E+01
(PID.TID 0000.0001) %MON dynstat_salt_mean            =   3.4718001226692E+01
(PID.TID 0000.0001) %MON dynstat_salt_sd              =   2.9442255048470E-01
(PID.TID 0000.0001) %MON dynstat_salt_del2            =   2.6913038679664E-02
(PID.TID 0000.0001) %MON advcfl_uvel_max              =   4.2013947592142E-02
(PID.TID 0000.0001) %MON advcfl_vvel_max              =   2.1012741475392E-02
(PID.TID 0000.0001) %MON advcfl_wvel_max              =   6.7819188088447E-02
(PID.TID 0000.0001) %MON advcfl_W_hf_max              =   6.7819188088447E-02
(PID.TID 0000.0001) %MON pe_b_mean                    =  -8.1526783132165E-03
(PID.TID 0000.0001) %MON ke_max                       =   2.0313786999838E-03
(PID.TID 0000.0001) %MON ke_mean                      =   1.2750686470966E-05
(PID.TID 0000.0001) %MON ke_vol                       =   1.3442141716555E+22
(PID.TID 0000.0001) %MON vort_r_min                   =  -2.0971588093838E-07
(PID.TID 0000.0001) %MON vort_r_max                   =   2.3823144416449E-07
(PID.TID 0000.0001) %MON vort_a_mean                  =  -2.4531016156362E-05
(PID.TID 0000.0001) %MON vort_a_sd                    =   7.3435757775055E-05
(PID.TID 0000.0001) %MON vort_p_mean                  =  -2.9400606306569E-05
(PID.TID 0000.0001) %MON vort_p_sd                    =   1.0337416740282E-04
(PID.TID 0000.0001) %MON surfExpan_theta_mean         =   1.7624275980042E-02
(PID.TID 0000.0001) %MON surfExpan_salt_mean          =  -2.8926312783342E-04
(PID.TID 0000.0001) // =======================================================
(PID.TID 0000.0001) // End MONITOR dynamic field statistics
(PID.TID 0000.0001) // =======================================================
time,SST,SSS,fu,fv,Q,E-P,i0,i1,a,b =   5.1840E+05  4.7556E-01  0.0000E+00 -3.8229E-02 -6.0721E-02  1.4696E+02 -2.0964E-09    12     1  7.3333E-01  2.6667E-01
time,fu0,fu1,fu =   5.1840E+05 -4.5368E-02 -3.5633E-02 -3.8229E-02  7.3333E-01  2.6667E-01
 cg2d: Sum(rhs),rhsMax =   8.60422844084496E-16  1.72905618116674E+02
(PID.TID 0000.0001)                    cg2d_init_res =    8.88323940786358E-03
(PID.TID 0000.0001)                       cg2d_iters =    91
(PID.TID 0000.0001)                         cg2d_res =    9.15902666808829E-10
(PID.TID 0000.0001) // =======================================================
(PID.TID 0000.0001) // Begin MONITOR dynamic field statistics
(PID.TID 0000.0001) // =======================================================
(PID.TID 0000.0001) %MON time_tsnumber                =                     4
(PID.TID 0000.0001) %MON time_secondsf                =   6.9120000000000E+05
(PID.TID 0000.0001) %MON dynstat_eta_max              =   5.1013832711300E+04
(PID.TID 0000.0001) %MON dynstat_eta_min              =  -9.2901638103973E+04
(PID.TID 0000.0001) %MON dynstat_eta_mean             =   1.7450068601368E-12
(PID.TID 0000.0001) %MON dynstat_eta_sd               =   4.0207170733603E+04
(PID.TID 0000.0001) %MON dynstat_eta_del2             =   2.3955142833888E+04
(PID.TID 0000.0001) %MON dynstat_uvel_max             =   6.1609535493572E-02
(PID.TID 0000.0001) %MON dynstat_uvel_min             =  -7.8157091684445E-02
(PID.TID 0000.0001) %MON dynstat_uvel_mean            =  -8.8769617921485E-04
(PID.TID 0000.0001) %MON dynstat_uvel_sd              =   3.1026057403466E-03
(PID.TID 0000.0001) %MON dynstat_uvel_del2            =   1.3422797063558E-03
(PID.TID 0000.0001) %MON dynstat_vvel_max             =   5.0830165347174E-02
(PID.TID 0000.0001) %MON dynstat_vvel_min             =  -5.9423759582665E-02
(PID.TID 0000.0001) %MON dynstat_vvel_mean            =   1.2053479226724E-03
(PID.TID 0000.0001) %MON dynstat_vvel_sd              =   5.2716610575655E-03
(PID.TID 0000.0001) %MON dynstat_vvel_del2            =   1.5552159995445E-03
(PID.TID 0000.0001) %MON dynstat_wvel_max             =   1.1534444350596E+00
(PID.TID 0000.0001) %MON dynstat_wvel_min             =  -1.3278287843375E+00
(PID.TID 0000.0001) %MON dynstat_wvel_mean            =  -9.7457886737209E-04
(PID.TID 0000.0001) %MON dynstat_wvel_sd              =   1.4928687949953E-01
(PID.TID 0000.0001) %MON dynstat_wvel_del2            =   7.3883507898299E-02
(PID.TID 0000.0001) %MON dynstat_theta_max            =   2.9664831878906E+01
(PID.TID 0000.0001) %MON dynstat_theta_min            =  -2.5955295786819E+00
(PID.TID 0000.0001) %MON dynstat_theta_mean           =   3.6023453974624E+00
(PID.TID 0000.0001) %MON dynstat_theta_sd             =   4.4013280688693E+00
(PID.TID 0000.0001) %MON dynstat_theta_del2           =   1.4997265829746E-01
(PID.TID 0000.0001) %MON dynstat_salt_max             =   3.7435137772577E+01
(PID.TID 0000.0001) %MON dynstat_salt_min             =   2.9775143547744E+01
(PID.TID 0000.0001) %MON dynstat_salt_mean            =   3.4718001734934E+01
(PID.TID 0000.0001) %MON dynstat_salt_sd              =   2.9441625376916E-01
(PID.TID 0000.0001) %MON dynstat_salt_del2            =   2.6758708237996E-02
(PID.TID 0000.0001) %MON advcfl_uvel_max              =   4.9444188242542E-02
(PID.TID 0000.0001) %MON advcfl_vvel_max              =   2.3090166888777E-02
(PID.TID 0000.0001) %MON advcfl_wvel_max              =   8.2187501691764E-02
(PID.TID 0000.0001) %MON advcfl_W_hf_max              =   8.2187501691764E-02
(PID.TID 0000.0001) %MON pe_b_mean                    =  -8.3977546154485E-03
(PID.TID 0000.0001) %MON ke_max                       =   2.4116842654642E-03
(PID.TID 0000.0001) %MON ke_mean                      =   1.7824362706865E-05
(PID.TID 0000.0001) %MON ke_vol                       =   1.3442141716555E+22
(PID.TID 0000.0001) %MON vort_r_min                   =  -2.2419309848524E-07
(PID.TID 0000.0001) %MON vort_r_max                   =   2.8406279934541E-07
(PID.TID 0000.0001) %MON vort_a_mean                  =  -2.4531016293402E-05
(PID.TID 0000.0001) %MON vort_a_sd                    =   7.3435817992285E-05
(PID.TID 0000.0001) %MON vort_p_mean                  =  -2.9400708520647E-05
(PID.TID 0000.0001) %MON vort_p_sd                    =   1.0337649615541E-04
(PID.TID 0000.0001) %MON surfExpan_theta_mean         =   1.0062359859406E-02
(PID.TID 0000.0001) %MON surfExpan_salt_mean          =  -2.3718668973315E-04
(PID.TID 0000.0001) // =======================================================
(PID.TID 0000.0001) // End MONITOR dynamic field statistics
(PID.TID 0000.0001) // =======================================================
time,SST,SSS,fu,fv,Q,E-P,i0,i1,a,b =   6.9120E+05  5.9629E-01  0.0000E+00 -3.7580E-02 -5.9855E-02  1.3842E+02 -2.0964E-09    12     1  8.0000E-01  2.0000E-01
time,fu0,fu1,fu =   6.9120E+05 -4.5368E-02 -3.5633E-02 -3.7580E-02  8.0000E-01  2.0000E-01
 cg2d: Sum(rhs),rhsMax =  -2.76167977375508E-15  1.72918685742058E+02
(PID.TID 0000.0001)                    cg2d_init_res =    4.68680989914414E-03
(PID.TID 0000.0001)                       cg2d_iters =    94
(PID.TID 0000.0001)                         cg2d_res =    9.71861530149826E-10
(PID.TID 0000.0001) // =======================================================
(PID.TID 0000.0001) // Begin MONITOR dynamic field statistics
(PID.TID 0000.0001) // =======================================================
(PID.TID 0000.0001) %MON time_tsnumber                =                     5
(PID.TID 0000.0001) %MON time_secondsf                =   8.6400000000000E+05
(PID.TID 0000.0001) %MON dynstat_eta_max              =   5.8773429950977E+04
(PID.TID 0000.0001) %MON dynstat_eta_min              =  -9.4342806697877E+04
(PID.TID 0000.0001) %MON dynstat_eta_mean             =   1.3186321269259E-11
(PID.TID 0000.0001) %MON dynstat_eta_sd               =   4.0653016510733E+04
(PID.TID 0000.0001) %MON dynstat_eta_del2             =   2.3953583530542E+04
(PID.TID 0000.0001) %MON dynstat_uvel_max             =   5.9543736426934E-02
(PID.TID 0000.0001) %MON dynstat_uvel_min             =  -9.1775117794307E-02
(PID.TID 0000.0001) %MON dynstat_uvel_mean            =  -4.7330517597917E-04
(PID.TID 0000.0001) %MON dynstat_uvel_sd              =   3.5781752298174E-03
(PID.TID 0000.0001) %MON dynstat_uvel_del2            =   1.5504532226945E-03
(PID.TID 0000.0001) %MON dynstat_vvel_max             =   6.0695130334328E-02
(PID.TID 0000.0001) %MON dynstat_vvel_min             =  -7.2172497340078E-02
(PID.TID 0000.0001) %MON dynstat_vvel_mean            =   7.4645435863112E-04
(PID.TID 0000.0001) %MON dynstat_vvel_sd              =   6.3128256804597E-03
(PID.TID 0000.0001) %MON dynstat_vvel_del2            =   1.8433814985822E-03
(PID.TID 0000.0001) %MON dynstat_wvel_max             =   1.4020032070420E+00
(PID.TID 0000.0001) %MON dynstat_wvel_min             =  -1.5220719277431E+00
(PID.TID 0000.0001) %MON dynstat_wvel_mean            =  -6.8519351417178E-04
(PID.TID 0000.0001) %MON dynstat_wvel_sd              =   1.7381308379847E-01
(PID.TID 0000.0001) %MON dynstat_wvel_del2            =   8.3626762899879E-02
(PID.TID 0000.0001) %MON dynstat_theta_max            =   2.9661584826047E+01
(PID.TID 0000.0001) %MON dynstat_theta_min            =  -2.5873153223836E+00
(PID.TID 0000.0001) %MON dynstat_theta_mean           =   3.6024982629901E+00
(PID.TID 0000.0001) %MON dynstat_theta_sd             =   4.4013883502428E+00
(PID.TID 0000.0001) %MON dynstat_theta_del2           =   1.4774209040733E-01
(PID.TID 0000.0001) %MON dynstat_salt_max             =   3.7435038902269E+01
(PID.TID 0000.0001) %MON dynstat_salt_min             =   2.9777804453528E+01
(PID.TID 0000.0001) %MON dynstat_salt_mean            =   3.4718001594747E+01
(PID.TID 0000.0001) %MON dynstat_salt_sd              =   2.9441805887809E-01
(PID.TID 0000.0001) %MON dynstat_salt_del2            =   2.6634288478325E-02
(PID.TID 0000.0001) %MON advcfl_uvel_max              =   5.3867625671592E-02
(PID.TID 0000.0001) %MON advcfl_vvel_max              =   2.8043917450964E-02
(PID.TID 0000.0001) %MON advcfl_wvel_max              =   9.5633393123269E-02
(PID.TID 0000.0001) %MON advcfl_W_hf_max              =   9.5633393123269E-02
(PID.TID 0000.0001) %MON pe_b_mean                    =  -8.4403861982937E-03
(PID.TID 0000.0001) %MON ke_max                       =   3.6258454728481E-03
(PID.TID 0000.0001) %MON ke_mean                      =   2.4012661414743E-05
(PID.TID 0000.0001) %MON ke_vol                       =   1.3442141716555E+22
(PID.TID 0000.0001) %MON vort_r_min                   =  -2.5879790913472E-07
(PID.TID 0000.0001) %MON vort_r_max                   =   3.0035022717331E-07
(PID.TID 0000.0001) %MON vort_a_mean                  =  -2.4531016372285E-05
(PID.TID 0000.0001) %MON vort_a_sd                    =   7.3435913020472E-05
(PID.TID 0000.0001) %MON vort_p_mean                  =  -2.9400840474315E-05
(PID.TID 0000.0001) %MON vort_p_sd                    =   1.0337802947340E-04
(PID.TID 0000.0001) %MON surfExpan_theta_mean         =   6.0157019980002E-03
(PID.TID 0000.0001) %MON surfExpan_salt_mean          =  -1.1548439229779E-04
(PID.TID 0000.0001) // =======================================================
(PID.TID 0000.0001) // End MONITOR dynamic field statistics
(PID.TID 0000.0001) // =======================================================
time,SST,SSS,fu,fv,Q,E-P,i0,i1,a,b =   8.6400E+05  7.1702E-01  0.0000E+00 -3.6931E-02 -5.8989E-02  1.2989E+02 -2.0964E-09    12     1  8.6667E-01  1.3333E-01
time,fu0,fu1,fu =   8.6400E+05 -4.5368E-02 -3.5633E-02 -3.6931E-02  8.6667E-01  1.3333E-01
 cg2d: Sum(rhs),rhsMax =  -1.62370117351429E-15  1.72928021225933E+02
(PID.TID 0000.0001)                    cg2d_init_res =    3.45139699151355E-03
(PID.TID 0000.0001)                       cg2d_iters =    91
(PID.TID 0000.0001)                         cg2d_res =    9.78813015991542E-10
(PID.TID 0000.0001) // =======================================================
(PID.TID 0000.0001) // Begin MONITOR dynamic field statistics
(PID.TID 0000.0001) // =======================================================
(PID.TID 0000.0001) %MON time_tsnumber                =                     6
(PID.TID 0000.0001) %MON time_secondsf                =   1.0368000000000E+06
(PID.TID 0000.0001) %MON dynstat_eta_max              =   6.2209409981545E+04
(PID.TID 0000.0001) %MON dynstat_eta_min              =  -9.5072851670007E+04
(PID.TID 0000.0001) %MON dynstat_eta_mean             =   2.0713632399325E-12
(PID.TID 0000.0001) %MON dynstat_eta_sd               =   4.0801322073600E+04
(PID.TID 0000.0001) %MON dynstat_eta_del2             =   2.3953933554542E+04
(PID.TID 0000.0001) %MON dynstat_uvel_max             =   7.3968233367015E-02
(PID.TID 0000.0001) %MON dynstat_uvel_min             =  -9.0172290133027E-02
(PID.TID 0000.0001) %MON dynstat_uvel_mean            =  -3.8964179272234E-05
(PID.TID 0000.0001) %MON dynstat_uvel_sd              =   4.2141440558397E-03
(PID.TID 0000.0001) %MON dynstat_uvel_del2            =   1.7359279197000E-03
(PID.TID 0000.0001) %MON dynstat_vvel_max             =   6.9116494046450E-02
(PID.TID 0000.0001) %MON dynstat_vvel_min             =  -8.3440815266817E-02
(PID.TID 0000.0001) %MON dynstat_vvel_mean            =   2.7833870296925E-04
(PID.TID 0000.0001) %MON dynstat_vvel_sd              =   7.2913719417560E-03
(PID.TID 0000.0001) %MON dynstat_vvel_del2            =   2.1078935075189E-03
(PID.TID 0000.0001) %MON dynstat_wvel_max             =   1.6176785005061E+00
(PID.TID 0000.0001) %MON dynstat_wvel_min             =  -1.6533396907615E+00
(PID.TID 0000.0001) %MON dynstat_wvel_mean            =  -3.9198026064948E-04
(PID.TID 0000.0001) %MON dynstat_wvel_sd              =   1.9514667893793E-01
(PID.TID 0000.0001) %MON dynstat_wvel_del2            =   9.1433753301437E-02
(PID.TID 0000.0001) %MON dynstat_theta_max            =   2.9706282897796E+01
(PID.TID 0000.0001) %MON dynstat_theta_min            =  -2.5961459503672E+00
(PID.TID 0000.0001) %MON dynstat_theta_mean           =   3.6026389662626E+00
(PID.TID 0000.0001) %MON dynstat_theta_sd             =   4.4014686043608E+00
(PID.TID 0000.0001) %MON dynstat_theta_del2           =   1.4563318568776E-01
(PID.TID 0000.0001) %MON dynstat_salt_max             =   3.7434857875571E+01
(PID.TID 0000.0001) %MON dynstat_salt_min             =   2.9778878943695E+01
(PID.TID 0000.0001) %MON dynstat_salt_mean            =   3.4718001268950E+01
(PID.TID 0000.0001) %MON dynstat_salt_sd              =   2.9441940442647E-01
(PID.TID 0000.0001) %MON dynstat_salt_del2            =   2.6516191993045E-02
(PID.TID 0000.0001) %MON advcfl_uvel_max              =   5.3801156923237E-02
(PID.TID 0000.0001) %MON advcfl_vvel_max              =   3.2422424353111E-02
(PID.TID 0000.0001) %MON advcfl_wvel_max              =   1.0549015569659E-01
(PID.TID 0000.0001) %MON advcfl_W_hf_max              =   1.0549015569659E-01
(PID.TID 0000.0001) %MON pe_b_mean                    =  -8.5184392836663E-03
(PID.TID 0000.0001) %MON ke_max                       =   3.8298313174922E-03
(PID.TID 0000.0001) %MON ke_mean                      =   3.1908181094144E-05
(PID.TID 0000.0001) %MON ke_vol                       =   1.3442141716555E+22
(PID.TID 0000.0001) %MON vort_r_min                   =  -2.9329899304524E-07
(PID.TID 0000.0001) %MON vort_r_max                   =   3.0148725491413E-07
(PID.TID 0000.0001) %MON vort_a_mean                  =  -2.4531016356480E-05
(PID.TID 0000.0001) %MON vort_a_sd                    =   7.3436014131472E-05
(PID.TID 0000.0001) %MON vort_p_mean                  =  -2.9400918690520E-05
(PID.TID 0000.0001) %MON vort_p_sd                    =   1.0337864360060E-04
(PID.TID 0000.0001) %MON surfExpan_theta_mean         =   2.1317179650399E-03
(PID.TID 0000.0001) %MON surfExpan_salt_mean          =  -6.0616788314388E-05
(PID.TID 0000.0001) // =======================================================
(PID.TID 0000.0001) // End MONITOR dynamic field statistics
(PID.TID 0000.0001) // =======================================================
time,SST,SSS,fu,fv,Q,E-P,i0,i1,a,b =   1.0368E+06  8.3775E-01  0.0000E+00 -3.6282E-02 -5.8123E-02  1.2135E+02 -2.0964E-09    12     1  9.3333E-01  6.6667E-02
time,fu0,fu1,fu =   1.0368E+06 -4.5368E-02 -3.5633E-02 -3.6282E-02  9.3333E-01  6.6667E-02
 cg2d: Sum(rhs),rhsMax =   1.17961196366423E-15  1.72940039471530E+02
(PID.TID 0000.0001)                    cg2d_init_res =    3.58750402758490E-03
(PID.TID 0000.0001)                       cg2d_iters =    91
(PID.TID 0000.0001)                         cg2d_res =    9.19982459609374E-10
(PID.TID 0000.0001) // =======================================================
(PID.TID 0000.0001) // Begin MONITOR dynamic field statistics
(PID.TID 0000.0001) // =======================================================
(PID.TID 0000.0001) %MON time_tsnumber                =                     7
(PID.TID 0000.0001) %MON time_secondsf                =   1.2096000000000E+06
(PID.TID 0000.0001) %MON dynstat_eta_max              =   6.1155547604864E+04
(PID.TID 0000.0001) %MON dynstat_eta_min              =  -9.5059623616652E+04
(PID.TID 0000.0001) %MON dynstat_eta_mean             =   3.6708356060269E-12
(PID.TID 0000.0001) %MON dynstat_eta_sd               =   4.0659437810066E+04
(PID.TID 0000.0001) %MON dynstat_eta_del2             =   2.3955577295553E+04
(PID.TID 0000.0001) %MON dynstat_uvel_max             =   8.8189836914901E-02
(PID.TID 0000.0001) %MON dynstat_uvel_min             =  -7.5475971930813E-02
(PID.TID 0000.0001) %MON dynstat_uvel_mean            =   3.1900303795470E-04
(PID.TID 0000.0001) %MON dynstat_uvel_sd              =   4.9839450380671E-03
(PID.TID 0000.0001) %MON dynstat_uvel_del2            =   1.8998665214449E-03
(PID.TID 0000.0001) %MON dynstat_vvel_max             =   7.6043254870672E-02
(PID.TID 0000.0001) %MON dynstat_vvel_min             =  -9.4863250741315E-02
(PID.TID 0000.0001) %MON dynstat_vvel_mean            =  -9.9610559323580E-05
(PID.TID 0000.0001) %MON dynstat_vvel_sd              =   8.1826612271081E-03
(PID.TID 0000.0001) %MON dynstat_vvel_del2            =   2.3434668459286E-03
(PID.TID 0000.0001) %MON dynstat_wvel_max             =   1.7915102851138E+00
(PID.TID 0000.0001) %MON dynstat_wvel_min             =  -1.7236786142680E+00
(PID.TID 0000.0001) %MON dynstat_wvel_mean            =  -8.5393493076386E-05
(PID.TID 0000.0001) %MON dynstat_wvel_sd              =   2.1276769792272E-01
(PID.TID 0000.0001) %MON dynstat_wvel_del2            =   9.7203108131104E-02
(PID.TID 0000.0001) %MON dynstat_theta_max            =   2.9752525179090E+01
(PID.TID 0000.0001) %MON dynstat_theta_min            =  -2.6766339728278E+00
(PID.TID 0000.0001) %MON dynstat_theta_mean           =   3.6027764357500E+00
(PID.TID 0000.0001) %MON dynstat_theta_sd             =   4.4015744414523E+00
(PID.TID 0000.0001) %MON dynstat_theta_del2           =   1.4394313834607E-01
(PID.TID 0000.0001) %MON dynstat_salt_max             =   3.7434632087713E+01
(PID.TID 0000.0001) %MON dynstat_salt_min             =   2.9778945279625E+01
(PID.TID 0000.0001) %MON dynstat_salt_mean            =   3.4718001120682E+01
(PID.TID 0000.0001) %MON dynstat_salt_sd              =   2.9442001375017E-01
(PID.TID 0000.0001) %MON dynstat_salt_del2            =   2.6437662472478E-02
(PID.TID 0000.0001) %MON advcfl_uvel_max              =   5.8299764585119E-02
(PID.TID 0000.0001) %MON advcfl_vvel_max              =   3.6860816390820E-02
(PID.TID 0000.0001) %MON advcfl_wvel_max              =   1.1178102762542E-01
(PID.TID 0000.0001) %MON advcfl_W_hf_max              =   1.1178102762542E-01
(PID.TID 0000.0001) %MON pe_b_mean                    =  -8.6507613339751E-03
(PID.TID 0000.0001) %MON ke_max                       =   5.0511133543479E-03
(PID.TID 0000.0001) %MON ke_mean                      =   4.1311917196791E-05
(PID.TID 0000.0001) %MON ke_vol                       =   1.3442141716555E+22
(PID.TID 0000.0001) %MON vort_r_min                   =  -2.7681522208123E-07
(PID.TID 0000.0001) %MON vort_r_max                   =   2.6892707208668E-07
(PID.TID 0000.0001) %MON vort_a_mean                  =  -2.4531016238591E-05
(PID.TID 0000.0001) %MON vort_a_sd                    =   7.3436098291155E-05
(PID.TID 0000.0001) %MON vort_p_mean                  =  -2.9400918832574E-05
(PID.TID 0000.0001) %MON vort_p_sd                    =   1.0337849785344E-04
(PID.TID 0000.0001) %MON surfExpan_theta_mean         =  -1.6209610365444E-03
(PID.TID 0000.0001) %MON surfExpan_salt_mean          =  -5.5062144236784E-05
(PID.TID 0000.0001) // =======================================================
(PID.TID 0000.0001) // End MONITOR dynamic field statistics
(PID.TID 0000.0001) // =======================================================
 S/R EXTERNAL_FIELDS_LOAD: Reading new data  1209600. 7
(PID.TID 0000.0001)  MDSREADFIELD: opening global file: trenberth_taux.bin
(PID.TID 0000.0001)  MDSREADFIELD: opening global file: trenberth_taux.bin
(PID.TID 0000.0001)  MDSREADFIELD: opening global file: trenberth_tauy.bin
(PID.TID 0000.0001)  MDSREADFIELD: opening global file: trenberth_tauy.bin
(PID.TID 0000.0001)  MDSREADFIELD: opening global file: shi_qnet.bin
(PID.TID 0000.0001)  MDSREADFIELD: opening global file: shi_qnet.bin
(PID.TID 0000.0001)  MDSREADFIELD: opening global file: shi_empmr.bin
(PID.TID 0000.0001)  MDSREADFIELD: opening global file: shi_empmr.bin
(PID.TID 0000.0001)  MDSREADFIELD: opening global file: lev_sst.bin
(PID.TID 0000.0001)  MDSREADFIELD: opening global file: lev_sst.bin
(PID.TID 0000.0001)  MDSREADFIELD: opening global file: deltageopotjmd95.bin
(PID.TID 0000.0001)  MDSREADFIELD: opening global file: deltageopotjmd95.bin
time,SST,SSS,fu,fv,Q,E-P,i0,i1,a,b =   1.2096E+06  9.5848E-01  0.0000E+00 -3.5633E-02 -5.7257E-02  1.1281E+02 -2.0964E-09     1     2  0.0000E+00  1.0000E+00
time,fu0,fu1,fu =   1.2096E+06 -3.5633E-02 -1.4435E-02 -3.5633E-02  0.0000E+00  1.0000E+00
 cg2d: Sum(rhs),rhsMax =   2.52575738102223E-15  1.72953755070503E+02
(PID.TID 0000.0001)                    cg2d_init_res =    3.93574816401798E-03
(PID.TID 0000.0001)                       cg2d_iters =    90
(PID.TID 0000.0001)                         cg2d_res =    8.67541391238118E-10
(PID.TID 0000.0001) // =======================================================
(PID.TID 0000.0001) // Begin MONITOR dynamic field statistics
(PID.TID 0000.0001) // =======================================================
(PID.TID 0000.0001) %MON time_tsnumber                =                     8
(PID.TID 0000.0001) %MON time_secondsf                =   1.3824000000000E+06
(PID.TID 0000.0001) %MON dynstat_eta_max              =   5.6617513998830E+04
(PID.TID 0000.0001) %MON dynstat_eta_min              =  -9.4430055509873E+04
(PID.TID 0000.0001) %MON dynstat_eta_mean             =  -1.7399859798796E-13
(PID.TID 0000.0001) %MON dynstat_eta_sd               =   4.0356617829698E+04
(PID.TID 0000.0001) %MON dynstat_eta_del2             =   2.3957808585334E+04
(PID.TID 0000.0001) %MON dynstat_uvel_max             =   1.0172737110236E-01
(PID.TID 0000.0001) %MON dynstat_uvel_min             =  -6.5374030234265E-02
(PID.TID 0000.0001) %MON dynstat_uvel_mean            =   5.4566233520693E-04
(PID.TID 0000.0001) %MON dynstat_uvel_sd              =   5.8261907454147E-03
(PID.TID 0000.0001) %MON dynstat_uvel_del2            =   2.0399793960990E-03
(PID.TID 0000.0001) %MON dynstat_vvel_max             =   8.1474832893508E-02
(PID.TID 0000.0001) %MON dynstat_vvel_min             =  -1.0475388141092E-01
(PID.TID 0000.0001) %MON dynstat_vvel_mean            =  -3.3374681936798E-04
(PID.TID 0000.0001) %MON dynstat_vvel_sd              =   8.9610190332796E-03
(PID.TID 0000.0001) %MON dynstat_vvel_del2            =   2.5440447859689E-03
(PID.TID 0000.0001) %MON dynstat_wvel_max             =   1.9170802494182E+00
(PID.TID 0000.0001) %MON dynstat_wvel_min             =  -1.7392509093159E+00
(PID.TID 0000.0001) %MON dynstat_wvel_mean            =   1.7826811364501E-04
(PID.TID 0000.0001) %MON dynstat_wvel_sd              =   2.2630218048141E-01
(PID.TID 0000.0001) %MON dynstat_wvel_del2            =   1.0084102235321E-01
(PID.TID 0000.0001) %MON dynstat_theta_max            =   2.9804736284657E+01
(PID.TID 0000.0001) %MON dynstat_theta_min            =  -2.7604594238904E+00
(PID.TID 0000.0001) %MON dynstat_theta_mean           =   3.6029089375573E+00
(PID.TID 0000.0001) %MON dynstat_theta_sd             =   4.4017029756331E+00
(PID.TID 0000.0001) %MON dynstat_theta_del2           =   1.4262763834342E-01
(PID.TID 0000.0001) %MON dynstat_salt_max             =   3.7434376362808E+01
(PID.TID 0000.0001) %MON dynstat_salt_min             =   2.9778314484473E+01
(PID.TID 0000.0001) %MON dynstat_salt_mean            =   3.4718001104347E+01
(PID.TID 0000.0001) %MON dynstat_salt_sd              =   2.9442253807843E-01
(PID.TID 0000.0001) %MON dynstat_salt_del2            =   2.6382091186382E-02
(PID.TID 0000.0001) %MON advcfl_uvel_max              =   6.7249039057111E-02
(PID.TID 0000.0001) %MON advcfl_vvel_max              =   4.0703998215741E-02
(PID.TID 0000.0001) %MON advcfl_wvel_max              =   1.1933299052196E-01
(PID.TID 0000.0001) %MON advcfl_W_hf_max              =   1.1933299052196E-01
(PID.TID 0000.0001) %MON pe_b_mean                    =  -8.7595464342118E-03
(PID.TID 0000.0001) %MON ke_max                       =   6.3510652561604E-03
(PID.TID 0000.0001) %MON ke_mean                      =   5.1550707991105E-05
(PID.TID 0000.0001) %MON ke_vol                       =   1.3442141716555E+22
(PID.TID 0000.0001) %MON vort_r_min                   =  -2.4490677503523E-07
(PID.TID 0000.0001) %MON vort_r_max                   =   2.1345205502429E-07
(PID.TID 0000.0001) %MON vort_a_mean                  =  -2.4531016037795E-05
(PID.TID 0000.0001) %MON vort_a_sd                    =   7.3436152146031E-05
(PID.TID 0000.0001) %MON vort_p_mean                  =  -2.9400853010847E-05
(PID.TID 0000.0001) %MON vort_p_sd                    =   1.0337784306214E-04
(PID.TID 0000.0001) %MON surfExpan_theta_mean         =  -4.3265484955506E-03
(PID.TID 0000.0001) %MON surfExpan_salt_mean          =  -5.6964605893503E-05
(PID.TID 0000.0001) // =======================================================
(PID.TID 0000.0001) // End MONITOR dynamic field statistics
(PID.TID 0000.0001) // =======================================================
time,SST,SSS,fu,fv,Q,E-P,i0,i1,a,b =   1.3824E+06  8.5911E-01  0.0000E+00 -3.4220E-02 -5.4615E-02  1.1534E+02 -2.0964E-09     1     2  6.6667E-02  9.3333E-01
time,fu0,fu1,fu =   1.3824E+06 -3.5633E-02 -1.4435E-02 -3.4220E-02  6.6667E-02  9.3333E-01
 cg2d: Sum(rhs),rhsMax =   1.95676808090184E-15  1.72967906282845E+02
(PID.TID 0000.0001)                    cg2d_init_res =    3.96270101027546E-03
(PID.TID 0000.0001)                       cg2d_iters =    92
(PID.TID 0000.0001)                         cg2d_res =    9.26993962910344E-10
(PID.TID 0000.0001) // =======================================================
(PID.TID 0000.0001) // Begin MONITOR dynamic field statistics
(PID.TID 0000.0001) // =======================================================
(PID.TID 0000.0001) %MON time_tsnumber                =                     9
(PID.TID 0000.0001) %MON time_secondsf                =   1.5552000000000E+06
(PID.TID 0000.0001) %MON dynstat_eta_max              =   5.2268303005649E+04
(PID.TID 0000.0001) %MON dynstat_eta_min              =  -9.3568478647485E+04
(PID.TID 0000.0001) %MON dynstat_eta_mean             =   4.5518118892208E-12
(PID.TID 0000.0001) %MON dynstat_eta_sd               =   4.0032063929328E+04
(PID.TID 0000.0001) %MON dynstat_eta_del2             =   2.3959225220684E+04
(PID.TID 0000.0001) %MON dynstat_uvel_max             =   1.1448767301229E-01
(PID.TID 0000.0001) %MON dynstat_uvel_min             =  -6.6937232148293E-02
(PID.TID 0000.0001) %MON dynstat_uvel_mean            =   6.2892028603318E-04
(PID.TID 0000.0001) %MON dynstat_uvel_sd              =   6.7070490589749E-03
(PID.TID 0000.0001) %MON dynstat_uvel_del2            =   2.1577253053304E-03
(PID.TID 0000.0001) %MON dynstat_vvel_max             =   8.4913125303660E-02
(PID.TID 0000.0001) %MON dynstat_vvel_min             =  -1.1294488939953E-01
(PID.TID 0000.0001) %MON dynstat_vvel_mean            =  -4.1852410169226E-04
(PID.TID 0000.0001) %MON dynstat_vvel_sd              =   9.6114317829658E-03
(PID.TID 0000.0001) %MON dynstat_vvel_del2            =   2.7078707501132E-03
(PID.TID 0000.0001) %MON dynstat_wvel_max             =   1.9910166122324E+00
(PID.TID 0000.0001) %MON dynstat_wvel_min             =  -1.7055307315022E+00
(PID.TID 0000.0001) %MON dynstat_wvel_mean            =   3.5988316604189E-04
(PID.TID 0000.0001) %MON dynstat_wvel_sd              =   2.3569587499962E-01
(PID.TID 0000.0001) %MON dynstat_wvel_del2            =   1.0250588521592E-01
(PID.TID 0000.0001) %MON dynstat_theta_max            =   2.9845474780632E+01
(PID.TID 0000.0001) %MON dynstat_theta_min            =  -2.8334015777535E+00
(PID.TID 0000.0001) %MON dynstat_theta_mean           =   3.6030340945558E+00
(PID.TID 0000.0001) %MON dynstat_theta_sd             =   4.4018516081017E+00
(PID.TID 0000.0001) %MON dynstat_theta_del2           =   1.4178839696901E-01
(PID.TID 0000.0001) %MON dynstat_salt_max             =   3.7434103472414E+01
(PID.TID 0000.0001) %MON dynstat_salt_min             =   2.9777172508980E+01
(PID.TID 0000.0001) %MON dynstat_salt_mean            =   3.4718001108532E+01
(PID.TID 0000.0001) %MON dynstat_salt_sd              =   2.9442158836485E-01
(PID.TID 0000.0001) %MON dynstat_salt_del2            =   2.6367947340948E-02
(PID.TID 0000.0001) %MON advcfl_uvel_max              =   7.5684507625920E-02
(PID.TID 0000.0001) %MON advcfl_vvel_max              =   4.3886761184162E-02
(PID.TID 0000.0001) %MON advcfl_wvel_max              =   1.2739493515569E-01
(PID.TID 0000.0001) %MON advcfl_W_hf_max              =   1.2739493515569E-01
(PID.TID 0000.0001) %MON pe_b_mean                    =  -8.7721727132629E-03
(PID.TID 0000.0001) %MON ke_max                       =   7.7151372247149E-03
(PID.TID 0000.0001) %MON ke_mean                      =   6.2037973482529E-05
(PID.TID 0000.0001) %MON ke_vol                       =   1.3442141716555E+22
(PID.TID 0000.0001) %MON vort_r_min                   =  -3.2430526220544E-07
(PID.TID 0000.0001) %MON vort_r_max                   =   2.8388634981178E-07
(PID.TID 0000.0001) %MON vort_a_mean                  =  -2.4531015789581E-05
(PID.TID 0000.0001) %MON vort_a_sd                    =   7.3436172394647E-05
(PID.TID 0000.0001) %MON vort_p_mean                  =  -2.9400747424832E-05
(PID.TID 0000.0001) %MON vort_p_sd                    =   1.0337690673272E-04
(PID.TID 0000.0001) %MON surfExpan_theta_mean         =  -5.4609908287182E-03
(PID.TID 0000.0001) %MON surfExpan_salt_mean          =  -5.4001573300230E-05
(PID.TID 0000.0001) // =======================================================
(PID.TID 0000.0001) // End MONITOR dynamic field statistics
(PID.TID 0000.0001) // =======================================================
time,SST,SSS,fu,fv,Q,E-P,i0,i1,a,b =   1.5552E+06  7.5973E-01  0.0000E+00 -3.2807E-02 -5.1974E-02  1.1787E+02 -2.0964E-09     1     2  1.3333E-01  8.6667E-01
time,fu0,fu1,fu =   1.5552E+06 -3.5633E-02 -1.4435E-02 -3.2807E-02  1.3333E-01  8.6667E-01
 cg2d: Sum(rhs),rhsMax =  -1.42941214420489E-15  1.72980800633961E+02
(PID.TID 0000.0001)                    cg2d_init_res =    3.62695521560528E-03
(PID.TID 0000.0001)                       cg2d_iters =    93
(PID.TID 0000.0001)                         cg2d_res =    9.19571280152476E-10
(PID.TID 0000.0001) // =======================================================
(PID.TID 0000.0001) // Begin MONITOR dynamic field statistics
(PID.TID 0000.0001) // =======================================================
(PID.TID 0000.0001) %MON time_tsnumber                =                    10
(PID.TID 0000.0001) %MON time_secondsf                =   1.7280000000000E+06
(PID.TID 0000.0001) %MON dynstat_eta_max              =   5.1372737622820E+04
(PID.TID 0000.0001) %MON dynstat_eta_min              =  -9.2841919525660E+04
(PID.TID 0000.0001) %MON dynstat_eta_mean             =   5.7059556939028E-12
(PID.TID 0000.0001) %MON dynstat_eta_sd               =   3.9769765977491E+04
(PID.TID 0000.0001) %MON dynstat_eta_del2             =   2.3960643105580E+04
(PID.TID 0000.0001) %MON dynstat_uvel_max             =   1.2630603097682E-01
(PID.TID 0000.0001) %MON dynstat_uvel_min             =  -6.6697547844953E-02
(PID.TID 0000.0001) %MON dynstat_uvel_mean            =   5.9161923274449E-04
(PID.TID 0000.0001) %MON dynstat_uvel_sd              =   7.6230662907468E-03
(PID.TID 0000.0001) %MON dynstat_uvel_del2            =   2.2639205745996E-03
(PID.TID 0000.0001) %MON dynstat_vvel_max             =   8.6873279182542E-02
(PID.TID 0000.0001) %MON dynstat_vvel_min             =  -1.1933262080555E-01
(PID.TID 0000.0001) %MON dynstat_vvel_mean            =  -3.8445031543395E-04
(PID.TID 0000.0001) %MON dynstat_vvel_sd              =   1.0130009593846E-02
(PID.TID 0000.0001) %MON dynstat_vvel_del2            =   2.8365043598829E-03
(PID.TID 0000.0001) %MON dynstat_wvel_max             =   2.0207514206315E+00
(PID.TID 0000.0001) %MON dynstat_wvel_min             =  -1.6345195450669E+00
(PID.TID 0000.0001) %MON dynstat_wvel_mean            =   4.4775871111031E-04
(PID.TID 0000.0001) %MON dynstat_wvel_sd              =   2.4123949920857E-01
(PID.TID 0000.0001) %MON dynstat_wvel_del2            =   1.0254506394264E-01
(PID.TID 0000.0001) %MON dynstat_theta_max            =   2.9880790568028E+01
(PID.TID 0000.0001) %MON dynstat_theta_min            =  -2.9013489060094E+00
(PID.TID 0000.0001) %MON dynstat_theta_mean           =   3.6031509461306E+00
(PID.TID 0000.0001) %MON dynstat_theta_sd             =   4.4020171607641E+00
(PID.TID 0000.0001) %MON dynstat_theta_del2           =   1.4123755503087E-01
(PID.TID 0000.0001) %MON dynstat_salt_max             =   3.7433823896858E+01
(PID.TID 0000.0001) %MON dynstat_salt_min             =   2.9775824838857E+01
(PID.TID 0000.0001) %MON dynstat_salt_mean            =   3.4718001099163E+01
(PID.TID 0000.0001) %MON dynstat_salt_sd              =   2.9442386318415E-01
(PID.TID 0000.0001) %MON dynstat_salt_del2            =   2.6379631475615E-02
(PID.TID 0000.0001) %MON advcfl_uvel_max              =   8.3497284145506E-02
(PID.TID 0000.0001) %MON advcfl_vvel_max              =   4.6368828714753E-02
(PID.TID 0000.0001) %MON advcfl_wvel_max              =   1.3317599457366E-01
(PID.TID 0000.0001) %MON advcfl_W_hf_max              =   1.3317599457366E-01
(PID.TID 0000.0001) %MON pe_b_mean                    =  -8.6739271907691E-03
(PID.TID 0000.0001) %MON ke_max                       =   9.1174084266099E-03
(PID.TID 0000.0001) %MON ke_mean                      =   7.2538708809241E-05
(PID.TID 0000.0001) %MON ke_vol                       =   1.3442141716555E+22
(PID.TID 0000.0001) %MON vort_r_min                   =  -4.0597716331735E-07
(PID.TID 0000.0001) %MON vort_r_max                   =   3.6468893256024E-07
(PID.TID 0000.0001) %MON vort_a_mean                  =  -2.4531015535714E-05
(PID.TID 0000.0001) %MON vort_a_sd                    =   7.3436164012588E-05
(PID.TID 0000.0001) %MON vort_p_mean                  =  -2.9400633754448E-05
(PID.TID 0000.0001) %MON vort_p_sd                    =   1.0337595053004E-04
(PID.TID 0000.0001) %MON surfExpan_theta_mean         =  -5.1197734018667E-03
(PID.TID 0000.0001) %MON surfExpan_salt_mean          =  -5.2476314477130E-05
(PID.TID 0000.0001) // =======================================================
(PID.TID 0000.0001) // End MONITOR dynamic field statistics
(PID.TID 0000.0001) // =======================================================
time,SST,SSS,fu,fv,Q,E-P,i0,i1,a,b =   1.7280E+06  6.6036E-01  0.0000E+00 -3.1393E-02 -4.9332E-02  1.2039E+02 -2.0964E-09     1     2  2.0000E-01  8.0000E-01
time,fu0,fu1,fu =   1.7280E+06 -3.5633E-02 -1.4435E-02 -3.1393E-02  2.0000E-01  8.0000E-01
 cg2d: Sum(rhs),rhsMax =  -1.12410081243297E-15  1.72990806573893E+02
(PID.TID 0000.0001)                    cg2d_init_res =    3.12693255393434E-03
(PID.TID 0000.0001)                       cg2d_iters =    91
(PID.TID 0000.0001)                         cg2d_res =    9.41623334481140E-10
(PID.TID 0000.0001) // =======================================================
(PID.TID 0000.0001) // Begin MONITOR dynamic field statistics
(PID.TID 0000.0001) // =======================================================
(PID.TID 0000.0001) %MON time_tsnumber                =                    11
(PID.TID 0000.0001) %MON time_secondsf                =   1.9008000000000E+06
(PID.TID 0000.0001) %MON dynstat_eta_max              =   4.7513739896497E+04
(PID.TID 0000.0001) %MON dynstat_eta_min              =  -9.2588064193684E+04
(PID.TID 0000.0001) %MON dynstat_eta_mean             =  -2.8248344395185E-12
(PID.TID 0000.0001) %MON dynstat_eta_sd               =   3.9595096943294E+04
(PID.TID 0000.0001) %MON dynstat_eta_del2             =   2.3961818309107E+04
(PID.TID 0000.0001) %MON dynstat_uvel_max             =   1.3711742228903E-01
(PID.TID 0000.0001) %MON dynstat_uvel_min             =  -6.4754327132085E-02
(PID.TID 0000.0001) %MON dynstat_uvel_mean            =   4.7896958416272E-04
(PID.TID 0000.0001) %MON dynstat_uvel_sd              =   8.5766912758554E-03
(PID.TID 0000.0001) %MON dynstat_uvel_del2            =   2.3669394305820E-03
(PID.TID 0000.0001) %MON dynstat_vvel_max             =   8.9472864393265E-02
(PID.TID 0000.0001) %MON dynstat_vvel_min             =  -1.2387115858413E-01
(PID.TID 0000.0001) %MON dynstat_vvel_mean            =  -2.8045046897180E-04
(PID.TID 0000.0001) %MON dynstat_vvel_sd              =   1.0519087505263E-02
(PID.TID 0000.0001) %MON dynstat_vvel_del2            =   2.9318056325504E-03
(PID.TID 0000.0001) %MON dynstat_wvel_max             =   2.1374447248128E+00
(PID.TID 0000.0001) %MON dynstat_wvel_min             =  -1.5548489699687E+00
(PID.TID 0000.0001) %MON dynstat_wvel_mean            =   4.5215440071559E-04
(PID.TID 0000.0001) %MON dynstat_wvel_sd              =   2.4343836622198E-01
(PID.TID 0000.0001) %MON dynstat_wvel_del2            =   1.0143198536092E-01
(PID.TID 0000.0001) %MON dynstat_theta_max            =   2.9910876643039E+01
(PID.TID 0000.0001) %MON dynstat_theta_min            =  -2.9643081178776E+00
(PID.TID 0000.0001) %MON dynstat_theta_mean           =   3.6032596462688E+00
(PID.TID 0000.0001) %MON dynstat_theta_sd             =   4.4021927271560E+00
(PID.TID 0000.0001) %MON dynstat_theta_del2           =   1.4115161656020E-01
(PID.TID 0000.0001) %MON dynstat_salt_max             =   3.7433555552790E+01
(PID.TID 0000.0001) %MON dynstat_salt_min             =   2.9774406625824E+01
(PID.TID 0000.0001) %MON dynstat_salt_mean            =   3.4718001095458E+01
(PID.TID 0000.0001) %MON dynstat_salt_sd              =   2.9442147470373E-01
(PID.TID 0000.0001) %MON dynstat_salt_del2            =   2.6410165917576E-02
(PID.TID 0000.0001) %MON advcfl_uvel_max              =   9.0644383974568E-02
(PID.TID 0000.0001) %MON advcfl_vvel_max              =   4.8132358916720E-02
(PID.TID 0000.0001) %MON advcfl_wvel_max              =   1.3649302382820E-01
(PID.TID 0000.0001) %MON advcfl_W_hf_max              =   1.3649302382820E-01
(PID.TID 0000.0001) %MON pe_b_mean                    =  -8.5000508728269E-03
(PID.TID 0000.0001) %MON ke_max                       =   1.0551185537178E-02
(PID.TID 0000.0001) %MON ke_mean                      =   8.3050547139910E-05
(PID.TID 0000.0001) %MON ke_vol                       =   1.3442141716555E+22
(PID.TID 0000.0001) %MON vort_r_min                   =  -4.6845104027941E-07
(PID.TID 0000.0001) %MON vort_r_max                   =   4.2580599579662E-07
(PID.TID 0000.0001) %MON vort_a_mean                  =  -2.4531015314924E-05
(PID.TID 0000.0001) %MON vort_a_sd                    =   7.3436137276269E-05
(PID.TID 0000.0001) %MON vort_p_mean                  =  -2.9400538993474E-05
(PID.TID 0000.0001) %MON vort_p_sd                    =   1.0337519794206E-04
(PID.TID 0000.0001) %MON surfExpan_theta_mean         =  -3.7970446591736E-03
(PID.TID 0000.0001) %MON surfExpan_salt_mean          =  -5.6064620142896E-05
(PID.TID 0000.0001) // =======================================================
(PID.TID 0000.0001) // End MONITOR dynamic field statistics
(PID.TID 0000.0001) // =======================================================
time,SST,SSS,fu,fv,Q,E-P,i0,i1,a,b =   1.9008E+06  5.6099E-01  0.0000E+00 -2.9980E-02 -4.6691E-02  1.2292E+02 -2.0964E-09     1     2  2.6667E-01  7.3333E-01
time,fu0,fu1,fu =   1.9008E+06 -3.5633E-02 -1.4435E-02 -2.9980E-02  2.6667E-01  7.3333E-01
 cg2d: Sum(rhs),rhsMax =   1.04083408558608E-15  1.72997154636374E+02
(PID.TID 0000.0001)                    cg2d_init_res =    2.73183151558438E-03
(PID.TID 0000.0001)                       cg2d_iters =    84
(PID.TID 0000.0001)                         cg2d_res =    8.91277331075770E-10
(PID.TID 0000.0001) // =======================================================
(PID.TID 0000.0001) // Begin MONITOR dynamic field statistics
(PID.TID 0000.0001) // =======================================================
(PID.TID 0000.0001) %MON time_tsnumber                =                    12
(PID.TID 0000.0001) %MON time_secondsf                =   2.0736000000000E+06
(PID.TID 0000.0001) %MON dynstat_eta_max              =   4.2957375273692E+04
(PID.TID 0000.0001) %MON dynstat_eta_min              =  -9.2540141475732E+04
(PID.TID 0000.0001) %MON dynstat_eta_mean             =  -7.7378443368010E-12
(PID.TID 0000.0001) %MON dynstat_eta_sd               =   3.9503389606320E+04
(PID.TID 0000.0001) %MON dynstat_eta_del2             =   2.3962703372478E+04
(PID.TID 0000.0001) %MON dynstat_uvel_max             =   1.4843376992416E-01
(PID.TID 0000.0001) %MON dynstat_uvel_min             =  -6.9027727584676E-02
(PID.TID 0000.0001) %MON dynstat_uvel_mean            =   3.4368353625983E-04
(PID.TID 0000.0001) %MON dynstat_uvel_sd              =   9.5587069154011E-03
(PID.TID 0000.0001) %MON dynstat_uvel_del2            =   2.4639827056845E-03
(PID.TID 0000.0001) %MON dynstat_vvel_max             =   9.0793661508824E-02
(PID.TID 0000.0001) %MON dynstat_vvel_min             =  -1.2719203335910E-01
(PID.TID 0000.0001) %MON dynstat_vvel_mean            =  -1.5660024770506E-04
(PID.TID 0000.0001) %MON dynstat_vvel_sd              =   1.0783416680556E-02
(PID.TID 0000.0001) %MON dynstat_vvel_del2            =   2.9991184105153E-03
(PID.TID 0000.0001) %MON dynstat_wvel_max             =   2.2828403545948E+00
(PID.TID 0000.0001) %MON dynstat_wvel_min             =  -1.4727510144343E+00
(PID.TID 0000.0001) %MON dynstat_wvel_mean            =   3.9594042989318E-04
(PID.TID 0000.0001) %MON dynstat_wvel_sd              =   2.4285440829597E-01
(PID.TID 0000.0001) %MON dynstat_wvel_del2            =   9.9697378214006E-02
(PID.TID 0000.0001) %MON dynstat_theta_max            =   2.9935979696734E+01
(PID.TID 0000.0001) %MON dynstat_theta_min            =  -3.0223750554618E+00
(PID.TID 0000.0001) %MON dynstat_theta_mean           =   3.6033618821412E+00
(PID.TID 0000.0001) %MON dynstat_theta_sd             =   4.4023807984266E+00
(PID.TID 0000.0001) %MON dynstat_theta_del2           =   1.4124664194247E-01
(PID.TID 0000.0001) %MON dynstat_salt_max             =   3.7433320138569E+01
(PID.TID 0000.0001) %MON dynstat_salt_min             =   2.9773042499726E+01
(PID.TID 0000.0001) %MON dynstat_salt_mean            =   3.4718001105604E+01
(PID.TID 0000.0001) %MON dynstat_salt_sd              =   2.9441709983090E-01
(PID.TID 0000.0001) %MON dynstat_salt_del2            =   2.6441632429396E-02
(PID.TID 0000.0001) %MON advcfl_uvel_max              =   9.7107977461087E-02
(PID.TID 0000.0001) %MON advcfl_vvel_max              =   4.9422744333418E-02
(PID.TID 0000.0001) %MON advcfl_wvel_max              =   1.3719975151554E-01
(PID.TID 0000.0001) %MON advcfl_W_hf_max              =   1.3719975151554E-01
(PID.TID 0000.0001) %MON pe_b_mean                    =  -8.2992363171889E-03
(PID.TID 0000.0001) %MON ke_max                       =   1.1974233280989E-02
(PID.TID 0000.0001) %MON ke_mean                      =   9.3565124453895E-05
(PID.TID 0000.0001) %MON ke_vol                       =   1.3442141716555E+22
(PID.TID 0000.0001) %MON vort_r_min                   =  -5.0685699380114E-07
(PID.TID 0000.0001) %MON vort_r_max                   =   4.6224507959226E-07
(PID.TID 0000.0001) %MON vort_a_mean                  =  -2.4531015157075E-05
(PID.TID 0000.0001) %MON vort_a_sd                    =   7.3436104282730E-05
(PID.TID 0000.0001) %MON vort_p_mean                  =  -2.9400476001119E-05
(PID.TID 0000.0001) %MON vort_p_sd                    =   1.0337477620817E-04
(PID.TID 0000.0001) %MON surfExpan_theta_mean         =  -2.1023866793324E-03
(PID.TID 0000.0001) %MON surfExpan_salt_mean          =  -6.1239432801108E-05
(PID.TID 0000.0001) // =======================================================
(PID.TID 0000.0001) // End MONITOR dynamic field statistics
(PID.TID 0000.0001) // =======================================================
time,SST,SSS,fu,fv,Q,E-P,i0,i1,a,b =   2.0736E+06  4.6162E-01  0.0000E+00 -2.8567E-02 -4.4050E-02  1.2545E+02 -2.0964E-09     1     2  3.3333E-01  6.6667E-01
time,fu0,fu1,fu =   2.0736E+06 -3.5633E-02 -1.4435E-02 -2.8567E-02  3.3333E-01  6.6667E-01
 cg2d: Sum(rhs),rhsMax =  -5.13478148889135E-16  1.73000010865401E+02
(PID.TID 0000.0001)                    cg2d_init_res =    2.58837430317815E-03
(PID.TID 0000.0001)                       cg2d_iters =    88
(PID.TID 0000.0001)                         cg2d_res =    8.46683364567072E-10
(PID.TID 0000.0001) // =======================================================
(PID.TID 0000.0001) // Begin MONITOR dynamic field statistics
(PID.TID 0000.0001) // =======================================================
(PID.TID 0000.0001) %MON time_tsnumber                =                    13
(PID.TID 0000.0001) %MON time_secondsf                =   2.2464000000000E+06
(PID.TID 0000.0001) %MON dynstat_eta_max              =   4.2948340569036E+04
(PID.TID 0000.0001) %MON dynstat_eta_min              =  -9.2455781210184E+04
(PID.TID 0000.0001) %MON dynstat_eta_mean             =   8.9028358540227E-12
(PID.TID 0000.0001) %MON dynstat_eta_sd               =   3.9482745975470E+04
(PID.TID 0000.0001) %MON dynstat_eta_del2             =   2.3963388015785E+04
(PID.TID 0000.0001) %MON dynstat_uvel_max             =   1.5902780884782E-01
(PID.TID 0000.0001) %MON dynstat_uvel_min             =  -7.3961501408116E-02
(PID.TID 0000.0001) %MON dynstat_uvel_mean            =   2.3222277546622E-04
(PID.TID 0000.0001) %MON dynstat_uvel_sd              =   1.0547398758357E-02
(PID.TID 0000.0001) %MON dynstat_uvel_del2            =   2.5592693828243E-03
(PID.TID 0000.0001) %MON dynstat_vvel_max             =   9.1003856281374E-02
(PID.TID 0000.0001) %MON dynstat_vvel_min             =  -1.3058526260668E-01
(PID.TID 0000.0001) %MON dynstat_vvel_mean            =  -5.1752339090915E-05
(PID.TID 0000.0001) %MON dynstat_vvel_sd              =   1.0929001104447E-02
(PID.TID 0000.0001) %MON dynstat_vvel_del2            =   3.0421866870018E-03
(PID.TID 0000.0001) %MON dynstat_wvel_max             =   2.4171445036695E+00
(PID.TID 0000.0001) %MON dynstat_wvel_min             =  -1.4411326670920E+00
(PID.TID 0000.0001) %MON dynstat_wvel_mean            =   3.0735617406821E-04
(PID.TID 0000.0001) %MON dynstat_wvel_sd              =   2.4000459796975E-01
(PID.TID 0000.0001) %MON dynstat_wvel_del2            =   9.7676201855438E-02
(PID.TID 0000.0001) %MON dynstat_theta_max            =   2.9956271897364E+01
(PID.TID 0000.0001) %MON dynstat_theta_min            =  -3.0756285166412E+00
(PID.TID 0000.0001) %MON dynstat_theta_mean           =   3.6034590870234E+00
(PID.TID 0000.0001) %MON dynstat_theta_sd             =   4.4025855155068E+00
(PID.TID 0000.0001) %MON dynstat_theta_del2           =   1.4163298954984E-01
(PID.TID 0000.0001) %MON dynstat_salt_max             =   3.7433142404398E+01
(PID.TID 0000.0001) %MON dynstat_salt_min             =   2.9771788622105E+01
(PID.TID 0000.0001) %MON dynstat_salt_mean            =   3.4718001120256E+01
(PID.TID 0000.0001) %MON dynstat_salt_sd              =   2.9441789102483E-01
(PID.TID 0000.0001) %MON dynstat_salt_del2            =   2.6500694611637E-02
(PID.TID 0000.0001) %MON advcfl_uvel_max              =   1.0286601792299E-01
(PID.TID 0000.0001) %MON advcfl_vvel_max              =   5.0741244377319E-02
(PID.TID 0000.0001) %MON advcfl_wvel_max              =   1.3519869353095E-01
(PID.TID 0000.0001) %MON advcfl_W_hf_max              =   1.3519869353095E-01
(PID.TID 0000.0001) %MON pe_b_mean                    =  -8.1066590880121E-03
(PID.TID 0000.0001) %MON ke_max                       =   1.3355692200279E-02
(PID.TID 0000.0001) %MON ke_mean                      =   1.0394546978407E-04
(PID.TID 0000.0001) %MON ke_vol                       =   1.3442141716555E+22
(PID.TID 0000.0001) %MON vort_r_min                   =  -5.2049880000358E-07
(PID.TID 0000.0001) %MON vort_r_max                   =   4.7336685842292E-07
(PID.TID 0000.0001) %MON vort_a_mean                  =  -2.4531015079028E-05
(PID.TID 0000.0001) %MON vort_a_sd                    =   7.3436075752449E-05
(PID.TID 0000.0001) %MON vort_p_mean                  =  -2.9400449433598E-05
(PID.TID 0000.0001) %MON vort_p_sd                    =   1.0337471428652E-04
(PID.TID 0000.0001) %MON surfExpan_theta_mean         =  -5.6025987878378E-04
(PID.TID 0000.0001) %MON surfExpan_salt_mean          =  -6.0358546466000E-05
(PID.TID 0000.0001) // =======================================================
(PID.TID 0000.0001) // End MONITOR dynamic field statistics
(PID.TID 0000.0001) // =======================================================
time,SST,SSS,fu,fv,Q,E-P,i0,i1,a,b =   2.2464E+06  3.6224E-01  0.0000E+00 -2.7154E-02 -4.1408E-02  1.2798E+02 -2.0964E-09     1     2  4.0000E-01  6.0000E-01
time,fu0,fu1,fu =   2.2464E+06 -3.5633E-02 -1.4435E-02 -2.7154E-02  4.0000E-01  6.0000E-01
 cg2d: Sum(rhs),rhsMax =  -4.85722573273506E-16  1.73000150166629E+02
(PID.TID 0000.0001)                    cg2d_init_res =    2.58972096456020E-03
(PID.TID 0000.0001)                       cg2d_iters =    88
(PID.TID 0000.0001)                         cg2d_res =    9.90552695540090E-10
(PID.TID 0000.0001) // =======================================================
(PID.TID 0000.0001) // Begin MONITOR dynamic field statistics
(PID.TID 0000.0001) // =======================================================
(PID.TID 0000.0001) %MON time_tsnumber                =                    14
(PID.TID 0000.0001) %MON time_secondsf                =   2.4192000000000E+06
(PID.TID 0000.0001) %MON dynstat_eta_max              =   4.3130163612768E+04
(PID.TID 0000.0001) %MON dynstat_eta_min              =  -9.2543608457123E+04
(PID.TID 0000.0001) %MON dynstat_eta_mean             =   7.3941348809222E-13
(PID.TID 0000.0001) %MON dynstat_eta_sd               =   3.9518068114272E+04
(PID.TID 0000.0001) %MON dynstat_eta_del2             =   2.3964255774965E+04
(PID.TID 0000.0001) %MON dynstat_uvel_max             =   1.6830304595861E-01
(PID.TID 0000.0001) %MON dynstat_uvel_min             =  -7.9853833218192E-02
(PID.TID 0000.0001) %MON dynstat_uvel_mean            =   1.7504257558066E-04
(PID.TID 0000.0001) %MON dynstat_uvel_sd              =   1.1517398650242E-02
(PID.TID 0000.0001) %MON dynstat_uvel_del2            =   2.6532815429262E-03
(PID.TID 0000.0001) %MON dynstat_vvel_max             =   9.0201401449844E-02
(PID.TID 0000.0001) %MON dynstat_vvel_min             =  -1.3247688995908E-01
(PID.TID 0000.0001) %MON dynstat_vvel_mean            =   1.2558141831771E-05
(PID.TID 0000.0001) %MON dynstat_vvel_sd              =   1.0964164707587E-02
(PID.TID 0000.0001) %MON dynstat_vvel_del2            =   3.0637084896890E-03
(PID.TID 0000.0001) %MON dynstat_wvel_max             =   2.5417069486607E+00
(PID.TID 0000.0001) %MON dynstat_wvel_min             =  -1.5100963583910E+00
(PID.TID 0000.0001) %MON dynstat_wvel_mean            =   2.1249075968775E-04
(PID.TID 0000.0001) %MON dynstat_wvel_sd              =   2.3537484450972E-01
(PID.TID 0000.0001) %MON dynstat_wvel_del2            =   9.5583509248349E-02
(PID.TID 0000.0001) %MON dynstat_theta_max            =   2.9971857892329E+01
(PID.TID 0000.0001) %MON dynstat_theta_min            =  -3.1241396002628E+00
(PID.TID 0000.0001) %MON dynstat_theta_mean           =   3.6035544691780E+00
(PID.TID 0000.0001) %MON dynstat_theta_sd             =   4.4027941440260E+00
(PID.TID 0000.0001) %MON dynstat_theta_del2           =   1.4211884526735E-01
(PID.TID 0000.0001) %MON dynstat_salt_max             =   3.7433047498340E+01
(PID.TID 0000.0001) %MON dynstat_salt_min             =   2.9770641037909E+01
(PID.TID 0000.0001) %MON dynstat_salt_mean            =   3.4718001118987E+01
(PID.TID 0000.0001) %MON dynstat_salt_sd              =   2.9440980335507E-01
(PID.TID 0000.0001) %MON dynstat_salt_del2            =   2.6562663679607E-02
(PID.TID 0000.0001) %MON advcfl_uvel_max              =   1.0788275259612E-01
(PID.TID 0000.0001) %MON advcfl_vvel_max              =   5.1476270090352E-02
(PID.TID 0000.0001) %MON advcfl_wvel_max              =   1.3045314075517E-01
(PID.TID 0000.0001) %MON advcfl_W_hf_max              =   1.3045314075517E-01
(PID.TID 0000.0001) %MON pe_b_mean                    =  -7.9405779719011E-03
(PID.TID 0000.0001) %MON ke_max                       =   1.4667009175922E-02
(PID.TID 0000.0001) %MON ke_mean                      =   1.1397125014104E-04
(PID.TID 0000.0001) %MON ke_vol                       =   1.3442141716555E+22
(PID.TID 0000.0001) %MON vort_r_min                   =  -5.1258017885185E-07
(PID.TID 0000.0001) %MON vort_r_max                   =   4.6624569904311E-07
(PID.TID 0000.0001) %MON vort_a_mean                  =  -2.4531015083494E-05
(PID.TID 0000.0001) %MON vort_a_sd                    =   7.3436058777075E-05
(PID.TID 0000.0001) %MON vort_p_mean                  =  -2.9400455784766E-05
(PID.TID 0000.0001) %MON vort_p_sd                    =   1.0337495417158E-04
(PID.TID 0000.0001) %MON surfExpan_theta_mean         =   4.9385551506158E-04
(PID.TID 0000.0001) %MON surfExpan_salt_mean          =  -4.7717281420386E-05
(PID.TID 0000.0001) // =======================================================
(PID.TID 0000.0001) // End MONITOR dynamic field statistics
(PID.TID 0000.0001) // =======================================================
time,SST,SSS,fu,fv,Q,E-P,i0,i1,a,b =   2.4192E+06  2.6287E-01  0.0000E+00 -2.5740E-02 -3.8767E-02  1.3050E+02 -2.0964E-09     1     2  4.6667E-01  5.3333E-01
time,fu0,fu1,fu =   2.4192E+06 -3.5633E-02 -1.4435E-02 -2.5740E-02  4.6667E-01  5.3333E-01
 cg2d: Sum(rhs),rhsMax =   1.42941214420489E-15  1.72998547146471E+02
(PID.TID 0000.0001)                    cg2d_init_res =    2.55874390037214E-03
(PID.TID 0000.0001)                       cg2d_iters =    89
(PID.TID 0000.0001)                         cg2d_res =    8.26388182600285E-10
(PID.TID 0000.0001) // =======================================================
(PID.TID 0000.0001) // Begin MONITOR dynamic field statistics
(PID.TID 0000.0001) // =======================================================
(PID.TID 0000.0001) %MON time_tsnumber                =                    15
(PID.TID 0000.0001) %MON time_secondsf                =   2.5920000000000E+06
(PID.TID 0000.0001) %MON dynstat_eta_max              =   4.4272746937188E+04
(PID.TID 0000.0001) %MON dynstat_eta_min              =  -9.2733331570854E+04
(PID.TID 0000.0001) %MON dynstat_eta_mean             =   1.9119276426754E-12
(PID.TID 0000.0001) %MON dynstat_eta_sd               =   3.9586691492311E+04
(PID.TID 0000.0001) %MON dynstat_eta_del2             =   2.3965700271858E+04
(PID.TID 0000.0001) %MON dynstat_uvel_max             =   1.7615302496300E-01
(PID.TID 0000.0001) %MON dynstat_uvel_min             =  -8.4389753513657E-02
(PID.TID 0000.0001) %MON dynstat_uvel_mean            =   1.8262574723598E-04
(PID.TID 0000.0001) %MON dynstat_uvel_sd              =   1.2447549757819E-02
(PID.TID 0000.0001) %MON dynstat_uvel_del2            =   2.7472293315077E-03
(PID.TID 0000.0001) %MON dynstat_vvel_max             =   8.8498064448482E-02
(PID.TID 0000.0001) %MON dynstat_vvel_min             =  -1.3287236572011E-01
(PID.TID 0000.0001) %MON dynstat_vvel_mean            =   3.2384875316199E-05
(PID.TID 0000.0001) %MON dynstat_vvel_sd              =   1.0901195518227E-02
(PID.TID 0000.0001) %MON dynstat_vvel_del2            =   3.0698344248780E-03
(PID.TID 0000.0001) %MON dynstat_wvel_max             =   2.6569044906746E+00
(PID.TID 0000.0001) %MON dynstat_wvel_min             =  -1.5547932050912E+00
(PID.TID 0000.0001) %MON dynstat_wvel_mean            =   1.2979507803639E-04
(PID.TID 0000.0001) %MON dynstat_wvel_sd              =   2.2947306131303E-01
(PID.TID 0000.0001) %MON dynstat_wvel_del2            =   9.3649216911955E-02
(PID.TID 0000.0001) %MON dynstat_theta_max            =   2.9982785580741E+01
(PID.TID 0000.0001) %MON dynstat_theta_min            =  -3.1679769249380E+00
(PID.TID 0000.0001) %MON dynstat_theta_mean           =   3.6036486896853E+00
(PID.TID 0000.0001) %MON dynstat_theta_sd             =   4.4030320640198E+00
(PID.TID 0000.0001) %MON dynstat_theta_del2           =   1.4261321524852E-01
(PID.TID 0000.0001) %MON dynstat_salt_max             =   3.7433058134283E+01
(PID.TID 0000.0001) %MON dynstat_salt_min             =   2.9769554656244E+01
(PID.TID 0000.0001) %MON dynstat_salt_mean            =   3.4718001087010E+01
(PID.TID 0000.0001) %MON dynstat_salt_sd              =   2.9440921061601E-01
(PID.TID 0000.0001) %MON dynstat_salt_del2            =   2.6605029963420E-02
(PID.TID 0000.0001) %MON advcfl_uvel_max              =   1.1210750908065E-01
(PID.TID 0000.0001) %MON advcfl_vvel_max              =   5.1629939285748E-02
(PID.TID 0000.0001) %MON advcfl_wvel_max              =   1.2299767529994E-01
(PID.TID 0000.0001) %MON advcfl_W_hf_max              =   1.2299767529994E-01
(PID.TID 0000.0001) %MON pe_b_mean                    =  -7.8116846101019E-03
(PID.TID 0000.0001) %MON ke_max                       =   1.5884790981219E-02
(PID.TID 0000.0001) %MON ke_mean                      =   1.2345018059989E-04
(PID.TID 0000.0001) %MON ke_vol                       =   1.3442141716555E+22
(PID.TID 0000.0001) %MON vort_r_min                   =  -4.8909102707091E-07
(PID.TID 0000.0001) %MON vort_r_max                   =   4.9988509145846E-07
(PID.TID 0000.0001) %MON vort_a_mean                  =  -2.4531015159430E-05
(PID.TID 0000.0001) %MON vort_a_sd                    =   7.3436055917736E-05
(PID.TID 0000.0001) %MON vort_p_mean                  =  -2.9400485710277E-05
(PID.TID 0000.0001) %MON vort_p_sd                    =   1.0337537890246E-04
(PID.TID 0000.0001) %MON surfExpan_theta_mean         =   9.4388694879500E-04
(PID.TID 0000.0001) %MON surfExpan_salt_mean          =  -2.2212085612888E-05
(PID.TID 0000.0001) // =======================================================
(PID.TID 0000.0001) // End MONITOR dynamic field statistics
(PID.TID 0000.0001) // =======================================================
time,SST,SSS,fu,fv,Q,E-P,i0,i1,a,b =   2.5920E+06  1.6350E-01  0.0000E+00 -2.4327E-02 -3.6125E-02  1.3303E+02 -2.0964E-09     1     2  5.3333E-01  4.6667E-01
time,fu0,fu1,fu =   2.5920E+06 -3.5633E-02 -1.4435E-02 -2.4327E-02  5.3333E-01  4.6667E-01
 cg2d: Sum(rhs),rhsMax =  -1.66533453693773E-16  1.72996022066966E+02
(PID.TID 0000.0001)                    cg2d_init_res =    2.45008509668037E-03
(PID.TID 0000.0001)                       cg2d_iters =    89
(PID.TID 0000.0001)                         cg2d_res =    7.73750765680419E-10
(PID.TID 0000.0001) // =======================================================
(PID.TID 0000.0001) // Begin MONITOR dynamic field statistics
(PID.TID 0000.0001) // =======================================================
(PID.TID 0000.0001) %MON time_tsnumber                =                    16
(PID.TID 0000.0001) %MON time_secondsf                =   2.7648000000000E+06
(PID.TID 0000.0001) %MON dynstat_eta_max              =   4.6789405938976E+04
(PID.TID 0000.0001) %MON dynstat_eta_min              =  -9.2852436728152E+04
(PID.TID 0000.0001) %MON dynstat_eta_mean             =  -2.4263731809840E-12
(PID.TID 0000.0001) %MON dynstat_eta_sd               =   3.9659503890932E+04
(PID.TID 0000.0001) %MON dynstat_eta_del2             =   2.3966763343792E+04
(PID.TID 0000.0001) %MON dynstat_uvel_max             =   1.8326059198590E-01
(PID.TID 0000.0001) %MON dynstat_uvel_min             =  -8.7623465776191E-02
(PID.TID 0000.0001) %MON dynstat_uvel_mean            =   2.4727625608033E-04
(PID.TID 0000.0001) %MON dynstat_uvel_sd              =   1.3323140580782E-02
(PID.TID 0000.0001) %MON dynstat_uvel_del2            =   2.8447694519208E-03
(PID.TID 0000.0001) %MON dynstat_vvel_max             =   8.9080998842195E-02
(PID.TID 0000.0001) %MON dynstat_vvel_min             =  -1.3177977563318E-01
(PID.TID 0000.0001) %MON dynstat_vvel_mean            =   1.7431152157344E-05
(PID.TID 0000.0001) %MON dynstat_vvel_sd              =   1.0756937775330E-02
(PID.TID 0000.0001) %MON dynstat_vvel_del2            =   3.0670882855678E-03
(PID.TID 0000.0001) %MON dynstat_wvel_max             =   2.7623140564556E+00
(PID.TID 0000.0001) %MON dynstat_wvel_min             =  -1.5768143055669E+00
(PID.TID 0000.0001) %MON dynstat_wvel_mean            =   6.7075620793831E-05
(PID.TID 0000.0001) %MON dynstat_wvel_sd              =   2.2284687211626E-01
(PID.TID 0000.0001) %MON dynstat_wvel_del2            =   9.1870765815792E-02
(PID.TID 0000.0001) %MON dynstat_theta_max            =   2.9989060863063E+01
(PID.TID 0000.0001) %MON dynstat_theta_min            =  -3.2072080143470E+00
(PID.TID 0000.0001) %MON dynstat_theta_mean           =   3.6037435815491E+00
(PID.TID 0000.0001) %MON dynstat_theta_sd             =   4.4032904938877E+00
(PID.TID 0000.0001) %MON dynstat_theta_del2           =   1.4297894111486E-01
(PID.TID 0000.0001) %MON dynstat_salt_max             =   3.7433192125263E+01
(PID.TID 0000.0001) %MON dynstat_salt_min             =   2.9768463770749E+01
(PID.TID 0000.0001) %MON dynstat_salt_mean            =   3.4718001020331E+01
(PID.TID 0000.0001) %MON dynstat_salt_sd              =   2.9441201053623E-01
(PID.TID 0000.0001) %MON dynstat_salt_del2            =   2.6649050902435E-02
(PID.TID 0000.0001) %MON advcfl_uvel_max              =   1.1547897317537E-01
(PID.TID 0000.0001) %MON advcfl_vvel_max              =   5.1205393824044E-02
(PID.TID 0000.0001) %MON advcfl_wvel_max              =   1.1294530438996E-01
(PID.TID 0000.0001) %MON advcfl_W_hf_max              =   1.1294530438996E-01
(PID.TID 0000.0001) %MON pe_b_mean                    =  -7.7299703761877E-03
(PID.TID 0000.0001) %MON ke_max                       =   1.6992342859805E-02
(PID.TID 0000.0001) %MON ke_mean                      =   1.3228021475551E-04
(PID.TID 0000.0001) %MON ke_vol                       =   1.3442141716555E+22
(PID.TID 0000.0001) %MON vort_r_min                   =  -4.8631187425592E-07
(PID.TID 0000.0001) %MON vort_r_max                   =   5.2770228819662E-07
(PID.TID 0000.0001) %MON vort_a_mean                  =  -2.4531015284976E-05
(PID.TID 0000.0001) %MON vort_a_sd                    =   7.3436065618286E-05
(PID.TID 0000.0001) %MON vort_p_mean                  =  -2.9400527412205E-05
(PID.TID 0000.0001) %MON vort_p_sd                    =   1.0337585325661E-04
(PID.TID 0000.0001) %MON surfExpan_theta_mean         =   8.6715430967255E-04
(PID.TID 0000.0001) %MON surfExpan_salt_mean          =   1.2480401640896E-05
(PID.TID 0000.0001) // =======================================================
(PID.TID 0000.0001) // End MONITOR dynamic field statistics
(PID.TID 0000.0001) // =======================================================
time,SST,SSS,fu,fv,Q,E-P,i0,i1,a,b =   2.7648E+06  6.4124E-02  0.0000E+00 -2.2914E-02 -3.3484E-02  1.3556E+02 -2.0964E-09     1     2  6.0000E-01  4.0000E-01
time,fu0,fu1,fu =   2.7648E+06 -3.5633E-02 -1.4435E-02 -2.2914E-02  6.0000E-01  4.0000E-01
 cg2d: Sum(rhs),rhsMax =  -1.66533453693773E-16  1.72993070116000E+02
(PID.TID 0000.0001)                    cg2d_init_res =    2.30541350156234E-03
(PID.TID 0000.0001)                       cg2d_iters =    86
(PID.TID 0000.0001)                         cg2d_res =    9.80493554934950E-10
(PID.TID 0000.0001) // =======================================================
(PID.TID 0000.0001) // Begin MONITOR dynamic field statistics
(PID.TID 0000.0001) // =======================================================
(PID.TID 0000.0001) %MON time_tsnumber                =                    17
(PID.TID 0000.0001) %MON time_secondsf                =   2.9376000000000E+06
(PID.TID 0000.0001) %MON dynstat_eta_max              =   4.8392797065095E+04
(PID.TID 0000.0001) %MON dynstat_eta_min              =  -9.2898951790145E+04
(PID.TID 0000.0001) %MON dynstat_eta_mean             =  -2.5321976948072E-12
(PID.TID 0000.0001) %MON dynstat_eta_sd               =   3.9709927340981E+04
(PID.TID 0000.0001) %MON dynstat_eta_del2             =   2.3967311187149E+04
(PID.TID 0000.0001) %MON dynstat_uvel_max             =   1.9076618932105E-01
(PID.TID 0000.0001) %MON dynstat_uvel_min             =  -9.1158802867278E-02
(PID.TID 0000.0001) %MON dynstat_uvel_mean            =   3.4910137497112E-04
(PID.TID 0000.0001) %MON dynstat_uvel_sd              =   1.4133812149429E-02
(PID.TID 0000.0001) %MON dynstat_uvel_del2            =   2.9457256095874E-03
(PID.TID 0000.0001) %MON dynstat_vvel_max             =   9.2144757699594E-02
(PID.TID 0000.0001) %MON dynstat_vvel_min             =  -1.2921766108887E-01
(PID.TID 0000.0001) %MON dynstat_vvel_mean            =  -1.5114334468529E-05
(PID.TID 0000.0001) %MON dynstat_vvel_sd              =   1.0552145670269E-02
(PID.TID 0000.0001) %MON dynstat_vvel_del2            =   3.0594166998036E-03
(PID.TID 0000.0001) %MON dynstat_wvel_max             =   2.8570474406975E+00
(PID.TID 0000.0001) %MON dynstat_wvel_min             =  -1.5805358431705E+00
(PID.TID 0000.0001) %MON dynstat_wvel_mean            =   2.3315401980140E-05
(PID.TID 0000.0001) %MON dynstat_wvel_sd              =   2.1606932846065E-01
(PID.TID 0000.0001) %MON dynstat_wvel_del2            =   9.0379056950804E-02
(PID.TID 0000.0001) %MON dynstat_theta_max            =   2.9990663773984E+01
(PID.TID 0000.0001) %MON dynstat_theta_min            =  -3.2418974117261E+00
(PID.TID 0000.0001) %MON dynstat_theta_mean           =   3.6038393020907E+00
(PID.TID 0000.0001) %MON dynstat_theta_sd             =   4.4035652004765E+00
(PID.TID 0000.0001) %MON dynstat_theta_del2           =   1.4327287477901E-01
(PID.TID 0000.0001) %MON dynstat_salt_max             =   3.7433460601974E+01
(PID.TID 0000.0001) %MON dynstat_salt_min             =   2.9767300644927E+01
(PID.TID 0000.0001) %MON dynstat_salt_mean            =   3.4718000930099E+01
(PID.TID 0000.0001) %MON dynstat_salt_sd              =   2.9441346812111E-01
(PID.TID 0000.0001) %MON dynstat_salt_del2            =   2.6687101279480E-02
(PID.TID 0000.0001) %MON advcfl_uvel_max              =   1.1878421815170E-01
(PID.TID 0000.0001) %MON advcfl_vvel_max              =   5.0209838294882E-02
(PID.TID 0000.0001) %MON advcfl_wvel_max              =   1.0048998823486E-01
(PID.TID 0000.0001) %MON advcfl_W_hf_max              =   1.0048998823486E-01
(PID.TID 0000.0001) %MON pe_b_mean                    =  -7.7031976055354E-03
(PID.TID 0000.0001) %MON ke_max                       =   1.7979383853277E-02
(PID.TID 0000.0001) %MON ke_mean                      =   1.4043121442934E-04
(PID.TID 0000.0001) %MON ke_vol                       =   1.3442141716555E+22
(PID.TID 0000.0001) %MON vort_r_min                   =  -5.1066411410351E-07
(PID.TID 0000.0001) %MON vort_r_max                   =   5.4986962608467E-07
(PID.TID 0000.0001) %MON vort_a_mean                  =  -2.4531015431941E-05
(PID.TID 0000.0001) %MON vort_a_sd                    =   7.3436083563404E-05
(PID.TID 0000.0001) %MON vort_p_mean                  =  -2.9400569134545E-05
(PID.TID 0000.0001) %MON vort_p_sd                    =   1.0337625318573E-04
(PID.TID 0000.0001) %MON surfExpan_theta_mean         =   4.6724516592975E-04
(PID.TID 0000.0001) %MON surfExpan_salt_mean          =   5.0635246124508E-05
(PID.TID 0000.0001) // =======================================================
(PID.TID 0000.0001) // End MONITOR dynamic field statistics
(PID.TID 0000.0001) // =======================================================
time,SST,SSS,fu,fv,Q,E-P,i0,i1,a,b =   2.9376E+06 -3.5249E-02  0.0000E+00 -2.1501E-02 -3.0843E-02  1.3808E+02 -2.0964E-09     1     2  6.6667E-01  3.3333E-01
time,fu0,fu1,fu =   2.9376E+06 -3.5633E-02 -1.4435E-02 -2.1501E-02  6.6667E-01  3.3333E-01
 cg2d: Sum(rhs),rhsMax =   2.63677968348475E-16  1.72989818823049E+02
(PID.TID 0000.0001)                    cg2d_init_res =    2.20657756210015E-03
(PID.TID 0000.0001)                       cg2d_iters =    84
(PID.TID 0000.0001)                         cg2d_res =    8.44018806641019E-10
(PID.TID 0000.0001) // =======================================================
(PID.TID 0000.0001) // Begin MONITOR dynamic field statistics
(PID.TID 0000.0001) // =======================================================
(PID.TID 0000.0001) %MON time_tsnumber                =                    18
(PID.TID 0000.0001) %MON time_secondsf                =   3.1104000000000E+06
(PID.TID 0000.0001) %MON dynstat_eta_max              =   4.8834901967634E+04
(PID.TID 0000.0001) %MON dynstat_eta_min              =  -9.2835667851939E+04
(PID.TID 0000.0001) %MON dynstat_eta_mean             =  -6.1357700972876E-12
(PID.TID 0000.0001) %MON dynstat_eta_sd               =   3.9723822732025E+04
(PID.TID 0000.0001) %MON dynstat_eta_del2             =   2.3967135699173E+04
(PID.TID 0000.0001) %MON dynstat_uvel_max             =   1.9673996481535E-01
(PID.TID 0000.0001) %MON dynstat_uvel_min             =  -9.5060539827593E-02
(PID.TID 0000.0001) %MON dynstat_uvel_mean            =   4.6370201557754E-04
(PID.TID 0000.0001) %MON dynstat_uvel_sd              =   1.4870643207826E-02
(PID.TID 0000.0001) %MON dynstat_uvel_del2            =   3.0459660703842E-03
(PID.TID 0000.0001) %MON dynstat_vvel_max             =   9.4736791357298E-02
(PID.TID 0000.0001) %MON dynstat_vvel_min             =  -1.2522379481547E-01
(PID.TID 0000.0001) %MON dynstat_vvel_mean            =  -4.6941415042785E-05
(PID.TID 0000.0001) %MON dynstat_vvel_sd              =   1.0310270044951E-02
(PID.TID 0000.0001) %MON dynstat_vvel_del2            =   3.0533328328517E-03
(PID.TID 0000.0001) %MON dynstat_wvel_max             =   2.9401062609262E+00
(PID.TID 0000.0001) %MON dynstat_wvel_min             =  -1.6425587314123E+00
(PID.TID 0000.0001) %MON dynstat_wvel_mean            =  -8.0936295044723E-06
(PID.TID 0000.0001) %MON dynstat_wvel_sd              =   2.0968400296952E-01
(PID.TID 0000.0001) %MON dynstat_wvel_del2            =   8.9285516341658E-02
(PID.TID 0000.0001) %MON dynstat_theta_max            =   2.9987563634940E+01
(PID.TID 0000.0001) %MON dynstat_theta_min            =  -3.2721039006167E+00
(PID.TID 0000.0001) %MON dynstat_theta_mean           =   3.6039358448372E+00
(PID.TID 0000.0001) %MON dynstat_theta_sd             =   4.4038589265703E+00
(PID.TID 0000.0001) %MON dynstat_theta_del2           =   1.4350319132569E-01
(PID.TID 0000.0001) %MON dynstat_salt_max             =   3.7433867092846E+01
(PID.TID 0000.0001) %MON dynstat_salt_min             =   2.9766010524434E+01
(PID.TID 0000.0001) %MON dynstat_salt_mean            =   3.4718000829492E+01
(PID.TID 0000.0001) %MON dynstat_salt_sd              =   2.9441390429794E-01
(PID.TID 0000.0001) %MON dynstat_salt_del2            =   2.6708400585591E-02
(PID.TID 0000.0001) %MON advcfl_uvel_max              =   1.2370205306022E-01
(PID.TID 0000.0001) %MON advcfl_vvel_max              =   4.8657949968866E-02
(PID.TID 0000.0001) %MON advcfl_wvel_max              =   9.8319616505777E-02
(PID.TID 0000.0001) %MON advcfl_W_hf_max              =   9.8319616505777E-02
(PID.TID 0000.0001) %MON pe_b_mean                    =  -7.7318655583727E-03
(PID.TID 0000.0001) %MON ke_max                       =   1.8840518487564E-02
(PID.TID 0000.0001) %MON ke_mean                      =   1.4789028421486E-04
(PID.TID 0000.0001) %MON ke_vol                       =   1.3442141716555E+22
(PID.TID 0000.0001) %MON vort_r_min                   =  -5.3031880552934E-07
(PID.TID 0000.0001) %MON vort_r_max                   =   5.6701062740654E-07
(PID.TID 0000.0001) %MON vort_a_mean                  =  -2.4531015571414E-05
(PID.TID 0000.0001) %MON vort_a_sd                    =   7.3436104415797E-05
(PID.TID 0000.0001) %MON vort_p_mean                  =  -2.9400602137696E-05
(PID.TID 0000.0001) %MON vort_p_sd                    =   1.0337650151509E-04
(PID.TID 0000.0001) %MON surfExpan_theta_mean         =  -1.3057687609806E-05
(PID.TID 0000.0001) %MON surfExpan_salt_mean          =   8.5133114123178E-05
(PID.TID 0000.0001) // =======================================================
(PID.TID 0000.0001) // End MONITOR dynamic field statistics
(PID.TID 0000.0001) // =======================================================
time,SST,SSS,fu,fv,Q,E-P,i0,i1,a,b =   3.1104E+06 -1.3462E-01  0.0000E+00 -2.0088E-02 -2.8201E-02  1.4061E+02 -2.0964E-09     1     2  7.3333E-01  2.6667E-01
time,fu0,fu1,fu =   3.1104E+06 -3.5633E-02 -1.4435E-02 -2.0088E-02  7.3333E-01  2.6667E-01
 cg2d: Sum(rhs),rhsMax =  -1.24900090270330E-16  1.72986107157334E+02
(PID.TID 0000.0001)                    cg2d_init_res =    2.18102075744880E-03
(PID.TID 0000.0001)                       cg2d_iters =    87
(PID.TID 0000.0001)                         cg2d_res =    8.56758188883266E-10
(PID.TID 0000.0001) // =======================================================
(PID.TID 0000.0001) // Begin MONITOR dynamic field statistics
(PID.TID 0000.0001) // =======================================================
(PID.TID 0000.0001) %MON time_tsnumber                =                    19
(PID.TID 0000.0001) %MON time_secondsf                =   3.2832000000000E+06
(PID.TID 0000.0001) %MON dynstat_eta_max              =   4.8224387810835E+04
(PID.TID 0000.0001) %MON dynstat_eta_min              =  -9.2712801151432E+04
(PID.TID 0000.0001) %MON dynstat_eta_mean             =   5.7806651660442E-12
(PID.TID 0000.0001) %MON dynstat_eta_sd               =   3.9703080446797E+04
(PID.TID 0000.0001) %MON dynstat_eta_del2             =   2.3966250517720E+04
(PID.TID 0000.0001) %MON dynstat_uvel_max             =   2.0110488562270E-01
(PID.TID 0000.0001) %MON dynstat_uvel_min             =  -9.8447664576721E-02
(PID.TID 0000.0001) %MON dynstat_uvel_mean            =   5.6927868164450E-04
(PID.TID 0000.0001) %MON dynstat_uvel_sd              =   1.5524672097449E-02
(PID.TID 0000.0001) %MON dynstat_uvel_del2            =   3.1434729665341E-03
(PID.TID 0000.0001) %MON dynstat_vvel_max             =   9.6880621949245E-02
(PID.TID 0000.0001) %MON dynstat_vvel_min             =  -1.1986189037159E-01
(PID.TID 0000.0001) %MON dynstat_vvel_mean            =  -6.3709247180645E-05
(PID.TID 0000.0001) %MON dynstat_vvel_sd              =   1.0056186913520E-02
(PID.TID 0000.0001) %MON dynstat_vvel_del2            =   3.0513816223691E-03
(PID.TID 0000.0001) %MON dynstat_wvel_max             =   3.0106680347352E+00
(PID.TID 0000.0001) %MON dynstat_wvel_min             =  -1.7726738951175E+00
(PID.TID 0000.0001) %MON dynstat_wvel_mean            =  -3.4991382505196E-05
(PID.TID 0000.0001) %MON dynstat_wvel_sd              =   2.0415220987053E-01
(PID.TID 0000.0001) %MON dynstat_wvel_del2            =   8.8715894787574E-02
(PID.TID 0000.0001) %MON dynstat_theta_max            =   2.9979731582096E+01
(PID.TID 0000.0001) %MON dynstat_theta_min            =  -3.2978794209873E+00
(PID.TID 0000.0001) %MON dynstat_theta_mean           =   3.6040337120728E+00
(PID.TID 0000.0001) %MON dynstat_theta_sd             =   4.4041721426778E+00
(PID.TID 0000.0001) %MON dynstat_theta_del2           =   1.4382684936810E-01
(PID.TID 0000.0001) %MON dynstat_salt_max             =   3.7434407378920E+01
(PID.TID 0000.0001) %MON dynstat_salt_min             =   2.9764561512308E+01
(PID.TID 0000.0001) %MON dynstat_salt_mean            =   3.4718000738345E+01
(PID.TID 0000.0001) %MON dynstat_salt_sd              =   2.9441595825719E-01
(PID.TID 0000.0001) %MON dynstat_salt_del2            =   2.6751195257701E-02
(PID.TID 0000.0001) %MON advcfl_uvel_max              =   1.2742110724838E-01
(PID.TID 0000.0001) %MON advcfl_vvel_max              =   4.6574485891189E-02
(PID.TID 0000.0001) %MON advcfl_wvel_max              =   9.7953098619630E-02
(PID.TID 0000.0001) %MON advcfl_W_hf_max              =   9.7953098619630E-02
(PID.TID 0000.0001) %MON pe_b_mean                    =  -7.8070785074202E-03
(PID.TID 0000.0001) %MON ke_max                       =   1.9573379174943E-02
(PID.TID 0000.0001) %MON ke_mean                      =   1.5462324650433E-04
(PID.TID 0000.0001) %MON ke_vol                       =   1.3442141716555E+22
(PID.TID 0000.0001) %MON vort_r_min                   =  -5.4491986943831E-07
(PID.TID 0000.0001) %MON vort_r_max                   =   5.7991893718312E-07
(PID.TID 0000.0001) %MON vort_a_mean                  =  -2.4531015679743E-05
(PID.TID 0000.0001) %MON vort_a_sd                    =   7.3436123403868E-05
(PID.TID 0000.0001) %MON vort_p_mean                  =  -2.9400621938255E-05
(PID.TID 0000.0001) %MON vort_p_sd                    =   1.0337655976064E-04
(PID.TID 0000.0001) %MON surfExpan_theta_mean         =  -3.6261606636009E-04
(PID.TID 0000.0001) %MON surfExpan_salt_mean          =   1.1038369875512E-04
(PID.TID 0000.0001) // =======================================================
(PID.TID 0000.0001) // End MONITOR dynamic field statistics
(PID.TID 0000.0001) // =======================================================
time,SST,SSS,fu,fv,Q,E-P,i0,i1,a,b =   3.2832E+06 -2.3399E-01  0.0000E+00 -1.8674E-02 -2.5560E-02  1.4314E+02 -2.0964E-09     1     2  8.0000E-01  2.0000E-01
time,fu0,fu1,fu =   3.2832E+06 -3.5633E-02 -1.4435E-02 -1.8674E-02  8.0000E-01  2.0000E-01
 cg2d: Sum(rhs),rhsMax =  -1.49880108324396E-15  1.72981616755526E+02
(PID.TID 0000.0001)                    cg2d_init_res =    2.20678526676200E-03
(PID.TID 0000.0001)                       cg2d_iters =    88
(PID.TID 0000.0001)                         cg2d_res =    8.50857072354783E-10
(PID.TID 0000.0001) // =======================================================
(PID.TID 0000.0001) // Begin MONITOR dynamic field statistics
(PID.TID 0000.0001) // =======================================================
(PID.TID 0000.0001) %MON time_tsnumber                =                    20
(PID.TID 0000.0001) %MON time_secondsf                =   3.4560000000000E+06
(PID.TID 0000.0001) %MON dynstat_eta_max              =   4.6919005419131E+04
(PID.TID 0000.0001) %MON dynstat_eta_min              =  -9.2592391553804E+04
(PID.TID 0000.0001) %MON dynstat_eta_mean             =   1.1875993921403E-12
(PID.TID 0000.0001) %MON dynstat_eta_sd               =   3.9661648705774E+04
(PID.TID 0000.0001) %MON dynstat_eta_del2             =   2.3964945571459E+04
(PID.TID 0000.0001) %MON dynstat_uvel_max             =   2.0380492237442E-01
(PID.TID 0000.0001) %MON dynstat_uvel_min             =  -1.0119271351064E-01
(PID.TID 0000.0001) %MON dynstat_uvel_mean            =   6.5145501847691E-04
(PID.TID 0000.0001) %MON dynstat_uvel_sd              =   1.6087071613469E-02
(PID.TID 0000.0001) %MON dynstat_uvel_del2            =   3.2340693052590E-03
(PID.TID 0000.0001) %MON dynstat_vvel_max             =   9.8610241397014E-02
(PID.TID 0000.0001) %MON dynstat_vvel_min             =  -1.1322532849998E-01
(PID.TID 0000.0001) %MON dynstat_vvel_mean            =  -5.8030660618936E-05
(PID.TID 0000.0001) %MON dynstat_vvel_sd              =   9.8150653861472E-03
(PID.TID 0000.0001) %MON dynstat_vvel_del2            =   3.0584558743831E-03
(PID.TID 0000.0001) %MON dynstat_wvel_max             =   3.0682364113621E+00
(PID.TID 0000.0001) %MON dynstat_wvel_min             =  -1.8897157139922E+00
(PID.TID 0000.0001) %MON dynstat_wvel_mean            =  -6.2928682844485E-05
(PID.TID 0000.0001) %MON dynstat_wvel_sd              =   1.9981011353268E-01
(PID.TID 0000.0001) %MON dynstat_wvel_del2            =   8.8540856878390E-02
(PID.TID 0000.0001) %MON dynstat_theta_max            =   2.9967149828683E+01
(PID.TID 0000.0001) %MON dynstat_theta_min            =  -3.3192712225289E+00
(PID.TID 0000.0001) %MON dynstat_theta_mean           =   3.6041327875055E+00
(PID.TID 0000.0001) %MON dynstat_theta_sd             =   4.4045043961956E+00
(PID.TID 0000.0001) %MON dynstat_theta_del2           =   1.4394224940705E-01
(PID.TID 0000.0001) %MON dynstat_salt_max             =   3.7435274147517E+01
(PID.TID 0000.0001) %MON dynstat_salt_min             =   2.9762948626869E+01
(PID.TID 0000.0001) %MON dynstat_salt_mean            =   3.4718000671543E+01
(PID.TID 0000.0001) %MON dynstat_salt_sd              =   2.9441587652992E-01
(PID.TID 0000.0001) %MON dynstat_salt_del2            =   2.6780454885955E-02
(PID.TID 0000.0001) %MON advcfl_uvel_max              =   1.2984289288530E-01
(PID.TID 0000.0001) %MON advcfl_vvel_max              =   4.3995730823193E-02
(PID.TID 0000.0001) %MON advcfl_wvel_max              =   9.7216024118124E-02
(PID.TID 0000.0001) %MON advcfl_W_hf_max              =   9.7216024118124E-02
(PID.TID 0000.0001) %MON pe_b_mean                    =  -7.9131751042498E-03
(PID.TID 0000.0001) %MON ke_max                       =   2.0295634582817E-02
(PID.TID 0000.0001) %MON ke_mean                      =   1.6057159230543E-04
(PID.TID 0000.0001) %MON ke_vol                       =   1.3442141716555E+22
(PID.TID 0000.0001) %MON vort_r_min                   =  -5.5421656601516E-07
(PID.TID 0000.0001) %MON vort_r_max                   =   5.8935153664088E-07
(PID.TID 0000.0001) %MON vort_a_mean                  =  -2.4531015741706E-05
(PID.TID 0000.0001) %MON vort_a_sd                    =   7.3436137405296E-05
(PID.TID 0000.0001) %MON vort_p_mean                  =  -2.9400628701737E-05
(PID.TID 0000.0001) %MON vort_p_sd                    =   1.0337644867771E-04
(PID.TID 0000.0001) %MON surfExpan_theta_mean         =  -4.5391094252805E-04
(PID.TID 0000.0001) %MON surfExpan_salt_mean          =   1.2287946970987E-04
(PID.TID 0000.0001) // =======================================================
(PID.TID 0000.0001) // End MONITOR dynamic field statistics
(PID.TID 0000.0001) // =======================================================
(PID.TID 0000.0001) %CHECKPOINT        20 ckptA
(PID.TID 0000.0001)   Seconds in section "ALL                    [THE_MODEL_MAIN]":
(PID.TID 0000.0001)           User time:  16.9500008
(PID.TID 0000.0001)         System time:  0.119999995
(PID.TID 0000.0001)     Wall clock time:  17.285453
(PID.TID 0000.0001)          No. starts: 1
(PID.TID 0000.0001)           No. stops: 1
(PID.TID 0000.0001)   Seconds in section "INITIALISE_FIXED       [THE_MODEL_MAIN]":
(PID.TID 0000.0001)           User time:  0.159999996
(PID.TID 0000.0001)         System time:  0.0199999996
(PID.TID 0000.0001)     Wall clock time:  0.195224047
(PID.TID 0000.0001)          No. starts: 1
(PID.TID 0000.0001)           No. stops: 1
(PID.TID 0000.0001)   Seconds in section "THE_MAIN_LOOP          [THE_MODEL_MAIN]":
(PID.TID 0000.0001)           User time:  16.7100008
(PID.TID 0000.0001)         System time:  0.0600000042
(PID.TID 0000.0001)     Wall clock time:  16.95346
(PID.TID 0000.0001)          No. starts: 1
(PID.TID 0000.0001)           No. stops: 1
(PID.TID 0000.0001)   Seconds in section "INITIALISE_VARIA    [THE_MAIN_LOOP]":
(PID.TID 0000.0001)           User time:  0.170000017
(PID.TID 0000.0001)         System time:  0.00999999978
(PID.TID 0000.0001)     Wall clock time:  0.276869059
(PID.TID 0000.0001)          No. starts: 1
(PID.TID 0000.0001)           No. stops: 1
(PID.TID 0000.0001)   Seconds in section "MONITOR             [THE_MAIN_LOOP]":
(PID.TID 0000.0001)           User time:  0.099999994
(PID.TID 0000.0001)         System time:  0.
(PID.TID 0000.0001)     Wall clock time:  0.0984220505
(PID.TID 0000.0001)          No. starts: 1
(PID.TID 0000.0001)           No. stops: 1
(PID.TID 0000.0001)   Seconds in section "DO_THE_MODEL_IO     [THE_MAIN_LOOP]":
(PID.TID 0000.0001)           User time:  0.0499999821
(PID.TID 0000.0001)         System time:  0.
(PID.TID 0000.0001)     Wall clock time:  0.0723119974
(PID.TID 0000.0001)          No. starts: 1
(PID.TID 0000.0001)           No. stops: 1
(PID.TID 0000.0001)   Seconds in section "MAIN LOOP           [THE_MAIN_LOOP]":
(PID.TID 0000.0001)           User time:  16.3900008
(PID.TID 0000.0001)         System time:  0.0500000045
(PID.TID 0000.0001)     Wall clock time:  16.505744
(PID.TID 0000.0001)          No. starts: 1
(PID.TID 0000.0001)           No. stops: 1
(PID.TID 0000.0001)   Seconds in section "FORWARD_STEP        [THE_MAIN_LOOP]":
(PID.TID 0000.0001)           User time:  16.3900008
(PID.TID 0000.0001)         System time:  0.0500000045
(PID.TID 0000.0001)     Wall clock time:  16.5053031
(PID.TID 0000.0001)          No. starts: 20
(PID.TID 0000.0001)           No. stops: 20
(PID.TID 0000.0001)   Seconds in section "UPDATE_ETAH        [FORWARD_STEP]":
(PID.TID 0000.0001)           User time:  0.
(PID.TID 0000.0001)         System time:  0.
(PID.TID 0000.0001)     Wall clock time:  0.00220525265
(PID.TID 0000.0001)          No. starts: 20
(PID.TID 0000.0001)           No. stops: 20
(PID.TID 0000.0001)   Seconds in section "CALC_SURF_DR      [FORWARD_STEP]":
(PID.TID 0000.0001)           User time:  0.0100002289
(PID.TID 0000.0001)         System time:  0.
(PID.TID 0000.0001)     Wall clock time:  0.0288420916
(PID.TID 0000.0001)          No. starts: 20
(PID.TID 0000.0001)           No. stops: 20
(PID.TID 0000.0001)   Seconds in section "EXTERNAL_FIELDS_LOAD[FORWARD_STEP]":
(PID.TID 0000.0001)           User time:  0.0599992573
(PID.TID 0000.0001)         System time:  0.00999999791
(PID.TID 0000.0001)     Wall clock time:  0.110203147
(PID.TID 0000.0001)          No. starts: 20
(PID.TID 0000.0001)           No. stops: 20
(PID.TID 0000.0001)   Seconds in section "THERMODYNAMICS      [FORWARD_STEP]":
(PID.TID 0000.0001)           User time:  4.85999846
(PID.TID 0000.0001)         System time:  0.
(PID.TID 0000.0001)     Wall clock time:  4.87078702
(PID.TID 0000.0001)          No. starts: 20
(PID.TID 0000.0001)           No. stops: 20
(PID.TID 0000.0001)   Seconds in section "BLOCKING_EXCHANGES  [FORWARD_STEP]":
(PID.TID 0000.0001)           User time:  0.0699999332
(PID.TID 0000.0001)         System time:  0.
(PID.TID 0000.0001)     Wall clock time:  0.0459010601
(PID.TID 0000.0001)          No. starts: 40
(PID.TID 0000.0001)           No. stops: 40
(PID.TID 0000.0001)   Seconds in section "DYNAMICS            [FORWARD_STEP]":
(PID.TID 0000.0001)           User time:  4.74000263
(PID.TID 0000.0001)         System time:  0.0100000016
(PID.TID 0000.0001)     Wall clock time:  4.74826491
(PID.TID 0000.0001)          No. starts: 20
(PID.TID 0000.0001)           No. stops: 20
(PID.TID 0000.0001)   Seconds in section "UPDATE_SURF_DR     [FORWARD_STEP]":
(PID.TID 0000.0001)           User time:  0.00999999046
(PID.TID 0000.0001)         System time:  0.
(PID.TID 0000.0001)     Wall clock time:  0.0168045759
(PID.TID 0000.0001)          No. starts: 20
(PID.TID 0000.0001)           No. stops: 20
(PID.TID 0000.0001)   Seconds in section "UPDATE_CG2D        [FORWARD_STEP]":
(PID.TID 0000.0001)           User time:  0.129999399
(PID.TID 0000.0001)         System time:  0.
(PID.TID 0000.0001)     Wall clock time:  0.145551085
(PID.TID 0000.0001)          No. starts: 20
(PID.TID 0000.0001)           No. stops: 20
(PID.TID 0000.0001)   Seconds in section "SOLVE_FOR_PRESSURE  [FORWARD_STEP]":
(PID.TID 0000.0001)           User time:  3.20999932
(PID.TID 0000.0001)         System time:  0.
(PID.TID 0000.0001)     Wall clock time:  3.1908412
(PID.TID 0000.0001)          No. starts: 20
(PID.TID 0000.0001)           No. stops: 20
(PID.TID 0000.0001)   Seconds in section "THE_CORRECTION_STEP [FORWARD_STEP]":
(PID.TID 0000.0001)           User time:  1.25999939
(PID.TID 0000.0001)         System time:  0.
(PID.TID 0000.0001)     Wall clock time:  1.28175223
(PID.TID 0000.0001)          No. starts: 20
(PID.TID 0000.0001)           No. stops: 20
(PID.TID 0000.0001)   Seconds in section "MONITOR             [FORWARD_STEP]":
(PID.TID 0000.0001)           User time:  1.99000108
(PID.TID 0000.0001)         System time:  0.
(PID.TID 0000.0001)     Wall clock time:  1.9886862
(PID.TID 0000.0001)          No. starts: 20
(PID.TID 0000.0001)           No. stops: 20
(PID.TID 0000.0001)   Seconds in section "DO_THE_MODEL_IO     [FORWARD_STEP]":
(PID.TID 0000.0001)           User time:  0.0400009155
(PID.TID 0000.0001)         System time:  0.0300000049
(PID.TID 0000.0001)     Wall clock time:  0.0685619116
(PID.TID 0000.0001)          No. starts: 20
(PID.TID 0000.0001)           No. stops: 20
(PID.TID 0000.0001)   Seconds in section "WRITE_CHECKPOINT    [FORWARD_STEP]":
(PID.TID 0000.0001)           User time:  0.
(PID.TID 0000.0001)         System time:  0.
(PID.TID 0000.0001)     Wall clock time:  0.00043797493
(PID.TID 0000.0001)          No. starts: 20
(PID.TID 0000.0001)           No. stops: 20
(PID.TID 0000.0001)   Seconds in section "WRITE_CHECKPOINT       [THE_MODEL_MAIN]":
(PID.TID 0000.0001)           User time:  0.0799999237
(PID.TID 0000.0001)         System time:  0.0399999917
(PID.TID 0000.0001)     Wall clock time:  0.136667013
(PID.TID 0000.0001)          No. starts: 1
(PID.TID 0000.0001)           No. stops: 1
(PID.TID 0000.0001) // ======================================================
(PID.TID 0000.0001) // Tile <-> Tile communication statistics
(PID.TID 0000.0001) // ======================================================
(PID.TID 0000.0001) // o Tile number: 000001
(PID.TID 0000.0001) //         No. X exchanges =              0
(PID.TID 0000.0001) //            Max. X spins =              0
(PID.TID 0000.0001) //            Min. X spins =     1000000000
(PID.TID 0000.0001) //          Total. X spins =              0
(PID.TID 0000.0001) //            Avg. X spins =       0.00E+00
(PID.TID 0000.0001) //         No. Y exchanges =              0
(PID.TID 0000.0001) //            Max. Y spins =              0
(PID.TID 0000.0001) //            Min. Y spins =     1000000000
(PID.TID 0000.0001) //          Total. Y spins =              0
(PID.TID 0000.0001) //            Avg. Y spins =       0.00E+00
(PID.TID 0000.0001) // o Thread number: 000001
(PID.TID 0000.0001) //            No. barriers =          29498
(PID.TID 0000.0001) //      Max. barrier spins =              1
(PID.TID 0000.0001) //      Min. barrier spins =              1
(PID.TID 0000.0001) //     Total barrier spins =          29498
(PID.TID 0000.0001) //      Avg. barrier spins =       1.00E+00
