(PID.TID 0000.0001) 
(PID.TID 0000.0001) // ======================================================
(PID.TID 0000.0001) //                      MITgcm UV
(PID.TID 0000.0001) //                      =========
(PID.TID 0000.0001) // ======================================================
(PID.TID 0000.0001) // execution environment starting up...
(PID.TID 0000.0001) // Run starting Wed Apr  1 14:19:48 1998
(PID.TID 0000.0001) // on melville.lcs.mit.edu
(PID.TID 0000.0001) // account cnh
(PID.TID 0000.0001) // MITgcm UV Release: $Name:  $
(PID.TID 0000.0001) 
(PID.TID 0000.0001) // =======================================================
(PID.TID 0000.0001) // Execution Environment parameter file "eedata"
(PID.TID 0000.0001) // =======================================================
(PID.TID 0000.0001) ># Example "eedata" file
(PID.TID 0000.0001) ># Lines beginning "#" are comments
(PID.TID 0000.0001) ># nTx - No. threads per process in X
(PID.TID 0000.0001) ># nTy - No. threads per process in Y
(PID.TID 0000.0001) > &EEPARMS
(PID.TID 0000.0001) > nTx=1,nTy=1
(PID.TID 0000.0001) > &
(PID.TID 0000.0001) ># Note: Some systems use & as the
(PID.TID 0000.0001) ># namelist terminator. Other systems
(PID.TID 0000.0001) ># use a / character (as shown here).
(PID.TID 0000.0001) ># BUT some compilers do not understand "/"
(PID.TID 0000.0001) 
(PID.TID 0000.0001) // =======================================================
(PID.TID 0000.0001) // Computational Grid Specification ( see files "SIZE.h" )
(PID.TID 0000.0001) //                                  ( and "eedata"       )
(PID.TID 0000.0001) // =======================================================
(PID.TID 0000.0001)      nPx =    1 ; /* No. processes in X */
(PID.TID 0000.0001)      nPy =    1 ; /* No. processes in Y */
(PID.TID 0000.0001)      nSx =    1 ; /* No. tiles in X per process */
(PID.TID 0000.0001)      nSy =    1 ; /* No. tiles in Y per process */
(PID.TID 0000.0001)      sNx =   90 ; /* Tile size in X */
(PID.TID 0000.0001)      sNy =   40 ; /* Tile size in Y */
(PID.TID 0000.0001)      OLx =    2 ; /* Tile overlap distance in X */
(PID.TID 0000.0001)      OLy =    2 ; /* Tile overlap distance in Y */
(PID.TID 0000.0001)      nTx =    1 ; /* No. threads in X per process */
(PID.TID 0000.0001)      nTy =    1 ; /* No. threads in Y per process */
(PID.TID 0000.0001)       Nr =   15 ; /* No. levels in the vertical   */
(PID.TID 0000.0001)       nX =   90 ; /* Total domain size in X ( = nPx*nSx*sNx ) */
(PID.TID 0000.0001)       nY =   40 ; /* Total domain size in Y ( = nPy*nSy*sNy ) */
(PID.TID 0000.0001)   nTiles =    1 ; /* Total no. tiles per process ( = nSx*nSy ) */
(PID.TID 0000.0001)   nProcs =    1 ; /* Total no. processes ( = nPx*nPy ) */
(PID.TID 0000.0001) nThreads =    1 ; /* Total no. threads per process ( = nTx*nTy ) */
(PID.TID 0000.0001) usingMPI =    F ; /* Flag used to control whether MPI is in use */
(PID.TID 0000.0001)                   /*  note: To execute a program with MPI calls */
(PID.TID 0000.0001)                   /*  it must be launched appropriately e.g     */
(PID.TID 0000.0001)                   /*  "mpirun -np 64 ......"                    */
(PID.TID 0000.0001) 
(PID.TID 0000.0001) // ======================================================
(PID.TID 0000.0001) // Mapping of tiles to threads
(PID.TID 0000.0001) // ======================================================
(PID.TID 0000.0001) // -o- Thread   1, tiles (   1:   1,   1:   1)
(PID.TID 0000.0001) 
(PID.TID 0000.0001) // ======================================================
(PID.TID 0000.0001) // Tile <-> Tile connectvity table
(PID.TID 0000.0001) // ======================================================
(PID.TID 0000.0001) // Tile number: 000001 (process no. = 000001)
(PID.TID 0000.0001) //        WEST: Tile = 000001, Process = 000001, Comm = put
(PID.TID 0000.0001) //                bi = 000001, bj = 000001
(PID.TID 0000.0001) //        EAST: Tile = 000001, Process = 000001, Comm = put
(PID.TID 0000.0001) //                bi = 000001, bj = 000001
(PID.TID 0000.0001) //       SOUTH: Tile = 000001, Process = 000001, Comm = put
(PID.TID 0000.0001) //                bi = 000001, bj = 000001
(PID.TID 0000.0001) //       NORTH: Tile = 000001, Process = 000001, Comm = put
(PID.TID 0000.0001) //                bi = 000001, bj = 000001
(PID.TID 0000.0001) 
(PID.TID 0000.0001) // =======================================================
(PID.TID 0000.0001) // Model parameter file "data"
(PID.TID 0000.0001) // =======================================================
(PID.TID 0000.0001) ># ====================
(PID.TID 0000.0001) ># | Model parameters |
(PID.TID 0000.0001) ># ====================
(PID.TID 0000.0001) >#
(PID.TID 0000.0001) ># Continuous equation parameters
(PID.TID 0000.0001) > &PARM01
(PID.TID 0000.0001) > tRef=15*20.,
(PID.TID 0000.0001) > sRef=15*35.,
(PID.TID 0000.0001) > viscAh =3.E5,
(PID.TID 0000.0001) > no_slip_sides=.TRUE.,
(PID.TID 0000.0001) > viscAr =1.721611620915750e5,
(PID.TID 0000.0001) >#viscAz =1.67E-3,
(PID.TID 0000.0001) > no_slip_bottom=.FALSE.,
(PID.TID 0000.0001) > diffKhT=1.E3,
(PID.TID 0000.0001) > diffKrT=5.154525811125000e3,
(PID.TID 0000.0001) >#diffKzT=0.5E-4,
(PID.TID 0000.0001) > diffKhS=1.E3,
(PID.TID 0000.0001) > diffKrS=5.154525811125000e3,
(PID.TID 0000.0001) >#diffKzS=0.5E-4,
(PID.TID 0000.0001) > implicitDiffusion=.TRUE.,
(PID.TID 0000.0001) > ivdc_kappa=1.030905162225000e9,
(PID.TID 0000.0001) >#ivdc_kappa=10.0,
(PID.TID 0000.0001) > gravity=9.81,
(PID.TID 0000.0001) > gravitySign=-1.D0,
(PID.TID 0000.0001) > rhonil=1035.,
(PID.TID 0000.0001) > buoyancyRelation='OCEANICP',
(PID.TID 0000.0001) > integr_GeoPot=1,
(PID.TID 0000.0001) > eosType='JMD95P',
(PID.TID 0000.0001) > rigidLid=.FALSE.,
(PID.TID 0000.0001) > implicitFreeSurface=.TRUE.,
(PID.TID 0000.0001) > exactConserv=.TRUE.,
(PID.TID 0000.0001) > nonlinFreeSurf=4,
(PID.TID 0000.0001) > hFacInf=0.2,
(PID.TID 0000.0001) > hFacSup=2.0,
(PID.TID 0000.0001) >#useRealFreshWaterFlux=.TRUE.,
(PID.TID 0000.0001) > readBinaryPrec=64,
(PID.TID 0000.0001) > writeBinaryPrec=64,
(PID.TID 0000.0001) > cosPower=0.5,
(PID.TID 0000.0001) > &
(PID.TID 0000.0001) >
(PID.TID 0000.0001) ># Elliptic solver parameters
(PID.TID 0000.0001) > &PARM02
(PID.TID 0000.0001) > cg2dMaxIters=200,
(PID.TID 0000.0001) > cg2dTargetResidual=1.E-9,
(PID.TID 0000.0001) > &
(PID.TID 0000.0001) >
(PID.TID 0000.0001) ># Time stepping parameters
(PID.TID 0000.0001) > &PARM03
(PID.TID 0000.0001) > startTime =           0.,
(PID.TID 0000.0001) > endTime   =     3456000.,
(PID.TID 0000.0001) ># after 100 years of intergration, one gets a reasonable flow field
(PID.TID 0000.0001) >#endTime   = 3110400000.,
(PID.TID 0000.0001) > deltaTmom      =   1200.0,
(PID.TID 0000.0001) > deltaTtracer   = 172800.0,
(PID.TID 0000.0001) > deltaTfreesurf = 172800.0,
(PID.TID 0000.0001) > deltaTClock    = 172800.0,
(PID.TID 0000.0001) > pChkptFreq  = 3110400000.,
(PID.TID 0000.0001) > dumpFreq    = 3110400000.,
(PID.TID 0000.0001) > taveFreq    = 3110400000.,
(PID.TID 0000.0001) > monitorFreq =   1.,
(PID.TID 0000.0001) > periodicExternalForcing=.TRUE.,
(PID.TID 0000.0001) > externForcingPeriod=2592000.,
(PID.TID 0000.0001) > externForcingCycle=31104000.,
(PID.TID 0000.0001) > tauThetaClimRelax=5184000.0,
(PID.TID 0000.0001) > abEps=0.1,
(PID.TID 0000.0001) > &
(PID.TID 0000.0001) >
(PID.TID 0000.0001) ># Gridding parameters
(PID.TID 0000.0001) > &PARM04
(PID.TID 0000.0001) > usingCartesianGrid=.FALSE.,
(PID.TID 0000.0001) > usingSphericalPolarGrid=.TRUE.,
(PID.TID 0000.0001) > dXspacing=4.,
(PID.TID 0000.0001) > dYspacing=4.,
(PID.TID 0000.0001) > Ro_SeaLevel=53023122.566084,
(PID.TID 0000.0001) > groundAtK1=.TRUE.,
(PID.TID 0000.0001) > delR=7103300.720021, 6570548.440790, 6041670.010249,
(PID.TID 0000.0001) >      5516436.666057, 4994602.034410, 4475903.435290,
(PID.TID 0000.0001) >      3960063.245801, 3446790.312651, 2935781.405664,
(PID.TID 0000.0001) >      2426722.705046, 1919291.315988, 1413156.804970,
(PID.TID 0000.0001) >      1008846.750166,  705919.025481,  504089.693499,
(PID.TID 0000.0001) > phiMin=-80.,
(PID.TID 0000.0001) > &
(PID.TID 0000.0001) >
(PID.TID 0000.0001) ># Input datasets
(PID.TID 0000.0001) > &PARM05
(PID.TID 0000.0001) > topoFile       ='topog.bin',
(PID.TID 0000.0001) > pLoadFile      ='deltageopotjmd95.bin',
(PID.TID 0000.0001) > hydrogThetaFile='lev_t.bin',
(PID.TID 0000.0001) > hydrogSaltFile ='lev_s.bin',
(PID.TID 0000.0001) > zonalWindFile  ='trenberth_taux.bin',
(PID.TID 0000.0001) > meridWindFile  ='trenberth_tauy.bin',
(PID.TID 0000.0001) > thetaClimFile  ='lev_sst.bin',
(PID.TID 0000.0001) >#saltClimFile   ='lev_sss.bin',
(PID.TID 0000.0001) > surfQFile      ='shi_qnet.bin',
(PID.TID 0000.0001) > EmPmRFile      ='shi_empmr.bin',
(PID.TID 0000.0001) > &
(PID.TID 0000.0001) 
(PID.TID 0000.0001) S/R INI_PARMS ; read PARM01 : OK
(PID.TID 0000.0001) S/R INI_PARMS ; read PARM02 : OK
(PID.TID 0000.0001) S/R INI_PARMS ; read PARM03 : OK
(PID.TID 0000.0001) S/R INI_PARMS ; read PARM04 : OK
(PID.TID 0000.0001) S/R INI_PARMS ; read PARM05 : OK
(PID.TID 0000.0001) %MON XC_max                       =   3.5800000000000E+02
(PID.TID 0000.0001) %MON XC_min                       =   2.0000000000000E+00
(PID.TID 0000.0001) %MON XC_mean                      =   1.8000000000000E+02
(PID.TID 0000.0001) %MON XC_sd                        =   1.0391663325314E+02
(PID.TID 0000.0001) %MON XG_max                       =   3.5600000000000E+02
(PID.TID 0000.0001) %MON XG_min                       =   4.0000000000000E+00
(PID.TID 0000.0001) %MON XG_mean                      =   1.8000000000000E+02
(PID.TID 0000.0001) %MON XG_sd                        =   1.0276186062932E+02
(PID.TID 0000.0001) %MON DXC_max                      =   4.4443898815675E+05
(PID.TID 0000.0001) %MON DXC_min                      =   9.2460385861875E+04
(PID.TID 0000.0001) %MON DXC_mean                     =   3.1372497618153E+05
(PID.TID 0000.0001) %MON DXC_sd                       =   1.1216447457560E+05
(PID.TID 0000.0001) %MON DXF_max                      =   4.4443898815675E+05
(PID.TID 0000.0001) %MON DXF_min                      =   9.2460385861875E+04
(PID.TID 0000.0001) %MON DXF_mean                     =   3.1372497618153E+05
(PID.TID 0000.0001) %MON DXF_sd                       =   1.1216447457560E+05
(PID.TID 0000.0001) %MON DXG_max                      =   4.4470989340816E+05
(PID.TID 0000.0001) %MON DXG_min                      =   7.7223062580781E+04
(PID.TID 0000.0001) %MON DXG_mean                     =   3.1353386340260E+05
(PID.TID 0000.0001) %MON DXG_sd                       =   1.1256651772502E+05
(PID.TID 0000.0001) %MON DXV_max                      =   4.4470989340816E+05
(PID.TID 0000.0001) %MON DXV_min                      =   7.7223062580781E+04
(PID.TID 0000.0001) %MON DXV_mean                     =   3.1353386340260E+05
(PID.TID 0000.0001) %MON DXV_sd                       =   1.1256651772502E+05
(PID.TID 0000.0001) %MON YC_max                       =   7.8000000000000E+01
(PID.TID 0000.0001) %MON YC_min                       =  -7.8000000000000E+01
(PID.TID 0000.0001) %MON YC_mean                      =   0.0000000000000E+00
(PID.TID 0000.0001) %MON YC_sd                        =   4.6173585522461E+01
(PID.TID 0000.0001) %MON YG_max                       =   7.6000000000000E+01
(PID.TID 0000.0001) %MON YG_min                       =  -8.0000000000000E+01
(PID.TID 0000.0001) %MON YG_mean                      =  -2.0512820512821E+00
(PID.TID 0000.0001) %MON YG_sd                        =   4.6760682979564E+01
(PID.TID 0000.0001) %MON DYC_max                      =   4.4470989340816E+05
(PID.TID 0000.0001) %MON DYC_min                      =   4.4470989340816E+05
(PID.TID 0000.0001) %MON DYC_mean                     =   4.4470989340814E+05
(PID.TID 0000.0001) %MON DYC_sd                       =   1.9848812371492E-08
(PID.TID 0000.0001) %MON DYF_max                      =   4.4470989340816E+05
(PID.TID 0000.0001) %MON DYF_min                      =   4.4470989340816E+05
(PID.TID 0000.0001) %MON DYF_mean                     =   4.4470989340814E+05
(PID.TID 0000.0001) %MON DYF_sd                       =   1.9848812371492E-08
(PID.TID 0000.0001) %MON DYG_max                      =   4.4470989340816E+05
(PID.TID 0000.0001) %MON DYG_min                      =   4.4470989340816E+05
(PID.TID 0000.0001) %MON DYG_mean                     =   4.4470989340814E+05
(PID.TID 0000.0001) %MON DYG_sd                       =   1.9848812371492E-08
(PID.TID 0000.0001) %MON DYU_max                      =   4.4470989340816E+05
(PID.TID 0000.0001) %MON DYU_min                      =   4.4470989340816E+05
(PID.TID 0000.0001) %MON DYU_mean                     =   4.4470989340814E+05
(PID.TID 0000.0001) %MON DYU_sd                       =   1.9848812371492E-08
(PID.TID 0000.0001) %MON RA_max                       =   1.9760627980089E+11
(PID.TID 0000.0001) %MON RA_min                       =   4.1109698667291E+10
(PID.TID 0000.0001) %MON RA_mean                      =   1.3948826965197E+11
(PID.TID 0000.0001) %MON RA_sd                        =   4.9870522472902E+10
(PID.TID 0000.0001) %MON RAW_max                      =   1.9760627980089E+11
(PID.TID 0000.0001) %MON RAW_min                      =   4.1109698667291E+10
(PID.TID 0000.0001) %MON RAW_mean                     =   1.3948826965197E+11
(PID.TID 0000.0001) %MON RAW_sd                       =   4.9870522472902E+10
(PID.TID 0000.0001) %MON RAS_max                      =   1.9772672958215E+11
(PID.TID 0000.0001) %MON RAS_min                      =   3.4334886267982E+10
(PID.TID 0000.0001) %MON RAS_mean                     =   1.3940329716694E+11
(PID.TID 0000.0001) %MON RAS_sd                       =   5.0049278732354E+10
(PID.TID 0000.0001) %MON RAZ_max                      =   1.9772672958215E+11
(PID.TID 0000.0001) %MON RAZ_min                      =   3.4334886267982E+10
(PID.TID 0000.0001) %MON RAZ_mean                     =   1.3940329716694E+11
(PID.TID 0000.0001) %MON RAZ_sd                       =   5.0049278732354E+10
(PID.TID 0000.0001)  MDSREADFIELD: opening global file: topog.bin
(PID.TID 0000.0001) // =======================================================
(PID.TID 0000.0001) // Field Model R_low (ini_masks_etc) at iteration          1
(PID.TID 0000.0001) // CMIN =          1.008622348308563E-06
(PID.TID 0000.0001) // CMAX =          1.008622348308563E-06
(PID.TID 0000.0001) // CINT =          0.000000000000000E+00
(PID.TID 0000.0001) // SYMBOLS (CMIN->CMAX): -abcdefghijklmnopqrstuvwxyz+
(PID.TID 0000.0001) //                  0.0: .
(PID.TID 0000.0001) // RANGE I (Lo:Hi:Step):(  -1:  92:   1)
(PID.TID 0000.0001) // RANGE J (Lo:Hi:Step):(  42:  -1:  -1)
(PID.TID 0000.0001) // RANGE K (Lo:Hi:Step):(   1:   1:   1)
(PID.TID 0000.0001) // =======================================================
(PID.TID 0000.0001) K =   1
(PID.TID 0000.0001) //                I=8       I=18      I=28      I=38      I=48      I=58      I=68      I=78      I=88
(PID.TID 0000.0001) // |--J--|*01234567|901234567|901234567|901234567|901234567|901234567|901234567|901234567|901234567|9012
(PID.TID 0000.0001) //     42 ----------------------------------------------------------------------------------------------
(PID.TID 0000.0001) //     41 ----------------------------------------------------------------------------------------------
(PID.TID 0000.0001) //     40 ----------------------------------------------------------------------------------------------
(PID.TID 0000.0001) //     39 ----------------------------------------------------------------------------------------------
(PID.TID 0000.0001) //     38 ----------------------------------------------------------------------------------------------
(PID.TID 0000.0001) //     37 ----------------------------------------------------------------------------------------------
(PID.TID 0000.0001) //     36 ----------------------------------------------------------------------------------------------
(PID.TID 0000.0001) //     35 ----------------------------------------------------------------------------------------------
(PID.TID 0000.0001) //     34 ----------------------------------------------------------------------------------------------
(PID.TID 0000.0001) //     33 ----------------------------------------------------------------------------------------------
(PID.TID 0000.0001) //     32 ----------------------------------------------------------------------------------------------
(PID.TID 0000.0001) //     31 ----------------------------------------------------------------------------------------------
(PID.TID 0000.0001) //     30 ----------------------------------------------------------------------------------------------
(PID.TID 0000.0001) //     29 ----------------------------------------------------------------------------------------------
(PID.TID 0000.0001) //     28 ----------------------------------------------------------------------------------------------
(PID.TID 0000.0001) //     27 ----------------------------------------------------------------------------------------------
(PID.TID 0000.0001) //     26 ----------------------------------------------------------------------------------------------
(PID.TID 0000.0001) //     25 ----------------------------------------------------------------------------------------------
(PID.TID 0000.0001) //     24 ----------------------------------------------------------------------------------------------
(PID.TID 0000.0001) //     23 ----------------------------------------------------------------------------------------------
(PID.TID 0000.0001) //     22 ----------------------------------------------------------------------------------------------
(PID.TID 0000.0001) //     21 ----------------------------------------------------------------------------------------------
(PID.TID 0000.0001) //     20 ----------------------------------------------------------------------------------------------
(PID.TID 0000.0001) //     19 ----------------------------------------------------------------------------------------------
(PID.TID 0000.0001) //     18 ----------------------------------------------------------------------------------------------
(PID.TID 0000.0001) //     17 ----------------------------------------------------------------------------------------------
(PID.TID 0000.0001) //     16 ----------------------------------------------------------------------------------------------
(PID.TID 0000.0001) //     15 ----------------------------------------------------------------------------------------------
(PID.TID 0000.0001) //     14 ----------------------------------------------------------------------------------------------
(PID.TID 0000.0001) //     13 ----------------------------------------------------------------------------------------------
(PID.TID 0000.0001) //     12 ----------------------------------------------------------------------------------------------
(PID.TID 0000.0001) //     11 ----------------------------------------------------------------------------------------------
(PID.TID 0000.0001) //     10 ----------------------------------------------------------------------------------------------
(PID.TID 0000.0001) //      9 ----------------------------------------------------------------------------------------------
(PID.TID 0000.0001) //      8 ----------------------------------------------------------------------------------------------
(PID.TID 0000.0001) //      7 ----------------------------------------------------------------------------------------------
(PID.TID 0000.0001) //      6 ----------------------------------------------------------------------------------------------
(PID.TID 0000.0001) //      5 ----------------------------------------------------------------------------------------------
(PID.TID 0000.0001) //      4 ----------------------------------------------------------------------------------------------
(PID.TID 0000.0001) //      3 ----------------------------------------------------------------------------------------------
(PID.TID 0000.0001) //      2 ----------------------------------------------------------------------------------------------
(PID.TID 0000.0001) //      1 ----------------------------------------------------------------------------------------------
(PID.TID 0000.0001) //      0 ----------------------------------------------------------------------------------------------
(PID.TID 0000.0001) //     -1 ----------------------------------------------------------------------------------------------
(PID.TID 0000.0001) // =======================================================
(PID.TID 0000.0001) // END OF FIELD                                          =
(PID.TID 0000.0001) // =======================================================
(PID.TID 0000.0001) 
(PID.TID 0000.0001) // =======================================================
(PID.TID 0000.0001) // Field Model Ro_surf (ini_masks_etc) at iteration          1
(PID.TID 0000.0001) // CMIN =          1.008622348308563E-06
(PID.TID 0000.0001) // CMAX =          5.302312256608400E+07
(PID.TID 0000.0001) // CINT =          1.963819354299370E+06
(PID.TID 0000.0001) // SYMBOLS (CMIN->CMAX): -abcdefghijklmnopqrstuvwxyz+
(PID.TID 0000.0001) //                  0.0: .
(PID.TID 0000.0001) // RANGE I (Lo:Hi:Step):(  -1:  92:   1)
(PID.TID 0000.0001) // RANGE J (Lo:Hi:Step):(  42:  -1:  -1)
(PID.TID 0000.0001) // RANGE K (Lo:Hi:Step):(   1:   1:   1)
(PID.TID 0000.0001) // =======================================================
(PID.TID 0000.0001) K =   1
(PID.TID 0000.0001) //                I=8       I=18      I=28      I=38      I=48      I=58      I=68      I=78      I=88
(PID.TID 0000.0001) // |--J--|*01234567|901234567|901234567|901234567|901234567|901234567|901234567|901234567|901234567|9012
(PID.TID 0000.0001) //     42 --------------------------------------------bbcdnttwwwttttqnnlfddc--abcc-----ccbcltttttba-----
(PID.TID 0000.0001) //     41 ----------------------------------------------------------------------------------------------
(PID.TID 0000.0001) //     40 innllaa-aaaaaaaaaaaaa------------------------------------------------------------------aaainnl
(PID.TID 0000.0001) //     39 gnnllibbaaaaaaaa---aa-----------------------------------------------------bdda--------abffgnnl
(PID.TID 0000.0001) //     38 nllllibbaaaaaaa-----------------------------------------------------------bddca------bccfgnlll
(PID.TID 0000.0001) //     37 nnnga------------------------------------------------------------------aa---bca---bggc--agnnng
(PID.TID 0000.0001) //     36 fgga-----------------------------------------nnaa--------------------aaaaaaabnnn-bllfggffcfgga
(PID.TID 0000.0001) //     35 aaaa---------------------------------aaaa--iinnqqa---atttn-----------aaa----annqqqnglllgddaaaa
(PID.TID 0000.0001) //     34 -------------------------------------affc-tticcfab-wwwttttn------------------anqttqqqtttna----
(PID.TID 0000.0001) //     33 a-------------------------------------ffa+++t+++++++++wwwtqna-----------------aifwwtnttttda---
(PID.TID 0000.0001) //     32 a-------------------------------------ag++++t++++++++++wwttnn----------------aaatwttqltttna---
(PID.TID 0000.0001) //     31 --------------------------------------++++++w++++++++++wwwtqn--------------iw++twwwtiltwwn----
(PID.TID 0000.0001) //     30 -------------------------------------t++++w++w+++++++++++++ww------------at++++twwwlgqtwwq----
(PID.TID 0000.0001) //     29 -----------------------------------gf++++t+++tqt+++++++++++wwt-----------w++w+++wtnqq++wtq----
(PID.TID 0000.0001) //     28 ---------------------------------actn+++++++++++++++++++wwwwwtq---------iw++++++wntww++wqa----
(PID.TID 0000.0001) //     27 ----------------cc--------------aftttlt++++++++w+nnw+++wwwwwwttt---aaac-iw++++++qt+++++t------
(PID.TID 0000.0001) //     26 ----------------cnn-----------afw+++wl+++++++++++qwtn++++++wwtttqg-aa-ii-c++++++tw++++wq------
(PID.TID 0000.0001) //     25 ----------------qttq---lla---atfw+++wl+++ww++qqtnt+++++++++wwtttqnn---iifnac+++wqw++wwqq------
(PID.TID 0000.0001) //     24 --------------cntwwtg-qqqa---ftt-++twn+++++++++++++++++++wwwwwttqnqqqf-afnnddwwwtw++++wt------
(PID.TID 0000.0001) //     23 --------------dttwwtl-ttqd---fff--tqtq++++ttw+++++w++++++wwwwwttqqqqqql----bbqwwwt++++ww------
(PID.TID 0000.0001) //     22 gii-----------wwwqttgnttqq---bb-dlqwwlltwwwwt++++++wt+w++wwwwwwtttqqqqii------dwwwttwwtwwigii-
(PID.TID 0000.0001) //     21 ++wqi--------nwwwwqtiwwwqqb-----dltwwqtttnwwt++++++wqwwwwwwwwwttttqnnill--------twwtqttwww++wq
(PID.TID 0000.0001) //     20 ++wwi-------nwwwwwtqwwwwqww------b-fqqqgiltttt+++++++wwwwwwwwwwtttqttqqn---------ntt+++ttw++ww
(PID.TID 0000.0001) //     19 ww++t-------qwwlittl+++qwwwwd---aba-----iannww++++t++++wwwwwwwwttqtttttt-----------w+++wqtww++
(PID.TID 0000.0001) //     18 w+++w-------qtnttfqq+++qwww++w+qfaa---iiblntwwwwtwtq+++wwtwwwwwtqtttttwwa----------w+++wqtw+++
(PID.TID 0000.0001) //     17 w+++w-------q-twwdqt+++l+++++++qf-----iilnninnnltwww++wwwttttttnqttqtwwwq---------tw+++wqtw+++
(PID.TID 0000.0001) //     16 w+++w------gn-wwtnntw++i++++++nf-------flnnfnnndf+++wwqflnttttqntttttwwwqt--------it+++wqtw+++
(PID.TID 0000.0001) //     15 w++wlb----aqq-wwwttnwwwnw+++++f---------lggdllnf++++wwwwwtqtttqqtttttwwqttt------atw+++wqtw++w
(PID.TID 0000.0001) //     14 w++nwn----dwwi+++tqqqtwnw++w+tb---------ttgglttg++++++wwtwttqqqnqttqqqqtttt-----aqtw+++wntw++n
(PID.TID 0000.0001) //     13 wwn++t----nwwl+++qwwtqttliiw++n---------wwggittg++++++++wwwtttqqnqqttqttttl----aqttlwwwtntwwn+
(PID.TID 0000.0001) //     12 tt+++wdaqttwwnwntwwwtntqttww++wt+++a----wwigiilw+++++++++wwqtttqqqqqtttttt-----qwwwwttttnttt++
(PID.TID 0000.0001) //     11 tw+++w++qtwwwnnt++wwtlttttwww++++++++--wwwwng-nw+w+++++++++wwwtqntttqqtttt----n+++++wwtqnqtw++
(PID.TID 0000.0001) //     10 tw++ww+w++wtiqqt++wwtqnnnqttwwww+++++w-wwwwtd-nbiw+++++++++wwwtqnttwwttqtq--ad++++++wwttnqtw++
(PID.TID 0000.0001) //      9 ttwwwww+++llglntwtwtqqqttnnnttwwwwwwwwnwwwwt-fbt+++++++++++wwwtnqttwwwttqf-aad++++++wwwtqnttww
(PID.TID 0000.0001) //      8 tttqqqw++twwttwwwwfblqttttttnqqqttqqqtwtwwticfw++++++wwwwwwwttqnttwwwwwwta-aacttn++wtwwwtntttq
(PID.TID 0000.0001) //      7 ninnwwqqt++wnw++wwtgcqtwwwttwwwwwwwttnttwwntw++++++wwwwtttqtqnnttwww+++wwt-aaaintgfqtqwwwtninn
(PID.TID 0000.0001) //      6 w++++++++++++++++wwwnggwwwwwwwwwwwwwwtqqqqttw++++wwwtqnnqnwtww+++w+w+++wwwtqqqqtilnniwtqtww+++
(PID.TID 0000.0001) //      5 +++++++++++++++++wwwttttwwwwwwwwwwwwwtqqqlnlwwwwtttnnnqtwwww++++++++w+wwwwtqqqgitwwwwww+++++++
(PID.TID 0000.0001) //      4 ++tw++++++wwwqttttqqqttqqlbdnnllqqlnqqqqqnnnlnqlnnntttwwwwww+++++++wwwwwttnb--cqtwwwwww+++++tw
(PID.TID 0000.0001) //      3 ttttilqqqdcc----------------------------cclgnqqqqttwwwwwwwwwtttttwwwwttqqbb--ciqtwwwwwwwwttttt
(PID.TID 0000.0001) //      2 --------------------------------------------bbcdnttwwwttttqnnlfddc--abcc-----ccbcltttttba-----
(PID.TID 0000.0001) //      1 ----------------------------------------------------------------------------------------------
(PID.TID 0000.0001) //      0 innllaa-aaaaaaaaaaaaa------------------------------------------------------------------aaainnl
(PID.TID 0000.0001) //     -1 gnnllibbaaaaaaaa---aa-----------------------------------------------------bdda--------abffgnnl
(PID.TID 0000.0001) // =======================================================
(PID.TID 0000.0001) // END OF FIELD                                          =
(PID.TID 0000.0001) // =======================================================
(PID.TID 0000.0001) 
(PID.TID 0000.0001) // =======================================================
(PID.TID 0000.0001) // Field hFacC at iteration          1
(PID.TID 0000.0001) // CMIN =          1.000000000000000E+00
(PID.TID 0000.0001) // CMAX =          1.000000000000000E+00
(PID.TID 0000.0001) // CINT =          0.000000000000000E+00
(PID.TID 0000.0001) // SYMBOLS (CMIN->CMAX): -abcdefghijklmnopqrstuvwxyz+
(PID.TID 0000.0001) //                  0.0: .
(PID.TID 0000.0001) // RANGE I (Lo:Hi:Step):(  -1:  92:   1)
(PID.TID 0000.0001) // RANGE J (Lo:Hi:Step):(  42:  -1:  -1)
(PID.TID 0000.0001) // RANGE K (Lo:Hi:Step):(   1:   1:   1)
(PID.TID 0000.0001) // =======================================================
(PID.TID 0000.0001) K =   1
(PID.TID 0000.0001) //                I=8       I=18      I=28      I=38      I=48      I=58      I=68      I=78      I=88
(PID.TID 0000.0001) // |--J--|*01234567|901234567|901234567|901234567|901234567|901234567|901234567|901234567|901234567|9012
(PID.TID 0000.0001) //     42 ..............................................................................................
(PID.TID 0000.0001) //     41 ..............................................................................................
(PID.TID 0000.0001) //     40 ..............................................................................................
(PID.TID 0000.0001) //     39 ..............................................................................................
(PID.TID 0000.0001) //     38 ..............................................................................................
(PID.TID 0000.0001) //     37 ..............................................................................................
(PID.TID 0000.0001) //     36 ..............................................................................................
(PID.TID 0000.0001) //     35 ..............................................................................................
(PID.TID 0000.0001) //     34 ..............................................................................................
(PID.TID 0000.0001) //     33 .........................................---.---------........................................
(PID.TID 0000.0001) //     32 ........................................----.----------.......................................
(PID.TID 0000.0001) //     31 ......................................------.----------......................--...............
(PID.TID 0000.0001) //     30 ......................................----.--.-------------................----...............
(PID.TID 0000.0001) //     29 .....................................----.---...-----------...............--.---.....--.......
(PID.TID 0000.0001) //     28 .....................................-------------------..................------.....--.......
(PID.TID 0000.0001) //     27 .......................................--------.-...---...................------..-----.......
(PID.TID 0000.0001) //     26 .................................---..-----------....------...............------..----........
(PID.TID 0000.0001) //     25 .................................---..---..--.....---------.................---...--..........
(PID.TID 0000.0001) //     24 .................................--...-------------------.........................----........
(PID.TID 0000.0001) //     23 ......................................----...-----.------.........................----........
(PID.TID 0000.0001) //     22 .............................................------..-.--.....................................
(PID.TID 0000.0001) //     21 --...........................................------.......................................--..
(PID.TID 0000.0001) //     20 --............................................-------...............................---...--..
(PID.TID 0000.0001) //     19 ..--................---.......................----.----.............................---.....--
(PID.TID 0000.0001) //     18 .---................---....--.-.....................---.............................---....---
(PID.TID 0000.0001) //     17 .---................---.-------.....................--..............................---....---
(PID.TID 0000.0001) //     16 .---.................--.------...................---................................---....---
(PID.TID 0000.0001) //     15 .--......................-----..................----................................---....--.
(PID.TID 0000.0001) //     14 .--...........---........--.-...................------..............................---....--.
(PID.TID 0000.0001) //     13 ...--.........---...........--..................--------.....................................-
(PID.TID 0000.0001) //     12 ..---.......................--..---.............---------...................................--
(PID.TID 0000.0001) //     11 ..---.--........--...........--------...........-.---------....................-----........--
(PID.TID 0000.0001) //     10 ..--..-.--......--..............-----.............---------...................------........--
(PID.TID 0000.0001) //      9 .......---......................................-----------...................------..........
(PID.TID 0000.0001) //      8 .......--......................................------............................--...........
(PID.TID 0000.0001) //      7 .........--...--.............................------.................---.......................
(PID.TID 0000.0001) //      6 .----------------............................----.............---.-.---....................---
(PID.TID 0000.0001) //      5 -----------------...........................................--------.-.................-------
(PID.TID 0000.0001) //      4 --..------..................................................-------....................-----..
(PID.TID 0000.0001) //      3 ..............................................................................................
(PID.TID 0000.0001) //      2 ..............................................................................................
(PID.TID 0000.0001) //      1 ..............................................................................................
(PID.TID 0000.0001) //      0 ..............................................................................................
(PID.TID 0000.0001) //     -1 ..............................................................................................
(PID.TID 0000.0001) // =======================================================
(PID.TID 0000.0001) // END OF FIELD                                          =
(PID.TID 0000.0001) // =======================================================
(PID.TID 0000.0001) 
(PID.TID 0000.0001) // =======================================================
(PID.TID 0000.0001) // Field hFacW at iteration          1
(PID.TID 0000.0001) // CMIN =          1.000000000000000E+00
(PID.TID 0000.0001) // CMAX =          1.000000000000000E+00
(PID.TID 0000.0001) // CINT =          0.000000000000000E+00
(PID.TID 0000.0001) // SYMBOLS (CMIN->CMAX): -abcdefghijklmnopqrstuvwxyz+
(PID.TID 0000.0001) //                  0.0: .
(PID.TID 0000.0001) // RANGE I (Lo:Hi:Step):(  -1:  92:   1)
(PID.TID 0000.0001) // RANGE J (Lo:Hi:Step):(  42:  -1:  -1)
(PID.TID 0000.0001) // RANGE K (Lo:Hi:Step):(   1:   1:   1)
(PID.TID 0000.0001) // =======================================================
(PID.TID 0000.0001) K =   1
(PID.TID 0000.0001) //                I=8       I=18      I=28      I=38      I=48      I=58      I=68      I=78      I=88
(PID.TID 0000.0001) // |--J--|*01234567|901234567|901234567|901234567|901234567|901234567|901234567|901234567|901234567|9012
(PID.TID 0000.0001) //     42 ..............................................................................................
(PID.TID 0000.0001) //     41 ..............................................................................................
(PID.TID 0000.0001) //     40 ..............................................................................................
(PID.TID 0000.0001) //     39 ..............................................................................................
(PID.TID 0000.0001) //     38 ..............................................................................................
(PID.TID 0000.0001) //     37 ..............................................................................................
(PID.TID 0000.0001) //     36 ..............................................................................................
(PID.TID 0000.0001) //     35 ..............................................................................................
(PID.TID 0000.0001) //     34 ..............................................................................................
(PID.TID 0000.0001) //     33 ..........................................--..--------........................................
(PID.TID 0000.0001) //     32 .........................................---..---------.......................................
(PID.TID 0000.0001) //     31 .......................................-----..---------.......................-...............
(PID.TID 0000.0001) //     30 .......................................---..-..------------.................---...............
(PID.TID 0000.0001) //     29 ......................................---..--....----------................-..--......-.......
(PID.TID 0000.0001) //     28 ......................................------------------...................-----......-.......
(PID.TID 0000.0001) //     27 ........................................-------......--....................-----...----.......
(PID.TID 0000.0001) //     26 ..................................--...----------.....-----................-----...---........
(PID.TID 0000.0001) //     25 ..................................--...--...-......--------..................--....-..........
(PID.TID 0000.0001) //     24 ..................................-....------------------..........................---........
(PID.TID 0000.0001) //     23 .......................................---....----..-----..........................---........
(PID.TID 0000.0001) //     22 ..............................................-----.....-.....................................
(PID.TID 0000.0001) //     21 .-............................................-----........................................-..
(PID.TID 0000.0001) //     20 .-.............................................------................................--....-..
(PID.TID 0000.0001) //     19 ...-.................--........................---..---..............................--......-
(PID.TID 0000.0001) //     18 ..--.................--.....-........................--..............................--.....--
(PID.TID 0000.0001) //     17 ..--.................--..------......................-...............................--.....--
(PID.TID 0000.0001) //     16 ..--..................-..-----....................--.................................--.....--
(PID.TID 0000.0001) //     15 ..-.......................----...................---.................................--.....-.
(PID.TID 0000.0001) //     14 ..-............--.........-......................-----...............................--.....-.
(PID.TID 0000.0001) //     13 ....-..........--............-...................-------......................................
(PID.TID 0000.0001) //     12 ...--........................-...--..............--------....................................-
(PID.TID 0000.0001) //     11 ...--..-.........-............-------..............--------.....................----.........-
(PID.TID 0000.0001) //     10 ...-.....-.......-...............----..............--------....................-----.........-
(PID.TID 0000.0001) //      9 ........--.......................................----------....................-----..........
(PID.TID 0000.0001) //      8 ........-.......................................-----.............................-...........
(PID.TID 0000.0001) //      7 ..........-....-..............................-----..................--.......................
(PID.TID 0000.0001) //      6 ..---------------.............................---..............--....--.....................--
(PID.TID 0000.0001) //      5 -----------------............................................-------....................------
(PID.TID 0000.0001) //      4 --...-----...................................................------.....................----..
(PID.TID 0000.0001) //      3 ..............................................................................................
(PID.TID 0000.0001) //      2 ..............................................................................................
(PID.TID 0000.0001) //      1 ..............................................................................................
(PID.TID 0000.0001) //      0 ..............................................................................................
(PID.TID 0000.0001) //     -1 ..............................................................................................
(PID.TID 0000.0001) // =======================================================
(PID.TID 0000.0001) // END OF FIELD                                          =
(PID.TID 0000.0001) // =======================================================
(PID.TID 0000.0001) 
(PID.TID 0000.0001) // =======================================================
(PID.TID 0000.0001) // Field hFacS at iteration          1
(PID.TID 0000.0001) // CMIN =          1.000000000000000E+00
(PID.TID 0000.0001) // CMAX =          1.000000000000000E+00
(PID.TID 0000.0001) // CINT =          0.000000000000000E+00
(PID.TID 0000.0001) // SYMBOLS (CMIN->CMAX): -abcdefghijklmnopqrstuvwxyz+
(PID.TID 0000.0001) //                  0.0: .
(PID.TID 0000.0001) // RANGE I (Lo:Hi:Step):(  -1:  92:   1)
(PID.TID 0000.0001) // RANGE J (Lo:Hi:Step):(  42:  -1:  -1)
(PID.TID 0000.0001) // RANGE K (Lo:Hi:Step):(   1:   1:   1)
(PID.TID 0000.0001) // =======================================================
(PID.TID 0000.0001) K =   1
(PID.TID 0000.0001) //                I=8       I=18      I=28      I=38      I=48      I=58      I=68      I=78      I=88
(PID.TID 0000.0001) // |--J--|*01234567|901234567|901234567|901234567|901234567|901234567|901234567|901234567|901234567|9012
(PID.TID 0000.0001) //     42 ..............................................................................................
(PID.TID 0000.0001) //     41 ..............................................................................................
(PID.TID 0000.0001) //     40 ..............................................................................................
(PID.TID 0000.0001) //     39 ..............................................................................................
(PID.TID 0000.0001) //     38 ..............................................................................................
(PID.TID 0000.0001) //     37 ..............................................................................................
(PID.TID 0000.0001) //     36 ..............................................................................................
(PID.TID 0000.0001) //     35 ..............................................................................................
(PID.TID 0000.0001) //     34 ..............................................................................................
(PID.TID 0000.0001) //     33 .........................................---.---------........................................
(PID.TID 0000.0001) //     32 ........................................----.----------.......................................
(PID.TID 0000.0001) //     31 ......................................----.-..---------......................--...............
(PID.TID 0000.0001) //     30 ......................................---..--...-----------................-.--...............
(PID.TID 0000.0001) //     29 .....................................----.---...--------..................--.---.....--.......
(PID.TID 0000.0001) //     28 .......................................--------.-...---...................------.....--.......
(PID.TID 0000.0001) //     27 .......................................--------.-....--...................------..----........
(PID.TID 0000.0001) //     26 .................................---..---..--........------.................---...--..........
(PID.TID 0000.0001) //     25 .................................--...---..--.....-------.........................--..........
(PID.TID 0000.0001) //     24 ......................................----...-----.------.........................----........
(PID.TID 0000.0001) //     23 .............................................-----...-.--.....................................
(PID.TID 0000.0001) //     22 .............................................------...........................................
(PID.TID 0000.0001) //     21 --............................................-----.......................................--..
(PID.TID 0000.0001) //     20 ..............................................----.--...............................---.......
(PID.TID 0000.0001) //     19 ..--................---.............................---.............................---.....--
(PID.TID 0000.0001) //     18 .---................---....--.-.....................--..............................---....---
(PID.TID 0000.0001) //     17 .---.................--.------......................................................---....---
(PID.TID 0000.0001) //     16 .--......................-----...................---................................---....--.
(PID.TID 0000.0001) //     15 .--......................--.-...................----................................---....--.
(PID.TID 0000.0001) //     14 ..............---...........-...................------........................................
(PID.TID 0000.0001) //     13 ...--.......................--..................--------.....................................-
(PID.TID 0000.0001) //     12 ..---........................-..---.............-.-------...................................--
(PID.TID 0000.0001) //     11 ..--..-.........--..............-----.............---------....................-----........--
(PID.TID 0000.0001) //     10 ........--........................................---------...................------..........
(PID.TID 0000.0001) //      9 .......--.......................................-----............................--...........
(PID.TID 0000.0001) //      8 ...............................................----...........................................
(PID.TID 0000.0001) //      7 .........--...--.............................----...................---.......................
(PID.TID 0000.0001) //      6 .----------------.............................................---.-..-.....................---
(PID.TID 0000.0001) //      5 --..------..................................................-------....................-----..
(PID.TID 0000.0001) //      4 ..............................................................................................
(PID.TID 0000.0001) //      3 ..............................................................................................
(PID.TID 0000.0001) //      2 ..............................................................................................
(PID.TID 0000.0001) //      1 ..............................................................................................
(PID.TID 0000.0001) //      0 ..............................................................................................
(PID.TID 0000.0001) //     -1 ..............................................................................................
(PID.TID 0000.0001) // =======================================================
(PID.TID 0000.0001) // END OF FIELD                                          =
(PID.TID 0000.0001) // =======================================================
(PID.TID 0000.0001) 
(PID.TID 0000.0001) %MON fCori_max                    =   1.4226580169407E-04
(PID.TID 0000.0001) %MON fCori_min                    =  -1.4226580169407E-04
(PID.TID 0000.0001) %MON fCori_mean                   =   7.5291817533716E-23
(PID.TID 0000.0001) %MON fCori_sd                     =   9.6335367303778E-05
(PID.TID 0000.0001) %MON fCoriG_max                   =   1.4112379284621E-04
(PID.TID 0000.0001) %MON fCoriG_min                   =  -1.4323448157692E-04
(PID.TID 0000.0001) %MON fCoriG_mean                  =  -3.6726790147928E-06
(PID.TID 0000.0001) %MON fCoriG_sd                    =   9.7510077443652E-05
(PID.TID 0000.0001) %MON fCoriCos_max                 =   1.4535550371427E-04
(PID.TID 0000.0001) %MON fCoriCos_min                 =   3.0239529651320E-05
(PID.TID 0000.0001) %MON fCoriCos_mean                =   1.0260497651149E-04
(PID.TID 0000.0001) %MON fCoriCos_sd                  =   3.6683828681187E-05
(PID.TID 0000.0001)  PACKAGES_BOOT: opening data.pkg
(PID.TID 0000.0001)  OPEN_COPY_DATA_FILE: opening file data.pkg
(PID.TID 0000.0001) // =======================================================
(PID.TID 0000.0001) // Parameter file "data.pkg"
(PID.TID 0000.0001) // =======================================================
(PID.TID 0000.0001) ># Packages
(PID.TID 0000.0001) > &PACKAGES
(PID.TID 0000.0001) > &
(PID.TID 0000.0001) 
(PID.TID 0000.0001)  PACKAGES_BOOT: finished reading data.pkg
(PID.TID 0000.0001) 
(PID.TID 0000.0001) // ===================================
(PID.TID 0000.0001) // GAD parameters :
(PID.TID 0000.0001) // ===================================
(PID.TID 0000.0001) tempAdvScheme =   /* Temp. advection scheme selector */
(PID.TID 0000.0001)                       2
(PID.TID 0000.0001)     ;
(PID.TID 0000.0001) tempMultiDimAdvec =   /* use Muti-Dim Advec method for Temp */
(PID.TID 0000.0001)                   F
(PID.TID 0000.0001)     ;
(PID.TID 0000.0001) tempAdamsBashforth =   /* use Adams-Bashforth time-stepping for Temp */
(PID.TID 0000.0001)                   T
(PID.TID 0000.0001)     ;
(PID.TID 0000.0001) saltAdvScheme =   /* Salt. advection scheme selector */
(PID.TID 0000.0001)                       2
(PID.TID 0000.0001)     ;
(PID.TID 0000.0001) saltMultiDimAdvec =   /* use Muti-Dim Advec method for Salt */
(PID.TID 0000.0001)                   F
(PID.TID 0000.0001)     ;
(PID.TID 0000.0001) saltAdamsBashforth =   /* use Adams-Bashforth time-stepping for Salt */
(PID.TID 0000.0001)                   T
(PID.TID 0000.0001)     ;
(PID.TID 0000.0001) // ===================================
(PID.TID 0000.0001) // CG2D normalisation factor =          0.6002578945994698667540502E-08
(PID.TID 0000.0001) 
(PID.TID 0000.0001) CONFIG_CHECK: OK
(PID.TID 0000.0001) // =======================================================
(PID.TID 0000.0001) // Model configuration
(PID.TID 0000.0001) // =======================================================
(PID.TID 0000.0001) //
(PID.TID 0000.0001) // "Physical" paramters ( PARM01 in namelist )
(PID.TID 0000.0001) //
(PID.TID 0000.0001) buoyancyRelation = OCEANICP
(PID.TID 0000.0001) tRef =   /* Reference temperature profile ( oC or oK ) */
(PID.TID 0000.0001)    15 @  2.000000000000000E+01              /* K =  1: 15 */
(PID.TID 0000.0001)     ;
(PID.TID 0000.0001) sRef =   /* Reference salinity profile ( ppt ) */
(PID.TID 0000.0001)    15 @  3.500000000000000E+01              /* K =  1: 15 */
(PID.TID 0000.0001)     ;
(PID.TID 0000.0001) viscAh =   /* Lateral eddy viscosity ( m^2/s ) */
(PID.TID 0000.0001)                 3.000000000000000E+05
(PID.TID 0000.0001)     ;
(PID.TID 0000.0001) viscAh =   /* Lateral biharmonic viscosity ( m^4/s ) */
(PID.TID 0000.0001)                 0.000000000000000E+00
(PID.TID 0000.0001)     ;
(PID.TID 0000.0001) no_slip_sides =  /* Viscous BCs: No-slip sides */
(PID.TID 0000.0001)                   T
(PID.TID 0000.0001)     ;
(PID.TID 0000.0001) viscAr =   /* Vertical eddy viscosity ( units of r^2/s ) */
(PID.TID 0000.0001)                 1.721611620915750E+05
(PID.TID 0000.0001)     ;
(PID.TID 0000.0001) diffKhT =   /* Laplacian diffusion of heat laterally ( m^2/s ) */
(PID.TID 0000.0001)                 1.000000000000000E+03
(PID.TID 0000.0001)     ;
(PID.TID 0000.0001) diffK4T =   /* Bihaarmonic diffusion of heat laterally ( m^4/s ) */
(PID.TID 0000.0001)                 0.000000000000000E+00
(PID.TID 0000.0001)     ;
(PID.TID 0000.0001) diffKzT =   /* Laplacian diffusion of heat vertically ( m^2/s ) */
(PID.TID 0000.0001)                 1.234567000000000E+05
(PID.TID 0000.0001)     ;
(PID.TID 0000.0001) diffKrT =   /* Laplacian diffusion of heat vertically ( m^2/s ) */
(PID.TID 0000.0001)                 5.154525811125000E+03
(PID.TID 0000.0001)     ;
(PID.TID 0000.0001) diffKhS =   /* Laplacian diffusion of salt laterally ( m^2/s ) */
(PID.TID 0000.0001)                 1.000000000000000E+03
(PID.TID 0000.0001)     ;
(PID.TID 0000.0001) diffK4S =   /* Bihaarmonic diffusion of salt laterally ( m^4/s ) */
(PID.TID 0000.0001)                 0.000000000000000E+00
(PID.TID 0000.0001)     ;
(PID.TID 0000.0001) diffKzS =   /* Laplacian diffusion of salt vertically ( m^2/s ) */
(PID.TID 0000.0001)                 1.234567000000000E+05
(PID.TID 0000.0001)     ;
(PID.TID 0000.0001) diffKrS =   /* Laplacian diffusion of salt vertically ( m^2/s ) */
(PID.TID 0000.0001)                 5.154525811125000E+03
(PID.TID 0000.0001)     ;
(PID.TID 0000.0001)  Equation of State : eosType = JMD95P
(PID.TID 0000.0001) tAlpha =   /* Linear EOS thermal expansion coefficient ( 1/degree ) */
(PID.TID 0000.0001)                 1.234567000000000E+05
(PID.TID 0000.0001)     ;
(PID.TID 0000.0001) sBeta =   /* Linear EOS haline contraction coefficient ( 1/ppt ) */
(PID.TID 0000.0001)                 1.234567000000000E+05
(PID.TID 0000.0001)     ;
(PID.TID 0000.0001) rhonil =   /* Reference density ( kg/m^3 ) */
(PID.TID 0000.0001)                 1.035000000000000E+03
(PID.TID 0000.0001)     ;
(PID.TID 0000.0001) rhoConst =   /* Reference density ( kg/m^3 ) */
(PID.TID 0000.0001)                 1.035000000000000E+03
(PID.TID 0000.0001)     ;
(PID.TID 0000.0001) rhoConstFresh =   /* Reference density ( kg/m^3 ) */
(PID.TID 0000.0001)                 9.998000000000000E+02
(PID.TID 0000.0001)     ;
(PID.TID 0000.0001) gravity =   /* Gravitational acceleration ( m/s^2 ) */
(PID.TID 0000.0001)                 9.810000000000000E+00
(PID.TID 0000.0001)     ;
(PID.TID 0000.0001) gBaro =   /* Barotropic gravity ( m/s^2 ) */
(PID.TID 0000.0001)                 9.810000000000000E+00
(PID.TID 0000.0001)     ;
(PID.TID 0000.0001) f0 =   /* Reference coriolis parameter ( 1/s ) */
(PID.TID 0000.0001)                 1.000000000000000E-04
(PID.TID 0000.0001)     ;
(PID.TID 0000.0001) beta =   /* Beta ( 1/(m.s) ) */
(PID.TID 0000.0001)                 9.999999999999999E-12
(PID.TID 0000.0001)     ;
(PID.TID 0000.0001) freeSurfFac =   /* Implicit free surface factor */
(PID.TID 0000.0001)                 1.000000000000000E+00
(PID.TID 0000.0001)     ;
(PID.TID 0000.0001) implicitFreeSurface =   /* Implicit free surface on/off flag */
(PID.TID 0000.0001)                   T
(PID.TID 0000.0001)     ;
(PID.TID 0000.0001) rigidLid =   /* Rigid lid on/off flag */
(PID.TID 0000.0001)                   F
(PID.TID 0000.0001)     ;
(PID.TID 0000.0001) implicSurfPress =   /* Surface Pressure implicit factor (0-1)*/
(PID.TID 0000.0001)                 1.000000000000000E+00
(PID.TID 0000.0001)     ;
(PID.TID 0000.0001) implicDiv2Dflow =   /* Barot. Flow Div. implicit factor (0-1)*/
(PID.TID 0000.0001)                 1.000000000000000E+00
(PID.TID 0000.0001)     ;
(PID.TID 0000.0001) exactConserv =   /* Exact Volume Conservation on/off flag*/
(PID.TID 0000.0001)                   T
(PID.TID 0000.0001)     ;
(PID.TID 0000.0001) uniformLin_PhiSurf =   /* use uniform Bo_surf on/off flag*/
(PID.TID 0000.0001)                   T
(PID.TID 0000.0001)     ;
(PID.TID 0000.0001) nonlinFreeSurf =   /* Non-linear Free Surf. options (-1,0,1,2,3)*/
(PID.TID 0000.0001)                       4
(PID.TID 0000.0001)     ;
(PID.TID 0000.0001)      -1,0= Off ; 1,2,3= On, 2=+rescale gU,gV, 3=+update cg2d solv.
(PID.TID 0000.0001) hFacInf =   /* lower threshold for hFac (nonlinFreeSurf only)*/
(PID.TID 0000.0001)                 2.000000000000000E-01
(PID.TID 0000.0001)     ;
(PID.TID 0000.0001) hFacSup =   /* upper threshold for hFac (nonlinFreeSurf only)*/
(PID.TID 0000.0001)                 2.000000000000000E+00
(PID.TID 0000.0001)     ;
(PID.TID 0000.0001) select_rStar =   /* r* Coordinate options (not yet implemented)*/
(PID.TID 0000.0001)                       0
(PID.TID 0000.0001)     ;
(PID.TID 0000.0001)      -1,0= Off ; 1,2,3= On, 2=+rescale gU,gV, 3=+update cg2d solv.
(PID.TID 0000.0001) useRealFreshWaterFlux =   /* Real Fresh Water Flux on/off flag*/
(PID.TID 0000.0001)                   F
(PID.TID 0000.0001)     ;
(PID.TID 0000.0001) convertFW2Salt = /* convert F.W. Flux to Salt Flux (-1=use local S)(ppt)*/
(PID.TID 0000.0001)                 3.500000000000000E+01
(PID.TID 0000.0001)     ;
(PID.TID 0000.0001) multiDimAdvection =   /* enable/disable Multi-Dim Advection */
(PID.TID 0000.0001)                   T
(PID.TID 0000.0001)     ;
(PID.TID 0000.0001) staggerTimeStep =   /* Stagger time stepping on/off flag */
(PID.TID 0000.0001)                   F
(PID.TID 0000.0001)     ;
(PID.TID 0000.0001) momStepping =  /* Momentum equation on/off flag */
(PID.TID 0000.0001)                   T
(PID.TID 0000.0001)     ;
(PID.TID 0000.0001) momAdvection =  /* Momentum advection on/off flag */
(PID.TID 0000.0001)                   T
(PID.TID 0000.0001)     ;
(PID.TID 0000.0001) momViscosity =  /* Momentum viscosity on/off flag */
(PID.TID 0000.0001)                   T
(PID.TID 0000.0001)     ;
(PID.TID 0000.0001) useCoriolis =  /* Coriolis on/off flag */
(PID.TID 0000.0001)                   T
(PID.TID 0000.0001)     ;
(PID.TID 0000.0001) momForcing =  /* Momentum forcing on/off flag */
(PID.TID 0000.0001)                   T
(PID.TID 0000.0001)     ;
(PID.TID 0000.0001) momPressureForcing =  /* Momentum pressure term on/off flag */
(PID.TID 0000.0001)                   T
(PID.TID 0000.0001)     ;
(PID.TID 0000.0001) tempStepping =  /* Temperature equation on/off flag */
(PID.TID 0000.0001)                   T
(PID.TID 0000.0001)     ;
(PID.TID 0000.0001) tempAdvection=  /* Temperature advection on/off flag */
(PID.TID 0000.0001)                   T
(PID.TID 0000.0001)     ;
(PID.TID 0000.0001) tempForcing  =  /* Temperature forcing on/off flag */
(PID.TID 0000.0001)                   T
(PID.TID 0000.0001)     ;
(PID.TID 0000.0001) saltStepping =  /* Salinity equation on/off flag */
(PID.TID 0000.0001)                   T
(PID.TID 0000.0001)     ;
(PID.TID 0000.0001) saltAdvection=  /* Salinity advection on/off flag */
(PID.TID 0000.0001)                   T
(PID.TID 0000.0001)     ;
(PID.TID 0000.0001) saltForcing  =  /* Salinity forcing on/off flag */
(PID.TID 0000.0001)                   T
(PID.TID 0000.0001)     ;
(PID.TID 0000.0001) nonHydrostatic =  /* Non-Hydrostatic on/off flag */
(PID.TID 0000.0001)                   F
(PID.TID 0000.0001)     ;
(PID.TID 0000.0001) //
(PID.TID 0000.0001) // Elliptic solver(s) paramters ( PARM02 in namelist )
(PID.TID 0000.0001) //
(PID.TID 0000.0001) cg2dMaxIters =   /* Upper limit on 2d con. grad iterations  */
(PID.TID 0000.0001)                     200
(PID.TID 0000.0001)     ;
(PID.TID 0000.0001) cg2dChkResFreq =   /* 2d con. grad convergence test frequency */
(PID.TID 0000.0001)                       1
(PID.TID 0000.0001)     ;
(PID.TID 0000.0001) cg2dTargetResidual =   /* 2d con. grad target residual  */
(PID.TID 0000.0001)                 1.000000000000000E-09
(PID.TID 0000.0001)     ;
(PID.TID 0000.0001) //
(PID.TID 0000.0001) // Time stepping paramters ( PARM03 in namelist )
(PID.TID 0000.0001) //
(PID.TID 0000.0001) nIter0 =   /* Base timestep number  */
(PID.TID 0000.0001)                       0
(PID.TID 0000.0001)     ;
(PID.TID 0000.0001) nTimeSteps =   /* Number of timesteps */
(PID.TID 0000.0001)                      20
(PID.TID 0000.0001)     ;
(PID.TID 0000.0001) deltatTmom =   /* Momentum equation timestep ( s ) */
(PID.TID 0000.0001)                 1.200000000000000E+03
(PID.TID 0000.0001)     ;
(PID.TID 0000.0001) deltaTfreesurf =   /* FreeSurface equation timestep ( s ) */
(PID.TID 0000.0001)                 1.728000000000000E+05
(PID.TID 0000.0001)     ;
(PID.TID 0000.0001) deltatTtracer =   /* Tracer equation timestep ( s ) */
(PID.TID 0000.0001)                 1.728000000000000E+05
(PID.TID 0000.0001)     ;
(PID.TID 0000.0001) deltatTClock  =   /* Model clock timestep ( s ) */
(PID.TID 0000.0001)                 1.728000000000000E+05
(PID.TID 0000.0001)     ;
(PID.TID 0000.0001) cAdjFreq =   /* Convective adjustment interval ( s ) */
(PID.TID 0000.0001)                 0.000000000000000E+00
(PID.TID 0000.0001)     ;
(PID.TID 0000.0001) forcing_In_AB =   /* put T,S Forcing in Adams-Bash. stepping */
(PID.TID 0000.0001)                   T
(PID.TID 0000.0001)     ;
(PID.TID 0000.0001) abeps =   /* Adams-Bashforth stabilizing weight */
(PID.TID 0000.0001)                 1.000000000000000E-01
(PID.TID 0000.0001)     ;
(PID.TID 0000.0001) tauCD =   /* CD coupling time-scale ( s ) */
(PID.TID 0000.0001)                 1.200000000000000E+03
(PID.TID 0000.0001)     ;
(PID.TID 0000.0001) rCD =   /* Normalised CD coupling parameter */
(PID.TID 0000.0001)                 0.000000000000000E+00
(PID.TID 0000.0001)     ;
(PID.TID 0000.0001) startTime =   /* Run start time ( s ). */
(PID.TID 0000.0001)                 0.000000000000000E+00
(PID.TID 0000.0001)     ;
(PID.TID 0000.0001) endTime =   /* Integration ending time ( s ). */
(PID.TID 0000.0001)                 3.456000000000000E+06
(PID.TID 0000.0001)     ;
(PID.TID 0000.0001) pChkPtFreq =   /* Permanent restart/checkpoint file interval ( s ). */
(PID.TID 0000.0001)                 3.110400000000000E+09
(PID.TID 0000.0001)     ;
(PID.TID 0000.0001) chkPtFreq =   /* Rolling restart/checkpoint file interval ( s ). */
(PID.TID 0000.0001)                 0.000000000000000E+00
(PID.TID 0000.0001)     ;
(PID.TID 0000.0001) dumpFreq =   /* Model state write out interval ( s ). */
(PID.TID 0000.0001)                 3.110400000000000E+09
(PID.TID 0000.0001)     ;
(PID.TID 0000.0001) //
(PID.TID 0000.0001) // Gridding paramters ( PARM04 in namelist )
(PID.TID 0000.0001) //
(PID.TID 0000.0001) usingCartesianGrid =   /* Cartesian coordinates flag ( True / False ) */
(PID.TID 0000.0001)                   F
(PID.TID 0000.0001)     ;
(PID.TID 0000.0001) usingSphericalPolarGrid =   /* Spherical coordinates flag ( True / False ) */
(PID.TID 0000.0001)                   T
(PID.TID 0000.0001)     ;
(PID.TID 0000.0001) groundAtK1 =   /* Lower Boundary (ground) at the surface(k=1) ( T / F ) */
(PID.TID 0000.0001)                   T
(PID.TID 0000.0001)     ;
(PID.TID 0000.0001) Ro_SeaLevel =   /* r(1) ( units of r ) */
(PID.TID 0000.0001)                 5.302312256608400E+07
(PID.TID 0000.0001)     ;
(PID.TID 0000.0001) rkFac =   /* minus Vertical index orientation  */
(PID.TID 0000.0001)                 1.000000000000000E+00
(PID.TID 0000.0001)     ;
(PID.TID 0000.0001) horiVertRatio =   /* Ratio on units : Horiz - Vertical */
(PID.TID 0000.0001)                 1.015335000000000E+04
(PID.TID 0000.0001)     ;
(PID.TID 0000.0001) drC =   /* C spacing ( units of r ) */
(PID.TID 0000.0001)                 3.551650360010500E+06,      /* K =  1 */
(PID.TID 0000.0001)                 6.836924580405500E+06,      /* K =  2 */
(PID.TID 0000.0001)                 6.306109225519501E+06,      /* K =  3 */
(PID.TID 0000.0001)                 5.779053338153000E+06,      /* K =  4 */
(PID.TID 0000.0001)                 5.255519350233500E+06,      /* K =  5 */
(PID.TID 0000.0001)                 4.735252734850001E+06,      /* K =  6 */
(PID.TID 0000.0001)                 4.217983340545500E+06,      /* K =  7 */
(PID.TID 0000.0001)                 3.703426779226000E+06,      /* K =  8 */
(PID.TID 0000.0001)                 3.191285859157500E+06,      /* K =  9 */
(PID.TID 0000.0001)                 2.681252055355000E+06,      /* K = 10 */
(PID.TID 0000.0001)                 2.173007010517000E+06,      /* K = 11 */
(PID.TID 0000.0001)                 1.666224060479000E+06,      /* K = 12 */
(PID.TID 0000.0001)                 1.211001777568000E+06,      /* K = 13 */
(PID.TID 0000.0001)                 8.573828878235000E+05,      /* K = 14 */
(PID.TID 0000.0001)                 6.050043594899999E+05       /* K = 15 */
(PID.TID 0000.0001)     ;
(PID.TID 0000.0001) drF =   /* W spacing ( units of r ) */
(PID.TID 0000.0001)                 7.103300720021000E+06,      /* K =  1 */
(PID.TID 0000.0001)                 6.570548440790000E+06,      /* K =  2 */
(PID.TID 0000.0001)                 6.041670010249000E+06,      /* K =  3 */
(PID.TID 0000.0001)                 5.516436666057000E+06,      /* K =  4 */
(PID.TID 0000.0001)                 4.994602034410000E+06,      /* K =  5 */
(PID.TID 0000.0001)                 4.475903435290000E+06,      /* K =  6 */
(PID.TID 0000.0001)                 3.960063245801000E+06,      /* K =  7 */
(PID.TID 0000.0001)                 3.446790312651000E+06,      /* K =  8 */
(PID.TID 0000.0001)                 2.935781405664000E+06,      /* K =  9 */
(PID.TID 0000.0001)                 2.426722705046000E+06,      /* K = 10 */
(PID.TID 0000.0001)                 1.919291315988000E+06,      /* K = 11 */
(PID.TID 0000.0001)                 1.413156804970000E+06,      /* K = 12 */
(PID.TID 0000.0001)                 1.008846750166000E+06,      /* K = 13 */
(PID.TID 0000.0001)                 7.059190254810000E+05,      /* K = 14 */
(PID.TID 0000.0001)                 5.040896934990000E+05       /* K = 15 */
(PID.TID 0000.0001)     ;
(PID.TID 0000.0001) delX =   /* U spacing ( m - cartesian, degrees - spherical ) */
(PID.TID 0000.0001)    90 @  4.000000000000000E+00              /* I =  1: 90 */
(PID.TID 0000.0001)     ;
(PID.TID 0000.0001) delY =   /* V spacing ( m - cartesian, degrees - spherical ) */
(PID.TID 0000.0001)    40 @  4.000000000000000E+00              /* J =  1: 40 */
(PID.TID 0000.0001)     ;
(PID.TID 0000.0001) phiMin =    /* South edge (ignored - cartesian, degrees - spherical ) */
(PID.TID 0000.0001)                -8.000000000000000E+01
(PID.TID 0000.0001)     ;
(PID.TID 0000.0001) thetaMin =    /* West edge ( ignored - cartesian, degrees - spherical ) */
(PID.TID 0000.0001)                 0.000000000000000E+00
(PID.TID 0000.0001)     ;
(PID.TID 0000.0001) rSphere =    /* Radius ( ignored - cartesian, m - spherical ) */
(PID.TID 0000.0001)                 6.370000000000000E+06
(PID.TID 0000.0001)     ;
(PID.TID 0000.0001) xcoord =   /* P-point X coord ( m - cartesian, degrees - spherical ) */
(PID.TID 0000.0001)                 2.000000000000000E+00,      /* I =  1 */
(PID.TID 0000.0001)                 6.000000000000000E+00,      /* I =  2 */
(PID.TID 0000.0001)                 1.000000000000000E+01,      /* I =  3 */
(PID.TID 0000.0001)                 1.400000000000000E+01,      /* I =  4 */
(PID.TID 0000.0001)                 1.800000000000000E+01,      /* I =  5 */
(PID.TID 0000.0001)                 2.200000000000000E+01,      /* I =  6 */
(PID.TID 0000.0001)                 2.600000000000000E+01,      /* I =  7 */
(PID.TID 0000.0001)                 3.000000000000000E+01,      /* I =  8 */
(PID.TID 0000.0001)                 3.400000000000000E+01,      /* I =  9 */
(PID.TID 0000.0001)                 3.800000000000000E+01,      /* I = 10 */
(PID.TID 0000.0001)                 4.200000000000000E+01,      /* I = 11 */
(PID.TID 0000.0001)                 4.600000000000000E+01,      /* I = 12 */
(PID.TID 0000.0001)                 5.000000000000000E+01,      /* I = 13 */
(PID.TID 0000.0001)                 5.400000000000000E+01,      /* I = 14 */
(PID.TID 0000.0001)                 5.800000000000000E+01,      /* I = 15 */
(PID.TID 0000.0001)                 6.200000000000000E+01,      /* I = 16 */
(PID.TID 0000.0001)                 6.600000000000000E+01,      /* I = 17 */
(PID.TID 0000.0001)                 7.000000000000000E+01,      /* I = 18 */
(PID.TID 0000.0001)                 7.400000000000000E+01,      /* I = 19 */
(PID.TID 0000.0001)                 7.800000000000000E+01,      /* I = 20 */
(PID.TID 0000.0001)                 8.200000000000000E+01,      /* I = 21 */
(PID.TID 0000.0001)                 8.600000000000000E+01,      /* I = 22 */
(PID.TID 0000.0001)                 9.000000000000000E+01,      /* I = 23 */
(PID.TID 0000.0001)                 9.400000000000000E+01,      /* I = 24 */
(PID.TID 0000.0001)                 9.800000000000000E+01,      /* I = 25 */
(PID.TID 0000.0001)                 1.020000000000000E+02,      /* I = 26 */
(PID.TID 0000.0001)                 1.060000000000000E+02,      /* I = 27 */
(PID.TID 0000.0001)                 1.100000000000000E+02,      /* I = 28 */
(PID.TID 0000.0001)                 1.140000000000000E+02,      /* I = 29 */
(PID.TID 0000.0001)                 1.180000000000000E+02,      /* I = 30 */
(PID.TID 0000.0001)                 1.220000000000000E+02,      /* I = 31 */
(PID.TID 0000.0001)                 1.260000000000000E+02,      /* I = 32 */
(PID.TID 0000.0001)                 1.300000000000000E+02,      /* I = 33 */
(PID.TID 0000.0001)                 1.340000000000000E+02,      /* I = 34 */
(PID.TID 0000.0001)                 1.380000000000000E+02,      /* I = 35 */
(PID.TID 0000.0001)                 1.420000000000000E+02,      /* I = 36 */
(PID.TID 0000.0001)                 1.460000000000000E+02,      /* I = 37 */
(PID.TID 0000.0001)                 1.500000000000000E+02,      /* I = 38 */
(PID.TID 0000.0001)                 1.540000000000000E+02,      /* I = 39 */
(PID.TID 0000.0001)                 1.580000000000000E+02,      /* I = 40 */
(PID.TID 0000.0001)                 1.620000000000000E+02,      /* I = 41 */
(PID.TID 0000.0001)                 1.660000000000000E+02,      /* I = 42 */
(PID.TID 0000.0001)                 1.700000000000000E+02,      /* I = 43 */
(PID.TID 0000.0001)                 1.740000000000000E+02,      /* I = 44 */
(PID.TID 0000.0001)                 1.780000000000000E+02,      /* I = 45 */
(PID.TID 0000.0001)                 1.820000000000000E+02,      /* I = 46 */
(PID.TID 0000.0001)                 1.860000000000000E+02,      /* I = 47 */
(PID.TID 0000.0001)                 1.900000000000000E+02,      /* I = 48 */
(PID.TID 0000.0001)                 1.940000000000000E+02,      /* I = 49 */
(PID.TID 0000.0001)                 1.980000000000000E+02,      /* I = 50 */
(PID.TID 0000.0001)                 2.020000000000000E+02,      /* I = 51 */
(PID.TID 0000.0001)                 2.060000000000000E+02,      /* I = 52 */
(PID.TID 0000.0001)                 2.100000000000000E+02,      /* I = 53 */
(PID.TID 0000.0001)                 2.140000000000000E+02,      /* I = 54 */
(PID.TID 0000.0001)                 2.180000000000000E+02,      /* I = 55 */
(PID.TID 0000.0001)                 2.220000000000000E+02,      /* I = 56 */
(PID.TID 0000.0001)                 2.260000000000000E+02,      /* I = 57 */
(PID.TID 0000.0001)                 2.300000000000000E+02,      /* I = 58 */
(PID.TID 0000.0001)                 2.340000000000000E+02,      /* I = 59 */
(PID.TID 0000.0001)                 2.380000000000000E+02,      /* I = 60 */
(PID.TID 0000.0001)                 2.420000000000000E+02,      /* I = 61 */
(PID.TID 0000.0001)                 2.460000000000000E+02,      /* I = 62 */
(PID.TID 0000.0001)                 2.500000000000000E+02,      /* I = 63 */
(PID.TID 0000.0001)                 2.540000000000000E+02,      /* I = 64 */
(PID.TID 0000.0001)                 2.580000000000000E+02,      /* I = 65 */
(PID.TID 0000.0001)                 2.620000000000000E+02,      /* I = 66 */
(PID.TID 0000.0001)                 2.660000000000000E+02,      /* I = 67 */
(PID.TID 0000.0001)                 2.700000000000000E+02,      /* I = 68 */
(PID.TID 0000.0001)                 2.740000000000000E+02,      /* I = 69 */
(PID.TID 0000.0001)                 2.780000000000000E+02,      /* I = 70 */
(PID.TID 0000.0001)                 2.820000000000000E+02,      /* I = 71 */
(PID.TID 0000.0001)                 2.860000000000000E+02,      /* I = 72 */
(PID.TID 0000.0001)                 2.900000000000000E+02,      /* I = 73 */
(PID.TID 0000.0001)                 2.940000000000000E+02,      /* I = 74 */
(PID.TID 0000.0001)                 2.980000000000000E+02,      /* I = 75 */
(PID.TID 0000.0001)                 3.020000000000000E+02,      /* I = 76 */
(PID.TID 0000.0001)                 3.060000000000000E+02,      /* I = 77 */
(PID.TID 0000.0001)                 3.100000000000000E+02,      /* I = 78 */
(PID.TID 0000.0001)                 3.140000000000000E+02,      /* I = 79 */
(PID.TID 0000.0001)                 3.180000000000000E+02,      /* I = 80 */
(PID.TID 0000.0001)                 3.220000000000000E+02,      /* I = 81 */
(PID.TID 0000.0001)                 3.260000000000000E+02,      /* I = 82 */
(PID.TID 0000.0001)                 3.300000000000000E+02,      /* I = 83 */
(PID.TID 0000.0001)                 3.340000000000000E+02,      /* I = 84 */
(PID.TID 0000.0001)                 3.380000000000000E+02,      /* I = 85 */
(PID.TID 0000.0001)                 3.420000000000000E+02,      /* I = 86 */
(PID.TID 0000.0001)                 3.460000000000000E+02,      /* I = 87 */
(PID.TID 0000.0001)                 3.500000000000000E+02,      /* I = 88 */
(PID.TID 0000.0001)                 3.540000000000000E+02,      /* I = 89 */
(PID.TID 0000.0001)                 3.580000000000000E+02       /* I = 90 */
(PID.TID 0000.0001)     ;
(PID.TID 0000.0001) ycoord =   /* P-point Y coord ( m - cartesian, degrees - spherical ) */
(PID.TID 0000.0001)                -7.800000000000000E+01,      /* J =  1 */
(PID.TID 0000.0001)                -7.400000000000000E+01,      /* J =  2 */
(PID.TID 0000.0001)                -7.000000000000000E+01,      /* J =  3 */
(PID.TID 0000.0001)                -6.600000000000000E+01,      /* J =  4 */
(PID.TID 0000.0001)                -6.200000000000000E+01,      /* J =  5 */
(PID.TID 0000.0001)                -5.800000000000000E+01,      /* J =  6 */
(PID.TID 0000.0001)                -5.400000000000000E+01,      /* J =  7 */
(PID.TID 0000.0001)                -5.000000000000000E+01,      /* J =  8 */
(PID.TID 0000.0001)                -4.600000000000000E+01,      /* J =  9 */
(PID.TID 0000.0001)                -4.200000000000000E+01,      /* J = 10 */
(PID.TID 0000.0001)                -3.800000000000000E+01,      /* J = 11 */
(PID.TID 0000.0001)                -3.400000000000000E+01,      /* J = 12 */
(PID.TID 0000.0001)                -3.000000000000000E+01,      /* J = 13 */
(PID.TID 0000.0001)                -2.600000000000000E+01,      /* J = 14 */
(PID.TID 0000.0001)                -2.200000000000000E+01,      /* J = 15 */
(PID.TID 0000.0001)                -1.800000000000000E+01,      /* J = 16 */
(PID.TID 0000.0001)                -1.400000000000000E+01,      /* J = 17 */
(PID.TID 0000.0001)                -1.000000000000000E+01,      /* J = 18 */
(PID.TID 0000.0001)                -6.000000000000000E+00,      /* J = 19 */
(PID.TID 0000.0001)                -2.000000000000000E+00,      /* J = 20 */
(PID.TID 0000.0001)                 2.000000000000000E+00,      /* J = 21 */
(PID.TID 0000.0001)                 6.000000000000000E+00,      /* J = 22 */
(PID.TID 0000.0001)                 1.000000000000000E+01,      /* J = 23 */
(PID.TID 0000.0001)                 1.400000000000000E+01,      /* J = 24 */
(PID.TID 0000.0001)                 1.800000000000000E+01,      /* J = 25 */
(PID.TID 0000.0001)                 2.200000000000000E+01,      /* J = 26 */
(PID.TID 0000.0001)                 2.600000000000000E+01,      /* J = 27 */
(PID.TID 0000.0001)                 3.000000000000000E+01,      /* J = 28 */
(PID.TID 0000.0001)                 3.400000000000000E+01,      /* J = 29 */
(PID.TID 0000.0001)                 3.800000000000000E+01,      /* J = 30 */
(PID.TID 0000.0001)                 4.200000000000000E+01,      /* J = 31 */
(PID.TID 0000.0001)                 4.600000000000000E+01,      /* J = 32 */
(PID.TID 0000.0001)                 5.000000000000000E+01,      /* J = 33 */
(PID.TID 0000.0001)                 5.400000000000000E+01,      /* J = 34 */
(PID.TID 0000.0001)                 5.800000000000000E+01,      /* J = 35 */
(PID.TID 0000.0001)                 6.200000000000000E+01,      /* J = 36 */
(PID.TID 0000.0001)                 6.600000000000000E+01,      /* J = 37 */
(PID.TID 0000.0001)                 7.000000000000000E+01,      /* J = 38 */
(PID.TID 0000.0001)                 7.400000000000000E+01,      /* J = 39 */
(PID.TID 0000.0001)                 7.800000000000000E+01       /* J = 40 */
(PID.TID 0000.0001)     ;
(PID.TID 0000.0001) rcoord =   /* P-point R coordinate (  units of r ) */
(PID.TID 0000.0001)                 4.947147220607350E+07,      /* K =  1 */
(PID.TID 0000.0001)                 4.263454762566800E+07,      /* K =  2 */
(PID.TID 0000.0001)                 3.632843840014850E+07,      /* K =  3 */
(PID.TID 0000.0001)                 3.054938506199550E+07,      /* K =  4 */
(PID.TID 0000.0001)                 2.529386571176200E+07,      /* K =  5 */
(PID.TID 0000.0001)                 2.055861297691200E+07,      /* K =  6 */
(PID.TID 0000.0001)                 1.634062963636650E+07,      /* K =  7 */
(PID.TID 0000.0001)                 1.263720285714050E+07,      /* K =  8 */
(PID.TID 0000.0001)                 9.445916997983005E+06,      /* K =  9 */
(PID.TID 0000.0001)                 6.764664942628005E+06,      /* K = 10 */
(PID.TID 0000.0001)                 4.591657932111004E+06,      /* K = 11 */
(PID.TID 0000.0001)                 2.925433871632004E+06,      /* K = 12 */
(PID.TID 0000.0001)                 1.714432094064004E+06,      /* K = 13 */
(PID.TID 0000.0001)                 8.570492062405043E+05,      /* K = 14 */
(PID.TID 0000.0001)                 2.520448467505043E+05       /* K = 15 */
(PID.TID 0000.0001)     ;
(PID.TID 0000.0001) rF =   /* W-Interf. R coordinate (  units of r ) */
(PID.TID 0000.0001)                 5.302312256608400E+07,      /* K =  1 */
(PID.TID 0000.0001)                 4.591982184606300E+07,      /* K =  2 */
(PID.TID 0000.0001)                 3.934927340527300E+07,      /* K =  3 */
(PID.TID 0000.0001)                 3.330760339502400E+07,      /* K =  4 */
(PID.TID 0000.0001)                 2.779116672896700E+07,      /* K =  5 */
(PID.TID 0000.0001)                 2.279656469455700E+07,      /* K =  6 */
(PID.TID 0000.0001)                 1.832066125926699E+07,      /* K =  7 */
(PID.TID 0000.0001)                 1.436059801346599E+07,      /* K =  8 */
(PID.TID 0000.0001)                 1.091380770081500E+07,      /* K =  9 */
(PID.TID 0000.0001)                 7.978026295150995E+06,      /* K = 10 */
(PID.TID 0000.0001)                 5.551303590104995E+06,      /* K = 11 */
(PID.TID 0000.0001)                 3.632012274116995E+06,      /* K = 12 */
(PID.TID 0000.0001)                 2.218855469146995E+06,      /* K = 13 */
(PID.TID 0000.0001)                 1.210008718980995E+06,      /* K = 14 */
(PID.TID 0000.0001)                 5.040896934999955E+05,      /* K = 15 */
(PID.TID 0000.0001)                 9.955256246030331E-07       /* K = 16 */
(PID.TID 0000.0001)     ;
(PID.TID 0000.0001) dxF =  /* dxF(:,1,:,1) ( m - cartesian, degrees - spherical ) */
(PID.TID 0000.0001)    90 @  9.246038586187513E+04              /* I =  1: 90 */
(PID.TID 0000.0001)     ;
(PID.TID 0000.0001) dxF =  /* dxF(1,:,1,:) ( m - cartesian, degrees - spherical ) */
(PID.TID 0000.0001)                 9.246038586187513E+04,      /* J =  1 */
(PID.TID 0000.0001)                 1.225786591246834E+05,      /* J =  2 */
(PID.TID 0000.0001)                 1.520997414818001E+05,      /* J =  3 */
(PID.TID 0000.0001)                 1.808798091874300E+05,      /* J =  4 */
(PID.TID 0000.0001)                 2.087786486446736E+05,      /* J =  5 */
(PID.TID 0000.0001)                 2.356603395120766E+05,      /* J =  6 */
(PID.TID 0000.0001)                 2.613939168938713E+05,      /* J =  7 */
(PID.TID 0000.0001)                 2.858540093877838E+05,      /* J =  8 */
(PID.TID 0000.0001)                 3.089214498819035E+05,      /* J =  9 */
(PID.TID 0000.0001)                 3.304838561248741E+05,      /* J = 10 */
(PID.TID 0000.0001)                 3.504361782409254E+05,      /* J = 11 */
(PID.TID 0000.0001)                 3.686812105223083E+05,      /* J = 12 */
(PID.TID 0000.0001)                 3.851300650057322E+05,      /* J = 13 */
(PID.TID 0000.0001)                 3.997026045255871E+05,      /* J = 14 */
(PID.TID 0000.0001)                 4.123278331341585E+05,      /* J = 15 */
(PID.TID 0000.0001)                 4.229442419867491E+05,      /* J = 16 */
(PID.TID 0000.0001)                 4.315001090065869E+05,      /* J = 17 */
(PID.TID 0000.0001)                 4.379537508695839E+05,      /* J = 18 */
(PID.TID 0000.0001)                 4.422737260813013E+05,      /* J = 19 */
(PID.TID 0000.0001)     2 @  4.444389881567501E+05,             /* J = 20: 21 */
(PID.TID 0000.0001)                 4.422737260813013E+05,      /* J = 22 */
(PID.TID 0000.0001)                 4.379537508695839E+05,      /* J = 23 */
(PID.TID 0000.0001)                 4.315001090065869E+05,      /* J = 24 */
(PID.TID 0000.0001)                 4.229442419867491E+05,      /* J = 25 */
(PID.TID 0000.0001)                 4.123278331341585E+05,      /* J = 26 */
(PID.TID 0000.0001)                 3.997026045255871E+05,      /* J = 27 */
(PID.TID 0000.0001)                 3.851300650057322E+05,      /* J = 28 */
(PID.TID 0000.0001)                 3.686812105223083E+05,      /* J = 29 */
(PID.TID 0000.0001)                 3.504361782409254E+05,      /* J = 30 */
(PID.TID 0000.0001)                 3.304838561248741E+05,      /* J = 31 */
(PID.TID 0000.0001)                 3.089214498819035E+05,      /* J = 32 */
(PID.TID 0000.0001)                 2.858540093877838E+05,      /* J = 33 */
(PID.TID 0000.0001)                 2.613939168938713E+05,      /* J = 34 */
(PID.TID 0000.0001)                 2.356603395120766E+05,      /* J = 35 */
(PID.TID 0000.0001)                 2.087786486446736E+05,      /* J = 36 */
(PID.TID 0000.0001)                 1.808798091874300E+05,      /* J = 37 */
(PID.TID 0000.0001)                 1.520997414818001E+05,      /* J = 38 */
(PID.TID 0000.0001)                 1.225786591246834E+05,      /* J = 39 */
(PID.TID 0000.0001)                 9.246038586187513E+04       /* J = 40 */
(PID.TID 0000.0001)     ;
(PID.TID 0000.0001) dyF =  /* dyF(:,1,:,1) ( m - cartesian, degrees - spherical ) */
(PID.TID 0000.0001)    90 @  4.447098934081552E+05              /* I =  1: 90 */
(PID.TID 0000.0001)     ;
(PID.TID 0000.0001) dyF =  /* dyF(1,:,1,:) ( m - cartesian, degrees - spherical ) */
(PID.TID 0000.0001)    40 @  4.447098934081552E+05              /* J =  1: 40 */
(PID.TID 0000.0001)     ;
(PID.TID 0000.0001) dxG =  /* dxG(:,1,:,1) ( m - cartesian, degrees - spherical ) */
(PID.TID 0000.0001)    90 @  7.722306258078101E+04              /* I =  1: 90 */
(PID.TID 0000.0001)     ;
(PID.TID 0000.0001) dxG =  /* dxG(1,:,1,:) ( m - cartesian, degrees - spherical ) */
(PID.TID 0000.0001)                 7.722306258078101E+04,      /* J =  1 */
(PID.TID 0000.0001)                 1.075850604052271E+05,      /* J =  2 */
(PID.TID 0000.0001)                 1.374229146297914E+05,      /* J =  3 */
(PID.TID 0000.0001)                 1.665912582279823E+05,      /* J =  4 */
(PID.TID 0000.0001)                 1.949479859617814E+05,      /* J =  5 */
(PID.TID 0000.0001)                 2.223549467040776E+05,      /* J =  6 */
(PID.TID 0000.0001)                 2.486786164970726E+05,      /* J =  7 */
(PID.TID 0000.0001)                 2.737907490675810E+05,      /* J =  8 */
(PID.TID 0000.0001)                 2.975690006299820E+05,      /* J =  9 */
(PID.TID 0000.0001)                 3.198975259328452E+05,      /* J = 10 */
(PID.TID 0000.0001)                 3.406675426453503E+05,      /* J = 11 */
(PID.TID 0000.0001)                 3.597778613338689E+05,      /* J = 12 */
(PID.TID 0000.0001)                 3.771353784467131E+05,      /* J = 13 */
(PID.TID 0000.0001)                 3.926555299052806E+05,      /* J = 14 */
(PID.TID 0000.0001)                 4.062627030917454E+05,      /* J = 15 */
(PID.TID 0000.0001)                 4.178906052261313E+05,      /* J = 16 */
(PID.TID 0000.0001)                 4.274825863380723E+05,      /* J = 17 */
(PID.TID 0000.0001)                 4.349919152597734E+05,      /* J = 18 */
(PID.TID 0000.0001)                 4.403820072955634E+05,      /* J = 19 */
(PID.TID 0000.0001)                 4.436266024588540E+05,      /* J = 20 */
(PID.TID 0000.0001)                 4.447098934081552E+05,      /* J = 21 */
(PID.TID 0000.0001)                 4.436266024588540E+05,      /* J = 22 */
(PID.TID 0000.0001)                 4.403820072955634E+05,      /* J = 23 */
(PID.TID 0000.0001)                 4.349919152597734E+05,      /* J = 24 */
(PID.TID 0000.0001)                 4.274825863380723E+05,      /* J = 25 */
(PID.TID 0000.0001)                 4.178906052261313E+05,      /* J = 26 */
(PID.TID 0000.0001)                 4.062627030917454E+05,      /* J = 27 */
(PID.TID 0000.0001)                 3.926555299052806E+05,      /* J = 28 */
(PID.TID 0000.0001)                 3.771353784467131E+05,      /* J = 29 */
(PID.TID 0000.0001)                 3.597778613338689E+05,      /* J = 30 */
(PID.TID 0000.0001)                 3.406675426453503E+05,      /* J = 31 */
(PID.TID 0000.0001)                 3.198975259328452E+05,      /* J = 32 */
(PID.TID 0000.0001)                 2.975690006299820E+05,      /* J = 33 */
(PID.TID 0000.0001)                 2.737907490675810E+05,      /* J = 34 */
(PID.TID 0000.0001)                 2.486786164970726E+05,      /* J = 35 */
(PID.TID 0000.0001)                 2.223549467040776E+05,      /* J = 36 */
(PID.TID 0000.0001)                 1.949479859617814E+05,      /* J = 37 */
(PID.TID 0000.0001)                 1.665912582279823E+05,      /* J = 38 */
(PID.TID 0000.0001)                 1.374229146297914E+05,      /* J = 39 */
(PID.TID 0000.0001)                 1.075850604052271E+05       /* J = 40 */
(PID.TID 0000.0001)     ;
(PID.TID 0000.0001) dyG =  /* dyG(:,1,:,1) ( m - cartesian, degrees - spherical ) */
(PID.TID 0000.0001)    90 @  4.447098934081552E+05              /* I =  1: 90 */
(PID.TID 0000.0001)     ;
(PID.TID 0000.0001) dyG =  /* dyG(1,:,1,:) ( m - cartesian, degrees - spherical ) */
(PID.TID 0000.0001)    40 @  4.447098934081552E+05              /* J =  1: 40 */
(PID.TID 0000.0001)     ;
(PID.TID 0000.0001) dxC =  /* dxC(:,1,:,1) ( m - cartesian, degrees - spherical ) */
(PID.TID 0000.0001)    90 @  9.246038586187513E+04              /* I =  1: 90 */
(PID.TID 0000.0001)     ;
(PID.TID 0000.0001) dxC =  /* dxC(1,:,1,:) ( m - cartesian, degrees - spherical ) */
(PID.TID 0000.0001)                 9.246038586187513E+04,      /* J =  1 */
(PID.TID 0000.0001)                 1.225786591246834E+05,      /* J =  2 */
(PID.TID 0000.0001)                 1.520997414818001E+05,      /* J =  3 */
(PID.TID 0000.0001)                 1.808798091874300E+05,      /* J =  4 */
(PID.TID 0000.0001)                 2.087786486446736E+05,      /* J =  5 */
(PID.TID 0000.0001)                 2.356603395120766E+05,      /* J =  6 */
(PID.TID 0000.0001)                 2.613939168938713E+05,      /* J =  7 */
(PID.TID 0000.0001)                 2.858540093877838E+05,      /* J =  8 */
(PID.TID 0000.0001)                 3.089214498819035E+05,      /* J =  9 */
(PID.TID 0000.0001)                 3.304838561248741E+05,      /* J = 10 */
(PID.TID 0000.0001)                 3.504361782409254E+05,      /* J = 11 */
(PID.TID 0000.0001)                 3.686812105223083E+05,      /* J = 12 */
(PID.TID 0000.0001)                 3.851300650057322E+05,      /* J = 13 */
(PID.TID 0000.0001)                 3.997026045255871E+05,      /* J = 14 */
(PID.TID 0000.0001)                 4.123278331341585E+05,      /* J = 15 */
(PID.TID 0000.0001)                 4.229442419867491E+05,      /* J = 16 */
(PID.TID 0000.0001)                 4.315001090065869E+05,      /* J = 17 */
(PID.TID 0000.0001)                 4.379537508695839E+05,      /* J = 18 */
(PID.TID 0000.0001)                 4.422737260813013E+05,      /* J = 19 */
(PID.TID 0000.0001)     2 @  4.444389881567501E+05,             /* J = 20: 21 */
(PID.TID 0000.0001)                 4.422737260813013E+05,      /* J = 22 */
(PID.TID 0000.0001)                 4.379537508695839E+05,      /* J = 23 */
(PID.TID 0000.0001)                 4.315001090065869E+05,      /* J = 24 */
(PID.TID 0000.0001)                 4.229442419867491E+05,      /* J = 25 */
(PID.TID 0000.0001)                 4.123278331341585E+05,      /* J = 26 */
(PID.TID 0000.0001)                 3.997026045255871E+05,      /* J = 27 */
(PID.TID 0000.0001)                 3.851300650057322E+05,      /* J = 28 */
(PID.TID 0000.0001)                 3.686812105223083E+05,      /* J = 29 */
(PID.TID 0000.0001)                 3.504361782409254E+05,      /* J = 30 */
(PID.TID 0000.0001)                 3.304838561248741E+05,      /* J = 31 */
(PID.TID 0000.0001)                 3.089214498819035E+05,      /* J = 32 */
(PID.TID 0000.0001)                 2.858540093877838E+05,      /* J = 33 */
(PID.TID 0000.0001)                 2.613939168938713E+05,      /* J = 34 */
(PID.TID 0000.0001)                 2.356603395120766E+05,      /* J = 35 */
(PID.TID 0000.0001)                 2.087786486446736E+05,      /* J = 36 */
(PID.TID 0000.0001)                 1.808798091874300E+05,      /* J = 37 */
(PID.TID 0000.0001)                 1.520997414818001E+05,      /* J = 38 */
(PID.TID 0000.0001)                 1.225786591246834E+05,      /* J = 39 */
(PID.TID 0000.0001)                 9.246038586187513E+04       /* J = 40 */
(PID.TID 0000.0001)     ;
(PID.TID 0000.0001) dyC =  /* dyC(:,1,:,1) ( m - cartesian, degrees - spherical ) */
(PID.TID 0000.0001)    90 @  4.447098934081552E+05              /* I =  1: 90 */
(PID.TID 0000.0001)     ;
(PID.TID 0000.0001) dyC =  /* dyC(1,:,1,:) ( m - cartesian, degrees - spherical ) */
(PID.TID 0000.0001)    40 @  4.447098934081552E+05              /* J =  1: 40 */
(PID.TID 0000.0001)     ;
(PID.TID 0000.0001) dxV =  /* dxV(:,1,:,1) ( m - cartesian, degrees - spherical ) */
(PID.TID 0000.0001)    90 @  7.722306258078101E+04              /* I =  1: 90 */
(PID.TID 0000.0001)     ;
(PID.TID 0000.0001) dxV =  /* dxV(1,:,1,:) ( m - cartesian, degrees - spherical ) */
(PID.TID 0000.0001)                 7.722306258078101E+04,      /* J =  1 */
(PID.TID 0000.0001)                 1.075850604052271E+05,      /* J =  2 */
(PID.TID 0000.0001)                 1.374229146297914E+05,      /* J =  3 */
(PID.TID 0000.0001)                 1.665912582279823E+05,      /* J =  4 */
(PID.TID 0000.0001)                 1.949479859617814E+05,      /* J =  5 */
(PID.TID 0000.0001)                 2.223549467040776E+05,      /* J =  6 */
(PID.TID 0000.0001)                 2.486786164970726E+05,      /* J =  7 */
(PID.TID 0000.0001)                 2.737907490675810E+05,      /* J =  8 */
(PID.TID 0000.0001)                 2.975690006299820E+05,      /* J =  9 */
(PID.TID 0000.0001)                 3.198975259328452E+05,      /* J = 10 */
(PID.TID 0000.0001)                 3.406675426453503E+05,      /* J = 11 */
(PID.TID 0000.0001)                 3.597778613338689E+05,      /* J = 12 */
(PID.TID 0000.0001)                 3.771353784467131E+05,      /* J = 13 */
(PID.TID 0000.0001)                 3.926555299052806E+05,      /* J = 14 */
(PID.TID 0000.0001)                 4.062627030917454E+05,      /* J = 15 */
(PID.TID 0000.0001)                 4.178906052261313E+05,      /* J = 16 */
(PID.TID 0000.0001)                 4.274825863380723E+05,      /* J = 17 */
(PID.TID 0000.0001)                 4.349919152597734E+05,      /* J = 18 */
(PID.TID 0000.0001)                 4.403820072955634E+05,      /* J = 19 */
(PID.TID 0000.0001)                 4.436266024588540E+05,      /* J = 20 */
(PID.TID 0000.0001)                 4.447098934081552E+05,      /* J = 21 */
(PID.TID 0000.0001)                 4.436266024588540E+05,      /* J = 22 */
(PID.TID 0000.0001)                 4.403820072955634E+05,      /* J = 23 */
(PID.TID 0000.0001)                 4.349919152597734E+05,      /* J = 24 */
(PID.TID 0000.0001)                 4.274825863380723E+05,      /* J = 25 */
(PID.TID 0000.0001)                 4.178906052261313E+05,      /* J = 26 */
(PID.TID 0000.0001)                 4.062627030917454E+05,      /* J = 27 */
(PID.TID 0000.0001)                 3.926555299052806E+05,      /* J = 28 */
(PID.TID 0000.0001)                 3.771353784467131E+05,      /* J = 29 */
(PID.TID 0000.0001)                 3.597778613338689E+05,      /* J = 30 */
(PID.TID 0000.0001)                 3.406675426453503E+05,      /* J = 31 */
(PID.TID 0000.0001)                 3.198975259328452E+05,      /* J = 32 */
(PID.TID 0000.0001)                 2.975690006299820E+05,      /* J = 33 */
(PID.TID 0000.0001)                 2.737907490675810E+05,      /* J = 34 */
(PID.TID 0000.0001)                 2.486786164970726E+05,      /* J = 35 */
(PID.TID 0000.0001)                 2.223549467040776E+05,      /* J = 36 */
(PID.TID 0000.0001)                 1.949479859617814E+05,      /* J = 37 */
(PID.TID 0000.0001)                 1.665912582279823E+05,      /* J = 38 */
(PID.TID 0000.0001)                 1.374229146297914E+05,      /* J = 39 */
(PID.TID 0000.0001)                 1.075850604052271E+05       /* J = 40 */
(PID.TID 0000.0001)     ;
(PID.TID 0000.0001) dyU =  /* dyU(:,1,:,1) ( m - cartesian, degrees - spherical ) */
(PID.TID 0000.0001)    90 @  4.447098934081552E+05              /* I =  1: 90 */
(PID.TID 0000.0001)     ;
(PID.TID 0000.0001) dyU =  /* dyU(1,:,1,:) ( m - cartesian, degrees - spherical ) */
(PID.TID 0000.0001)    40 @  4.447098934081552E+05              /* J =  1: 40 */
(PID.TID 0000.0001)     ;
(PID.TID 0000.0001) rA =  /* rA(:,1,:,1) ( m - cartesian, degrees - spherical ) */
(PID.TID 0000.0001)    90 @  4.110969866729052E+10              /* I =  1: 90 */
(PID.TID 0000.0001)     ;
(PID.TID 0000.0001) rA =  /* rA(1,:,1,:) ( m - cartesian, degrees - spherical ) */
(PID.TID 0000.0001)                 4.110969866729052E+10,      /* J =  1 */
(PID.TID 0000.0001)                 5.450087291636662E+10,      /* J =  2 */
(PID.TID 0000.0001)                 6.762652439100241E+10,      /* J =  3 */
(PID.TID 0000.0001)                 8.042270623660014E+10,      /* J =  4 */
(PID.TID 0000.0001)                 9.282707674147511E+10,      /* J =  5 */
(PID.TID 0000.0001)                 1.047792030594104E+11,      /* J =  6 */
(PID.TID 0000.0001)                 1.162208556324094E+11,      /* J =  7 */
(PID.TID 0000.0001)                 1.270962918792466E+11,      /* J =  8 */
(PID.TID 0000.0001)                 1.373525277677230E+11,      /* J =  9 */
(PID.TID 0000.0001)                 1.469395959475424E+11,      /* J = 10 */
(PID.TID 0000.0001)                 1.558107891862222E+11,      /* J = 11 */
(PID.TID 0000.0001)                 1.639228879220324E+11,      /* J = 12 */
(PID.TID 0000.0001)                 1.712363708253575E+11,      /* J = 13 */
(PID.TID 0000.0001)                 1.777156073426414E+11,      /* J = 14 */
(PID.TID 0000.0001)                 1.833290312848624E+11,      /* J = 15 */
(PID.TID 0000.0001)                 1.880492946148330E+11,      /* J = 16 */
(PID.TID 0000.0001)                 1.918534006840893E+11,      /* J = 17 */
(PID.TID 0000.0001)                 1.947228162702492E+11,      /* J = 18 */
(PID.TID 0000.0001)                 1.966435618690094E+11,      /* J = 19 */
(PID.TID 0000.0001)     2 @  1.976062798008856E+11,             /* J = 20: 21 */
(PID.TID 0000.0001)                 1.966435618690094E+11,      /* J = 22 */
(PID.TID 0000.0001)                 1.947228162702492E+11,      /* J = 23 */
(PID.TID 0000.0001)                 1.918534006840893E+11,      /* J = 24 */
(PID.TID 0000.0001)                 1.880492946148330E+11,      /* J = 25 */
(PID.TID 0000.0001)                 1.833290312848624E+11,      /* J = 26 */
(PID.TID 0000.0001)                 1.777156073426414E+11,      /* J = 27 */
(PID.TID 0000.0001)                 1.712363708253575E+11,      /* J = 28 */
(PID.TID 0000.0001)                 1.639228879220324E+11,      /* J = 29 */
(PID.TID 0000.0001)                 1.558107891862222E+11,      /* J = 30 */
(PID.TID 0000.0001)                 1.469395959475424E+11,      /* J = 31 */
(PID.TID 0000.0001)                 1.373525277677230E+11,      /* J = 32 */
(PID.TID 0000.0001)                 1.270962918792466E+11,      /* J = 33 */
(PID.TID 0000.0001)                 1.162208556324094E+11,      /* J = 34 */
(PID.TID 0000.0001)                 1.047792030594104E+11,      /* J = 35 */
(PID.TID 0000.0001)                 9.282707674147511E+10,      /* J = 36 */
(PID.TID 0000.0001)                 8.042270623660014E+10,      /* J = 37 */
(PID.TID 0000.0001)                 6.762652439100241E+10,      /* J = 38 */
(PID.TID 0000.0001)                 5.450087291636662E+10,      /* J = 39 */
(PID.TID 0000.0001)                 4.110969866729052E+10       /* J = 40 */
(PID.TID 0000.0001)     ;
(PID.TID 0000.0001) rAw =  /* rAw(:,1,:,1) ( m - cartesian, degrees - spherical ) */
(PID.TID 0000.0001)    90 @  4.110969866729052E+10              /* I =  1: 90 */
(PID.TID 0000.0001)     ;
(PID.TID 0000.0001) rAw =  /* rAw(1,:,1,:) ( m - cartesian, degrees - spherical ) */
(PID.TID 0000.0001)                 4.110969866729052E+10,      /* J =  1 */
(PID.TID 0000.0001)                 5.450087291636662E+10,      /* J =  2 */
(PID.TID 0000.0001)                 6.762652439100241E+10,      /* J =  3 */
(PID.TID 0000.0001)                 8.042270623660014E+10,      /* J =  4 */
(PID.TID 0000.0001)                 9.282707674147511E+10,      /* J =  5 */
(PID.TID 0000.0001)                 1.047792030594104E+11,      /* J =  6 */
(PID.TID 0000.0001)                 1.162208556324094E+11,      /* J =  7 */
(PID.TID 0000.0001)                 1.270962918792466E+11,      /* J =  8 */
(PID.TID 0000.0001)                 1.373525277677230E+11,      /* J =  9 */
(PID.TID 0000.0001)                 1.469395959475424E+11,      /* J = 10 */
(PID.TID 0000.0001)                 1.558107891862222E+11,      /* J = 11 */
(PID.TID 0000.0001)                 1.639228879220324E+11,      /* J = 12 */
(PID.TID 0000.0001)                 1.712363708253575E+11,      /* J = 13 */
(PID.TID 0000.0001)                 1.777156073426414E+11,      /* J = 14 */
(PID.TID 0000.0001)                 1.833290312848624E+11,      /* J = 15 */
(PID.TID 0000.0001)                 1.880492946148330E+11,      /* J = 16 */
(PID.TID 0000.0001)                 1.918534006840893E+11,      /* J = 17 */
(PID.TID 0000.0001)                 1.947228162702492E+11,      /* J = 18 */
(PID.TID 0000.0001)                 1.966435618690094E+11,      /* J = 19 */
(PID.TID 0000.0001)     2 @  1.976062798008856E+11,             /* J = 20: 21 */
(PID.TID 0000.0001)                 1.966435618690094E+11,      /* J = 22 */
(PID.TID 0000.0001)                 1.947228162702492E+11,      /* J = 23 */
(PID.TID 0000.0001)                 1.918534006840893E+11,      /* J = 24 */
(PID.TID 0000.0001)                 1.880492946148330E+11,      /* J = 25 */
(PID.TID 0000.0001)                 1.833290312848624E+11,      /* J = 26 */
(PID.TID 0000.0001)                 1.777156073426414E+11,      /* J = 27 */
(PID.TID 0000.0001)                 1.712363708253575E+11,      /* J = 28 */
(PID.TID 0000.0001)                 1.639228879220324E+11,      /* J = 29 */
(PID.TID 0000.0001)                 1.558107891862222E+11,      /* J = 30 */
(PID.TID 0000.0001)                 1.469395959475424E+11,      /* J = 31 */
(PID.TID 0000.0001)                 1.373525277677230E+11,      /* J = 32 */
(PID.TID 0000.0001)                 1.270962918792466E+11,      /* J = 33 */
(PID.TID 0000.0001)                 1.162208556324094E+11,      /* J = 34 */
(PID.TID 0000.0001)                 1.047792030594104E+11,      /* J = 35 */
(PID.TID 0000.0001)                 9.282707674147511E+10,      /* J = 36 */
(PID.TID 0000.0001)                 8.042270623660014E+10,      /* J = 37 */
(PID.TID 0000.0001)                 6.762652439100241E+10,      /* J = 38 */
(PID.TID 0000.0001)                 5.450087291636662E+10,      /* J = 39 */
(PID.TID 0000.0001)                 4.110969866729052E+10       /* J = 40 */
(PID.TID 0000.0001)     ;
(PID.TID 0000.0001) rAs =  /* rAs(:,1,:,1) ( m - cartesian, degrees - spherical ) */
(PID.TID 0000.0001)    90 @  3.433488626798226E+10              /* I =  1: 90 */
(PID.TID 0000.0001)     ;
(PID.TID 0000.0001) rAs =  /* rAs(1,:,1,:) ( m - cartesian, degrees - spherical ) */
(PID.TID 0000.0001)                 3.433488626798226E+10,      /* J =  1 */
(PID.TID 0000.0001)                 4.783442523123644E+10,      /* J =  2 */
(PID.TID 0000.0001)                 6.110091968306396E+10,      /* J =  3 */
(PID.TID 0000.0001)                 7.406973659603816E+10,      /* J =  4 */
(PID.TID 0000.0001)                 8.667769319778082E+10,      /* J =  5 */
(PID.TID 0000.0001)                 9.886336479107460E+10,      /* J =  6 */
(PID.TID 0000.0001)                 1.105673840088176E+11,      /* J =  7 */
(PID.TID 0000.0001)                 1.217327300458637E+11,      /* J =  8 */
(PID.TID 0000.0001)                 1.323050064586577E+11,      /* J =  9 */
(PID.TID 0000.0001)                 1.422327061792379E+11,      /* J = 10 */
(PID.TID 0000.0001)                 1.514674624524945E+11,      /* J = 11 */
(PID.TID 0000.0001)                 1.599642844741386E+11,      /* J = 12 */
(PID.TID 0000.0001)                 1.676817765813786E+11,      /* J = 13 */
(PID.TID 0000.0001)                 1.745823399284268E+11,      /* J = 14 */
(PID.TID 0000.0001)                 1.806323556642997E+11,      /* J = 15 */
(PID.TID 0000.0001)                 1.858023487204767E+11,      /* J = 16 */
(PID.TID 0000.0001)                 1.900671314104744E+11,      /* J = 17 */
(PID.TID 0000.0001)                 1.934059261417216E+11,      /* J = 18 */
(PID.TID 0000.0001)                 1.958024666419019E+11,      /* J = 19 */
(PID.TID 0000.0001)                 1.972450772065981E+11,      /* J = 20 */
(PID.TID 0000.0001)                 1.977267295821496E+11,      /* J = 21 */
(PID.TID 0000.0001)                 1.972450772065981E+11,      /* J = 22 */
(PID.TID 0000.0001)                 1.958024666419019E+11,      /* J = 23 */
(PID.TID 0000.0001)                 1.934059261417216E+11,      /* J = 24 */
(PID.TID 0000.0001)                 1.900671314104744E+11,      /* J = 25 */
(PID.TID 0000.0001)                 1.858023487204767E+11,      /* J = 26 */
(PID.TID 0000.0001)                 1.806323556642997E+11,      /* J = 27 */
(PID.TID 0000.0001)                 1.745823399284268E+11,      /* J = 28 */
(PID.TID 0000.0001)                 1.676817765813786E+11,      /* J = 29 */
(PID.TID 0000.0001)                 1.599642844741386E+11,      /* J = 30 */
(PID.TID 0000.0001)                 1.514674624524945E+11,      /* J = 31 */
(PID.TID 0000.0001)                 1.422327061792379E+11,      /* J = 32 */
(PID.TID 0000.0001)                 1.323050064586577E+11,      /* J = 33 */
(PID.TID 0000.0001)                 1.217327300458637E+11,      /* J = 34 */
(PID.TID 0000.0001)                 1.105673840088176E+11,      /* J = 35 */
(PID.TID 0000.0001)                 9.886336479107460E+10,      /* J = 36 */
(PID.TID 0000.0001)                 8.667769319778082E+10,      /* J = 37 */
(PID.TID 0000.0001)                 7.406973659603816E+10,      /* J = 38 */
(PID.TID 0000.0001)                 6.110091968306396E+10,      /* J = 39 */
(PID.TID 0000.0001)                 4.783442523123644E+10       /* J = 40 */
(PID.TID 0000.0001)     ;
(PID.TID 0000.0001) 
(PID.TID 0000.0001)  MDSREADFIELD: opening global file: lev_t.bin
(PID.TID 0000.0001) // =======================================================
(PID.TID 0000.0001) // Field Initial Temperature at iteration          1
(PID.TID 0000.0001) // CMIN =         -8.538625820175458E-01
(PID.TID 0000.0001) // CMAX =          2.012045717433744E+00
(PID.TID 0000.0001) // CINT =          1.061447518315292E-01
(PID.TID 0000.0001) // SYMBOLS (CMIN->CMAX): -abcdefghijklmnopqrstuvwxyz+
(PID.TID 0000.0001) //                  0.0: .
(PID.TID 0000.0001) // RANGE I (Lo:Hi:Step):(   1:  90:   1)
(PID.TID 0000.0001) // RANGE J (Lo:Hi:Step):(  40:   1:  -1)
(PID.TID 0000.0001) // RANGE K (Lo:Hi:Step):(   1:   1:   1)
(PID.TID 0000.0001) // =======================================================
(PID.TID 0000.0001) K =   1
(PID.TID 0000.0001)                I=10      I=20      I=30      I=40      I=50      I=60      I=70      I=80      I=90
(PID.TID 0000.0001) |--J--|123456789|123456789|123456789|123456789|123456789|123456789|123456789|123456789|123456789|
(PID.TID 0000.0001)     40 ..........................................................................................
(PID.TID 0000.0001)     39 ..........................................................................................
(PID.TID 0000.0001)     38 ..........................................................................................
(PID.TID 0000.0001)     37 ..........................................................................................
(PID.TID 0000.0001)     36 ..........................................................................................
(PID.TID 0000.0001)     35 ..........................................................................................
(PID.TID 0000.0001)     34 ..........................................................................................
(PID.TID 0000.0001)     33 .......................................rrr.rrrrrrsss......................................
(PID.TID 0000.0001)     32 ......................................rrrr.rrrrssssss.....................................
(PID.TID 0000.0001)     31 ....................................rrrrrr.rrrrssssss......................yy.............
(PID.TID 0000.0001)     30 ....................................rrrr.rr.rrsssssssssss................yyyy.............
(PID.TID 0000.0001)     29 ...................................rrrr.rrr...rssrsrrssss...............yy.yyy.....++.....
(PID.TID 0000.0001)     28 ...................................rrrrrrrrrrrrrrrrrrr..................yyyxxx.....++.....
(PID.TID 0000.0001)     27 .....................................rrrrrrrr.r...rrr...................yyxxxx..zzzz+.....
(PID.TID 0000.0001)     26 ...............................tss..rrrrrrrrrrr....rrrrrr...............yyyxxx..zzzz......
(PID.TID 0000.0001)     25 ...............................stt..rrr..rq.....qrrrrqqqq.................www...zz........
(PID.TID 0000.0001)     24 ...............................tt...rrrrrqqqqqqqqqqqqqq.........................zzzz......
(PID.TID 0000.0001)     23 ....................................rrrr...qqqqq.qrrqrr.........................yzzz......
(PID.TID 0000.0001)     22 ...........................................qppppp..r.rr...................................
(PID.TID 0000.0001)     21 ...........................................pppppp.......................................yz
(PID.TID 0000.0001)     20 ............................................ppppppp...............................llp...zz
(PID.TID 0000.0001)     19 zz................qqq.......................pppp.pppp.............................lll.....
(PID.TID 0000.0001)     18 zz................qqq....oo.o.....................qpq.............................lll....z
(PID.TID 0000.0001)     17 zz................qqq.ooooooo.....................qp..............................lll....z
(PID.TID 0000.0001)     16 ++.................qq.oooooo...................nno................................llm....+
(PID.TID 0000.0001)     15 +......................noooo..................nnno................................llm....+
(PID.TID 0000.0001)     14 +...........nnn........nn.o...................nnnooo..............................mmm....+
(PID.TID 0000.0001)     13 .oo.........nnn...........oo..................nnnnnnoo....................................
(PID.TID 0000.0001)     12 nmm.......................nn..mmm.............ooooooooo...................................
(PID.TID 0000.0001)     11 oon.ll........ii...........mmmmmmmm...........n.noooooooo....................ggfgg........
(PID.TID 0000.0001)     10 on..l.hi......ii..............lmmmm.............mnnoooooo...................hhgggg........
(PID.TID 0000.0001)      9 .....ggg......................................nmmmmnnnnnn...................hhgggg........
(PID.TID 0000.0001)      8 .....fe......................................mmmmmm............................ff.........
(PID.TID 0000.0001)      7 .......bb...cc.............................llmmmm.................iii.....................
(PID.TID 0000.0001)      6 -aaaaabbbbbbccc............................lllm.............hhi.i.iii....................-
(PID.TID 0000.0001)      5 ---aaaaaaaaabbb...........................................hhhhhhhh.h.................-----
(PID.TID 0000.0001)      4 ..-aaaaa..................................................hhhhhhh....................----a
(PID.TID 0000.0001)      3 ..........................................................................................
(PID.TID 0000.0001)      2 ..........................................................................................
(PID.TID 0000.0001)      1 ..........................................................................................
(PID.TID 0000.0001) // =======================================================
(PID.TID 0000.0001) // END OF FIELD                                          =
(PID.TID 0000.0001) // =======================================================
(PID.TID 0000.0001) 
(PID.TID 0000.0001)  MDSREADFIELD: opening global file: lev_s.bin
(PID.TID 0000.0001) // =======================================================
(PID.TID 0000.0001) // Field Initial Salinity at iteration          1
(PID.TID 0000.0001) // CMIN =          3.464784170881562E+01
(PID.TID 0000.0001) // CMAX =          3.490372370636981E+01
(PID.TID 0000.0001) // CINT =          9.477111020525586E-03
(PID.TID 0000.0001) // SYMBOLS (CMIN->CMAX): -abcdefghijklmnopqrstuvwxyz+
(PID.TID 0000.0001) //                  0.0: .
(PID.TID 0000.0001) // RANGE I (Lo:Hi:Step):(   1:  90:   1)
(PID.TID 0000.0001) // RANGE J (Lo:Hi:Step):(  40:   1:  -1)
(PID.TID 0000.0001) // RANGE K (Lo:Hi:Step):(   1:   1:   1)
(PID.TID 0000.0001) // =======================================================
(PID.TID 0000.0001) K =   1
(PID.TID 0000.0001)                I=10      I=20      I=30      I=40      I=50      I=60      I=70      I=80      I=90
(PID.TID 0000.0001) |--J--|123456789|123456789|123456789|123456789|123456789|123456789|123456789|123456789|123456789|
(PID.TID 0000.0001)     40 ..........................................................................................
(PID.TID 0000.0001)     39 ..........................................................................................
(PID.TID 0000.0001)     38 ..........................................................................................
(PID.TID 0000.0001)     37 ..........................................................................................
(PID.TID 0000.0001)     36 ..........................................................................................
(PID.TID 0000.0001)     35 ..........................................................................................
(PID.TID 0000.0001)     34 ..........................................................................................
(PID.TID 0000.0001)     33 .......................................ddd.ddeeeeddd......................................
(PID.TID 0000.0001)     32 ......................................dddd.dddddddddd.....................................
(PID.TID 0000.0001)     31 ....................................edddde.eeedddddde......................+z.............
(PID.TID 0000.0001)     30 ....................................eefe.ee.eddddddddddee................+++z.............
(PID.TID 0000.0001)     29 ...................................ddee.dee...dddddeddddd...............++.zyy.....yz.....
(PID.TID 0000.0001)     28 ...................................cceebdeeeeeeddddded..................zzzyxx.....zz.....
(PID.TID 0000.0001)     27 .....................................deddeedd.e...dde...................zyyxxx..zzyzz.....
(PID.TID 0000.0001)     26 ...............................ddd..feeeeeeedef....eeeeee...............yzywww..z+zz......
(PID.TID 0000.0001)     25 ...............................ddc..edd..fe.....eeffffeee.................wwv...++........
(PID.TID 0000.0001)     24 ...............................dd...ddeffffeffefeeffeee.........................yyyz......
(PID.TID 0000.0001)     23 ....................................eded...effff.dffeee.........................yyzz......
(PID.TID 0000.0001)     22 ...........................................efffff..e.ee...................................
(PID.TID 0000.0001)     21 ...........................................fffgff.......................................yx
(PID.TID 0000.0001)     20 ............................................fghgffg...............................hin...xx
(PID.TID 0000.0001)     19 xy................ggf.......................fggg.ffff.............................iii.....
(PID.TID 0000.0001)     18 yy................cdd....gh.h.....................fff.............................ihh....y
(PID.TID 0000.0001)     17 yy................ddf.gggghhh.....................ff..............................ijj....y
(PID.TID 0000.0001)     16 yy.................fh.gggggi...................gff................................hii....y
(PID.TID 0000.0001)     15 y......................fgggh..................gggg................................gii....y
(PID.TID 0000.0001)     14 y...........ggg........gg.g...................gggggg..............................ijj....y
(PID.TID 0000.0001)     13 .ii.........ggg...........gg..................gggggfgg....................................
(PID.TID 0000.0001)     12 hhh.......................gg..ggg.............gggggfggg...................................
(PID.TID 0000.0001)     11 ggg.gf........dd...........hggggggg...........f.fggffffgg....................ccbcc........
(PID.TID 0000.0001)     10 gg..f.de......dd..............hgggg.............gfgggfggg...................edcccb........
(PID.TID 0000.0001)      9 .....ccd......................................fffffgggffg...................ccccbb........
(PID.TID 0000.0001)      8 .....cc......................................ffffff............................bb.........
(PID.TID 0000.0001)      7 .......bb...bb.............................efffff.................fff.....................
(PID.TID 0000.0001)      6 ---aaaaaaaabbbb............................efff.............fff.f.fff....................-
(PID.TID 0000.0001)      5 ---aaabaaaaaaaa...........................................ffgfffgf.f.................-----
(PID.TID 0000.0001)      4 ..-aabba..................................................fffffff....................-----
(PID.TID 0000.0001)      3 ..........................................................................................
(PID.TID 0000.0001)      2 ..........................................................................................
(PID.TID 0000.0001)      1 ..........................................................................................
(PID.TID 0000.0001) // =======================================================
(PID.TID 0000.0001) // END OF FIELD                                          =
(PID.TID 0000.0001) // =======================================================
(PID.TID 0000.0001) 
(PID.TID 0000.0001) Start initial hydrostatic pressure computation
(PID.TID 0000.0001) Pressure is predetermined for buoyancyRelation OCEANICP
(PID.TID 0000.0001) 
(PID.TID 0000.0001)  MDSREADFIELD: opening global file: trenberth_taux.bin
(PID.TID 0000.0001)  MDSREADFIELD: opening global file: trenberth_tauy.bin
(PID.TID 0000.0001)  MDSREADFIELD: opening global file: shi_qnet.bin
(PID.TID 0000.0001)  MDSREADFIELD: opening global file: shi_empmr.bin
(PID.TID 0000.0001)  MDSREADFIELD: opening global file: lev_sst.bin
(PID.TID 0000.0001)  MDSREADFIELD: opening global file: deltageopotjmd95.bin
(PID.TID 0000.0001) // =======================================================
(PID.TID 0000.0001) // Model current state
(PID.TID 0000.0001) // =======================================================
(PID.TID 0000.0001) 
(PID.TID 0000.0001) // =======================================================
(PID.TID 0000.0001) // Begin MONITOR dynamic field statistics
(PID.TID 0000.0001) // =======================================================
(PID.TID 0000.0001) %MON time_tsnumber                =                     0
(PID.TID 0000.0001) %MON time_secondsf                =   0.0000000000000E+00
(PID.TID 0000.0001) %MON dynstat_eta_max              =   0.0000000000000E+00
(PID.TID 0000.0001) %MON dynstat_eta_min              =   0.0000000000000E+00
(PID.TID 0000.0001) %MON dynstat_eta_mean             =   0.0000000000000E+00
(PID.TID 0000.0001) %MON dynstat_eta_sd               =   0.0000000000000E+00
(PID.TID 0000.0001) %MON dynstat_eta_del2             =   0.0000000000000E+00
(PID.TID 0000.0001) %MON dynstat_uvel_max             =   0.0000000000000E+00
(PID.TID 0000.0001) %MON dynstat_uvel_min             =   0.0000000000000E+00
(PID.TID 0000.0001) %MON dynstat_uvel_mean            =   0.0000000000000E+00
(PID.TID 0000.0001) %MON dynstat_uvel_sd              =   0.0000000000000E+00
(PID.TID 0000.0001) %MON dynstat_uvel_del2            =   0.0000000000000E+00
(PID.TID 0000.0001) %MON dynstat_vvel_max             =   0.0000000000000E+00
(PID.TID 0000.0001) %MON dynstat_vvel_min             =   0.0000000000000E+00
(PID.TID 0000.0001) %MON dynstat_vvel_mean            =   0.0000000000000E+00
(PID.TID 0000.0001) %MON dynstat_vvel_sd              =   0.0000000000000E+00
(PID.TID 0000.0001) %MON dynstat_vvel_del2            =   0.0000000000000E+00
(PID.TID 0000.0001) %MON dynstat_wvel_max             =   0.0000000000000E+00
(PID.TID 0000.0001) %MON dynstat_wvel_min             =   0.0000000000000E+00
(PID.TID 0000.0001) %MON dynstat_wvel_mean            =   0.0000000000000E+00
(PID.TID 0000.0001) %MON dynstat_wvel_sd              =   0.0000000000000E+00
(PID.TID 0000.0001) %MON dynstat_wvel_del2            =   0.0000000000000E+00
(PID.TID 0000.0001) %MON dynstat_theta_max            =   2.9733511003948E+01
(PID.TID 0000.0001) %MON dynstat_theta_min            =  -2.6263839329562E+00
(PID.TID 0000.0001) %MON dynstat_theta_mean           =   3.6018664655652E+00
(PID.TID 0000.0001) %MON dynstat_theta_sd             =   4.4018845380979E+00
(PID.TID 0000.0001) %MON dynstat_theta_del2           =   1.5429255071065E-01
(PID.TID 0000.0001) %MON dynstat_salt_max             =   3.7475629659304E+01
(PID.TID 0000.0001) %MON dynstat_salt_min             =   2.9752769471420E+01
(PID.TID 0000.0001) %MON dynstat_salt_mean            =   3.4718001015836E+01
(PID.TID 0000.0001) %MON dynstat_salt_sd              =   2.9462524950603E-01
(PID.TID 0000.0001) %MON dynstat_salt_del2            =   2.6846692931047E-02
(PID.TID 0000.0001) %MON advcfl_uvel_max              =   0.0000000000000E+00
(PID.TID 0000.0001) %MON advcfl_vvel_max              =   0.0000000000000E+00
(PID.TID 0000.0001) %MON advcfl_wvel_max              =   0.0000000000000E+00
(PID.TID 0000.0001) %MON advcfl_W_hf_max              =   0.0000000000000E+00
(PID.TID 0000.0001) %MON ke_max                       =   0.0000000000000E+00
(PID.TID 0000.0001) %MON ke_mean                      =   0.0000000000000E+00
(PID.TID 0000.0001) %MON ke_volint                    =   0.0000000000000E+00
(PID.TID 0000.0001) %MON ke_volmean                   =   0.0000000000000E+00
(PID.TID 0000.0001) %MON ke_vol                       =   1.3442141716555E+22
(PID.TID 0000.0001) %MON surfExpan_theta_mean         =   0.0000000000000E+00
(PID.TID 0000.0001) %MON surfExpan_salt_mean          =   0.0000000000000E+00
(PID.TID 0000.0001) // =======================================================
(PID.TID 0000.0001) // End MONITOR dynamic field statistics
(PID.TID 0000.0001) // =======================================================
 S/R EXTERNAL_FIELDS_LOAD: Reading new data  0. 0
(PID.TID 0000.0001)  MDSREADFIELD: opening global file: trenberth_taux.bin
(PID.TID 0000.0001)  MDSREADFIELD: opening global file: trenberth_taux.bin
(PID.TID 0000.0001)  MDSREADFIELD: opening global file: trenberth_tauy.bin
(PID.TID 0000.0001)  MDSREADFIELD: opening global file: trenberth_tauy.bin
(PID.TID 0000.0001)  MDSREADFIELD: opening global file: shi_qnet.bin
(PID.TID 0000.0001)  MDSREADFIELD: opening global file: shi_qnet.bin
(PID.TID 0000.0001)  MDSREADFIELD: opening global file: shi_empmr.bin
(PID.TID 0000.0001)  MDSREADFIELD: opening global file: shi_empmr.bin
(PID.TID 0000.0001)  MDSREADFIELD: opening global file: lev_sst.bin
(PID.TID 0000.0001)  MDSREADFIELD: opening global file: lev_sst.bin
(PID.TID 0000.0001)  MDSREADFIELD: opening global file: deltageopotjmd95.bin
(PID.TID 0000.0001)  MDSREADFIELD: opening global file: deltageopotjmd95.bin
time,SST,SSS,fu,fv,Q,E-P,i0,i1,a,b =   0.0000E+00  1.1337E-01  0.0000E+00 -4.0176E-02 -6.3320E-02  1.7257E+02 -2.0964E-09    12     1  5.3333E-01  4.6667E-01
time,fu0,fu1,fu =   0.0000E+00 -4.5368E-02 -3.5633E-02 -4.0176E-02  5.3333E-01  4.6667E-01
 cg2d: Sum(rhs),rhsMax =   4.85722573273506E-16  1.71163423876591E+02
(PID.TID 0000.0001)                    cg2d_init_res =    9.36692222671517E+00
(PID.TID 0000.0001)                       cg2d_iters =   127
(PID.TID 0000.0001)                         cg2d_res =    9.85632583076093E-10
(PID.TID 0000.0001) // =======================================================
(PID.TID 0000.0001) // Begin MONITOR dynamic field statistics
(PID.TID 0000.0001) // =======================================================
(PID.TID 0000.0001) %MON time_tsnumber                =                     1
(PID.TID 0000.0001) %MON time_secondsf                =   1.7280000000000E+05
(PID.TID 0000.0001) %MON dynstat_eta_max              =   4.1657164209755E+04
(PID.TID 0000.0001) %MON dynstat_eta_min              =  -8.8276374838610E+04
(PID.TID 0000.0001) %MON dynstat_eta_mean             =  -5.3829351646042E-13
(PID.TID 0000.0001) %MON dynstat_eta_sd               =   3.6901405585062E+04
(PID.TID 0000.0001) %MON dynstat_eta_del2             =   2.3562066922401E+04
(PID.TID 0000.0001) %MON dynstat_uvel_max             =   3.5125732101009E-02
(PID.TID 0000.0001) %MON dynstat_uvel_min             =  -3.5357448065279E-02
(PID.TID 0000.0001) %MON dynstat_uvel_mean            =  -8.4137049182537E-04
(PID.TID 0000.0001) %MON dynstat_uvel_sd              =   2.2142813775998E-03
(PID.TID 0000.0001) %MON dynstat_uvel_del2            =   7.7406251852995E-04
(PID.TID 0000.0001) %MON dynstat_vvel_max             =   3.5008028165268E-02
(PID.TID 0000.0001) %MON dynstat_vvel_min             =  -2.4496078954766E-02
(PID.TID 0000.0001) %MON dynstat_vvel_mean            =   1.0871907853477E-03
(PID.TID 0000.0001) %MON dynstat_vvel_sd              =   2.2888132791079E-03
(PID.TID 0000.0001) %MON dynstat_vvel_del2            =   7.6102756433364E-04
(PID.TID 0000.0001) %MON dynstat_wvel_max             =   5.0250185971005E-01
(PID.TID 0000.0001) %MON dynstat_wvel_min             =  -6.2689460746160E-01
(PID.TID 0000.0001) %MON dynstat_wvel_mean            =  -6.6718508624183E-03
(PID.TID 0000.0001) %MON dynstat_wvel_sd              =   1.5353628628842E-01
(PID.TID 0000.0001) %MON dynstat_wvel_del2            =   6.1610670019208E-02
(PID.TID 0000.0001) %MON dynstat_theta_max            =   2.9713265304180E+01
(PID.TID 0000.0001) %MON dynstat_theta_min            =  -2.6183664565810E+00
(PID.TID 0000.0001) %MON dynstat_theta_mean           =   3.6019910573989E+00
(PID.TID 0000.0001) %MON dynstat_theta_sd             =   4.4015315967483E+00
(PID.TID 0000.0001) %MON dynstat_theta_del2           =   1.5479567598383E-01
(PID.TID 0000.0001) %MON dynstat_salt_max             =   3.7478618521905E+01
(PID.TID 0000.0001) %MON dynstat_salt_min             =   2.9762213911218E+01
(PID.TID 0000.0001) %MON dynstat_salt_mean            =   3.4718001015835E+01
(PID.TID 0000.0001) %MON dynstat_salt_sd              =   2.9451022507207E-01
(PID.TID 0000.0001) %MON dynstat_salt_del2            =   2.6959492538962E-02
(PID.TID 0000.0001) %MON advcfl_uvel_max              =   2.1969227685501E-02
(PID.TID 0000.0001) %MON advcfl_vvel_max              =   1.3602996822484E-02
(PID.TID 0000.0001) %MON advcfl_wvel_max              =   4.1333629934324E-02
(PID.TID 0000.0001) %MON advcfl_W_hf_max              =   4.1333629934323E-02
(PID.TID 0000.0001) %MON ke_max                       =   5.7559084782058E-04
(PID.TID 0000.0001) %MON ke_mean                      =   8.3891499749064E-06
(PID.TID 0000.0001) %MON ke_volint                    =   7.2868557859923E+16
(PID.TID 0000.0001) %MON ke_volmean                   =   5.4209038556838E-06
(PID.TID 0000.0001) %MON ke_vol                       =   1.3442141716555E+22
(PID.TID 0000.0001) %MON surfExpan_theta_mean         =   6.7340147196082E-02
(PID.TID 0000.0001) %MON surfExpan_salt_mean          =  -2.2622016046356E-04
(PID.TID 0000.0001) // =======================================================
(PID.TID 0000.0001) // End MONITOR dynamic field statistics
(PID.TID 0000.0001) // =======================================================
time,SST,SSS,fu,fv,Q,E-P,i0,i1,a,b =   1.7280E+05  2.3410E-01  0.0000E+00 -3.9527E-02 -6.2453E-02  1.6404E+02 -2.0964E-09    12     1  6.0000E-01  4.0000E-01
time,fu0,fu1,fu =   1.7280E+05 -4.5368E-02 -3.5633E-02 -3.9527E-02  6.0000E-01  4.0000E-01
 cg2d: Sum(rhs),rhsMax =  -3.70536934468646E-15  1.74491047756582E+02
(PID.TID 0000.0001)                    cg2d_init_res =    2.47708189060635E-01
(PID.TID 0000.0001)                       cg2d_iters =   124
(PID.TID 0000.0001)                         cg2d_res =    8.62255561662985E-10
(PID.TID 0000.0001) // =======================================================
(PID.TID 0000.0001) // Begin MONITOR dynamic field statistics
(PID.TID 0000.0001) // =======================================================
(PID.TID 0000.0001) %MON time_tsnumber                =                     2
(PID.TID 0000.0001) %MON time_secondsf                =   3.4560000000000E+05
(PID.TID 0000.0001) %MON dynstat_eta_max              =   4.8801003735141E+04
(PID.TID 0000.0001) %MON dynstat_eta_min              =  -8.9519124919360E+04
(PID.TID 0000.0001) %MON dynstat_eta_mean             =  -3.4861128455178E-12
(PID.TID 0000.0001) %MON dynstat_eta_sd               =   3.9643961848979E+04
(PID.TID 0000.0001) %MON dynstat_eta_del2             =   2.4287467935543E+04
(PID.TID 0000.0001) %MON dynstat_uvel_max             =   6.3634223877218E-02
(PID.TID 0000.0001) %MON dynstat_uvel_min             =  -4.0770528510974E-02
(PID.TID 0000.0001) %MON dynstat_uvel_mean            =  -1.1816102452453E-03
(PID.TID 0000.0001) %MON dynstat_uvel_sd              =   2.2777926394277E-03
(PID.TID 0000.0001) %MON dynstat_uvel_del2            =   8.3222316111850E-04
(PID.TID 0000.0001) %MON dynstat_vvel_max             =   5.2235073695883E-02
(PID.TID 0000.0001) %MON dynstat_vvel_min             =  -3.0675681873733E-02
(PID.TID 0000.0001) %MON dynstat_vvel_mean            =   1.5483556753585E-03
(PID.TID 0000.0001) %MON dynstat_vvel_sd              =   2.9966041392265E-03
(PID.TID 0000.0001) %MON dynstat_vvel_del2            =   9.0390644492952E-04
(PID.TID 0000.0001) %MON dynstat_wvel_max             =   6.3728869715606E-01
(PID.TID 0000.0001) %MON dynstat_wvel_min             =  -7.8830959100106E-01
(PID.TID 0000.0001) %MON dynstat_wvel_mean            =  -3.3033341537415E-03
(PID.TID 0000.0001) %MON dynstat_wvel_sd              =   8.9420032160308E-02
(PID.TID 0000.0001) %MON dynstat_wvel_del2            =   4.6781541334967E-02
(PID.TID 0000.0001) %MON dynstat_theta_max            =   2.9688317749418E+01
(PID.TID 0000.0001) %MON dynstat_theta_min            =  -2.6127583359464E+00
(PID.TID 0000.0001) %MON dynstat_theta_mean           =   3.6019450086208E+00
(PID.TID 0000.0001) %MON dynstat_theta_sd             =   4.4012662190689E+00
(PID.TID 0000.0001) %MON dynstat_theta_del2           =   1.5406689430972E-01
(PID.TID 0000.0001) %MON dynstat_salt_max             =   3.7481694673612E+01
(PID.TID 0000.0001) %MON dynstat_salt_min             =   2.9765580136599E+01
(PID.TID 0000.0001) %MON dynstat_salt_mean            =   3.4718001573791E+01
(PID.TID 0000.0001) %MON dynstat_salt_sd              =   2.9441685774606E-01
(PID.TID 0000.0001) %MON dynstat_salt_del2            =   2.7040206794653E-02
(PID.TID 0000.0001) %MON advcfl_uvel_max              =   3.3744577677992E-02
(PID.TID 0000.0001) %MON advcfl_vvel_max              =   2.0296874138494E-02
(PID.TID 0000.0001) %MON advcfl_wvel_max              =   5.3361722298850E-02
(PID.TID 0000.0001) %MON advcfl_W_hf_max              =   5.3361722298850E-02
(PID.TID 0000.0001) %MON ke_max                       =   1.7108502013778E-03
(PID.TID 0000.0001) %MON ke_mean                      =   1.5638808405734E-05
(PID.TID 0000.0001) %MON ke_volint                    =   1.0863669416253E+17
(PID.TID 0000.0001) %MON ke_volmean                   =   8.0817994969310E-06
(PID.TID 0000.0001) %MON ke_vol                       =   1.3442141716555E+22
(PID.TID 0000.0001) %MON surfExpan_theta_mean         =   3.6681877483015E-02
(PID.TID 0000.0001) %MON surfExpan_salt_mean          =  -9.6953769904274E-05
(PID.TID 0000.0001) // =======================================================
(PID.TID 0000.0001) // End MONITOR dynamic field statistics
(PID.TID 0000.0001) // =======================================================
time,SST,SSS,fu,fv,Q,E-P,i0,i1,a,b =   3.4560E+05  3.5483E-01  0.0000E+00 -3.8878E-02 -6.1587E-02  1.5550E+02 -2.0964E-09    12     1  6.6667E-01  3.3333E-01
time,fu0,fu1,fu =   3.4560E+05 -4.5368E-02 -3.5633E-02 -3.8878E-02  6.6667E-01  3.3333E-01
 cg2d: Sum(rhs),rhsMax =   4.10782519111308E-15  1.72945928491707E+02
(PID.TID 0000.0001)                    cg2d_init_res =    1.06014918953759E-01
(PID.TID 0000.0001)                       cg2d_iters =   119
(PID.TID 0000.0001)                         cg2d_res =    9.11448126117510E-10
(PID.TID 0000.0001) // =======================================================
(PID.TID 0000.0001) // Begin MONITOR dynamic field statistics
(PID.TID 0000.0001) // =======================================================
(PID.TID 0000.0001) %MON time_tsnumber                =                     3
(PID.TID 0000.0001) %MON time_secondsf                =   5.1840000000000E+05
(PID.TID 0000.0001) %MON dynstat_eta_max              =   5.1297753537342E+04
(PID.TID 0000.0001) %MON dynstat_eta_min              =  -9.1295481703504E+04
(PID.TID 0000.0001) %MON dynstat_eta_mean             =  -4.3818531989898E-12
(PID.TID 0000.0001) %MON dynstat_eta_sd               =   3.9696774469819E+04
(PID.TID 0000.0001) %MON dynstat_eta_del2             =   2.3981509388788E+04
(PID.TID 0000.0001) %MON dynstat_uvel_max             =   7.1974518389875E-02
(PID.TID 0000.0001) %MON dynstat_uvel_min             =  -5.1968821526543E-02
(PID.TID 0000.0001) %MON dynstat_uvel_mean            =  -1.1614093935135E-03
(PID.TID 0000.0001) %MON dynstat_uvel_sd              =   2.7063575003078E-03
(PID.TID 0000.0001) %MON dynstat_uvel_del2            =   1.1074016775803E-03
(PID.TID 0000.0001) %MON dynstat_vvel_max             =   5.4077397686561E-02
(PID.TID 0000.0001) %MON dynstat_vvel_min             =  -4.5486543269544E-02
(PID.TID 0000.0001) %MON dynstat_vvel_mean            =   1.5247168491846E-03
(PID.TID 0000.0001) %MON dynstat_vvel_sd              =   4.1663366895959E-03
(PID.TID 0000.0001) %MON dynstat_vvel_del2            =   1.2424151005476E-03
(PID.TID 0000.0001) %MON dynstat_wvel_max             =   8.8862456180170E-01
(PID.TID 0000.0001) %MON dynstat_wvel_min             =  -1.0818412028982E+00
(PID.TID 0000.0001) %MON dynstat_wvel_mean            =  -1.5498459698130E-03
(PID.TID 0000.0001) %MON dynstat_wvel_sd              =   1.2224221994086E-01
(PID.TID 0000.0001) %MON dynstat_wvel_del2            =   6.2569737643788E-02
(PID.TID 0000.0001) %MON dynstat_theta_max            =   2.9675051403703E+01
(PID.TID 0000.0001) %MON dynstat_theta_min            =  -2.6038579340190E+00
(PID.TID 0000.0001) %MON dynstat_theta_mean           =   3.6021604296617E+00
(PID.TID 0000.0001) %MON dynstat_theta_sd             =   4.4012819003172E+00
(PID.TID 0000.0001) %MON dynstat_theta_del2           =   1.5212462215980E-01
(PID.TID 0000.0001) %MON dynstat_salt_max             =   3.7435160943015E+01
(PID.TID 0000.0001) %MON dynstat_salt_min             =   2.9770563574247E+01
(PID.TID 0000.0001) %MON dynstat_salt_mean            =   3.4718001226692E+01
(PID.TID 0000.0001) %MON dynstat_salt_sd              =   2.9442255048466E-01
(PID.TID 0000.0001) %MON dynstat_salt_del2            =   2.6913038679279E-02
(PID.TID 0000.0001) %MON advcfl_uvel_max              =   4.2013948202508E-02
(PID.TID 0000.0001) %MON advcfl_vvel_max              =   2.1012742146623E-02
(PID.TID 0000.0001) %MON advcfl_wvel_max              =   6.7819188897622E-02
(PID.TID 0000.0001) %MON advcfl_W_hf_max              =   6.7819188897622E-02
(PID.TID 0000.0001) %MON ke_max                       =   2.0313787736570E-03
(PID.TID 0000.0001) %MON ke_mean                      =   2.9077453370354E-05
(PID.TID 0000.0001) %MON ke_volint                    =   1.7139653450239E+17
(PID.TID 0000.0001) %MON ke_volmean                   =   1.2750686469203E-05
(PID.TID 0000.0001) %MON ke_vol                       =   1.3442141716555E+22
(PID.TID 0000.0001) %MON surfExpan_theta_mean         =   1.7624275894807E-02
(PID.TID 0000.0001) %MON surfExpan_salt_mean          =  -2.8926311143504E-04
(PID.TID 0000.0001) // =======================================================
(PID.TID 0000.0001) // End MONITOR dynamic field statistics
(PID.TID 0000.0001) // =======================================================
time,SST,SSS,fu,fv,Q,E-P,i0,i1,a,b =   5.1840E+05  4.7556E-01  0.0000E+00 -3.8229E-02 -6.0721E-02  1.4696E+02 -2.0964E-09    12     1  7.3333E-01  2.6667E-01
time,fu0,fu1,fu =   5.1840E+05 -4.5368E-02 -3.5633E-02 -3.8229E-02  7.3333E-01  2.6667E-01
 cg2d: Sum(rhs),rhsMax =   1.36002320516582E-15  1.72905618460374E+02
(PID.TID 0000.0001)                    cg2d_init_res =    8.88324064676650E-03
(PID.TID 0000.0001)                       cg2d_iters =   116
(PID.TID 0000.0001)                         cg2d_res =    9.82717648822560E-10
(PID.TID 0000.0001) // =======================================================
(PID.TID 0000.0001) // Begin MONITOR dynamic field statistics
(PID.TID 0000.0001) // =======================================================
(PID.TID 0000.0001) %MON time_tsnumber                =                     4
(PID.TID 0000.0001) %MON time_secondsf                =   6.9120000000000E+05
(PID.TID 0000.0001) %MON dynstat_eta_max              =   5.1013831912135E+04
(PID.TID 0000.0001) %MON dynstat_eta_min              =  -9.2901641600026E+04
(PID.TID 0000.0001) %MON dynstat_eta_mean             =   1.6376001528518E-12
(PID.TID 0000.0001) %MON dynstat_eta_sd               =   4.0207170752848E+04
(PID.TID 0000.0001) %MON dynstat_eta_del2             =   2.3955142844789E+04
(PID.TID 0000.0001) %MON dynstat_uvel_max             =   6.1609534630787E-02
(PID.TID 0000.0001) %MON dynstat_uvel_min             =  -7.8157092139567E-02
(PID.TID 0000.0001) %MON dynstat_uvel_mean            =  -8.8769619015410E-04
(PID.TID 0000.0001) %MON dynstat_uvel_sd              =   3.1026057444132E-03
(PID.TID 0000.0001) %MON dynstat_uvel_del2            =   1.3422797070743E-03
(PID.TID 0000.0001) %MON dynstat_vvel_max             =   5.0830165292787E-02
(PID.TID 0000.0001) %MON dynstat_vvel_min             =  -5.9423759512000E-02
(PID.TID 0000.0001) %MON dynstat_vvel_mean            =   1.2053479107903E-03
(PID.TID 0000.0001) %MON dynstat_vvel_sd              =   5.2716610568623E-03
(PID.TID 0000.0001) %MON dynstat_vvel_del2            =   1.5552159998703E-03
(PID.TID 0000.0001) %MON dynstat_wvel_max             =   1.1534444310434E+00
(PID.TID 0000.0001) %MON dynstat_wvel_min             =  -1.3278287837095E+00
(PID.TID 0000.0001) %MON dynstat_wvel_mean            =  -9.7457880064558E-04
(PID.TID 0000.0001) %MON dynstat_wvel_sd              =   1.4928687945736E-01
(PID.TID 0000.0001) %MON dynstat_wvel_del2            =   7.3883508014345E-02
(PID.TID 0000.0001) %MON dynstat_theta_max            =   2.9664831878867E+01
(PID.TID 0000.0001) %MON dynstat_theta_min            =  -2.5955295787681E+00
(PID.TID 0000.0001) %MON dynstat_theta_mean           =   3.6023453974627E+00
(PID.TID 0000.0001) %MON dynstat_theta_sd             =   4.4013280688690E+00
(PID.TID 0000.0001) %MON dynstat_theta_del2           =   1.4997265830089E-01
(PID.TID 0000.0001) %MON dynstat_salt_max             =   3.7435137772559E+01
(PID.TID 0000.0001) %MON dynstat_salt_min             =   2.9775143547659E+01
(PID.TID 0000.0001) %MON dynstat_salt_mean            =   3.4718001734933E+01
(PID.TID 0000.0001) %MON dynstat_salt_sd              =   2.9441625376935E-01
(PID.TID 0000.0001) %MON dynstat_salt_del2            =   2.6758708238450E-02
(PID.TID 0000.0001) %MON advcfl_uvel_max              =   4.9444188944397E-02
(PID.TID 0000.0001) %MON advcfl_vvel_max              =   2.3090166861319E-02
(PID.TID 0000.0001) %MON advcfl_wvel_max              =   8.2187501649813E-02
(PID.TID 0000.0001) %MON advcfl_W_hf_max              =   8.2187501649813E-02
(PID.TID 0000.0001) %MON ke_max                       =   2.4116842724312E-03
(PID.TID 0000.0001) %MON ke_mean                      =   4.6227113815392E-05
(PID.TID 0000.0001) %MON ke_volint                    =   2.3959760956744E+17
(PID.TID 0000.0001) %MON ke_volmean                   =   1.7824362710918E-05
(PID.TID 0000.0001) %MON ke_vol                       =   1.3442141716555E+22
(PID.TID 0000.0001) %MON surfExpan_theta_mean         =   1.0062359543766E-02
(PID.TID 0000.0001) %MON surfExpan_salt_mean          =  -2.3718670121885E-04
(PID.TID 0000.0001) // =======================================================
(PID.TID 0000.0001) // End MONITOR dynamic field statistics
(PID.TID 0000.0001) // =======================================================
time,SST,SSS,fu,fv,Q,E-P,i0,i1,a,b =   6.9120E+05  5.9629E-01  0.0000E+00 -3.7580E-02 -5.9855E-02  1.3842E+02 -2.0964E-09    12     1  8.0000E-01  2.0000E-01
time,fu0,fu1,fu =   6.9120E+05 -4.5368E-02 -3.5633E-02 -3.7580E-02  8.0000E-01  2.0000E-01
 cg2d: Sum(rhs),rhsMax =   1.54043444666740E-15  1.72918685649848E+02
(PID.TID 0000.0001)                    cg2d_init_res =    4.68681082640828E-03
(PID.TID 0000.0001)                       cg2d_iters =   113
(PID.TID 0000.0001)                         cg2d_res =    9.05383581691172E-10
(PID.TID 0000.0001) // =======================================================
(PID.TID 0000.0001) // Begin MONITOR dynamic field statistics
(PID.TID 0000.0001) // =======================================================
(PID.TID 0000.0001) %MON time_tsnumber                =                     5
(PID.TID 0000.0001) %MON time_secondsf                =   8.6400000000000E+05
(PID.TID 0000.0001) %MON dynstat_eta_max              =   5.8773428789869E+04
(PID.TID 0000.0001) %MON dynstat_eta_min              =  -9.4342806416469E+04
(PID.TID 0000.0001) %MON dynstat_eta_mean             =   1.3057538839568E-11
(PID.TID 0000.0001) %MON dynstat_eta_sd               =   4.0653016513109E+04
(PID.TID 0000.0001) %MON dynstat_eta_del2             =   2.3953583514995E+04
(PID.TID 0000.0001) %MON dynstat_uvel_max             =   5.9543736463237E-02
(PID.TID 0000.0001) %MON dynstat_uvel_min             =  -9.1775118908776E-02
(PID.TID 0000.0001) %MON dynstat_uvel_mean            =  -4.7330518032195E-04
(PID.TID 0000.0001) %MON dynstat_uvel_sd              =   3.5781752328054E-03
(PID.TID 0000.0001) %MON dynstat_uvel_del2            =   1.5504532231074E-03
(PID.TID 0000.0001) %MON dynstat_vvel_max             =   6.0695130298945E-02
(PID.TID 0000.0001) %MON dynstat_vvel_min             =  -7.2172497349836E-02
(PID.TID 0000.0001) %MON dynstat_vvel_mean            =   7.4645434757180E-04
(PID.TID 0000.0001) %MON dynstat_vvel_sd              =   6.3128256802505E-03
(PID.TID 0000.0001) %MON dynstat_vvel_del2            =   1.8433814983249E-03
(PID.TID 0000.0001) %MON dynstat_wvel_max             =   1.4020032119611E+00
(PID.TID 0000.0001) %MON dynstat_wvel_min             =  -1.5220719284612E+00
(PID.TID 0000.0001) %MON dynstat_wvel_mean            =  -6.8519359818632E-04
(PID.TID 0000.0001) %MON dynstat_wvel_sd              =   1.7381308376467E-01
(PID.TID 0000.0001) %MON dynstat_wvel_del2            =   8.3626762898421E-02
(PID.TID 0000.0001) %MON dynstat_theta_max            =   2.9661584826092E+01
(PID.TID 0000.0001) %MON dynstat_theta_min            =  -2.5873153223570E+00
(PID.TID 0000.0001) %MON dynstat_theta_mean           =   3.6024982629909E+00
(PID.TID 0000.0001) %MON dynstat_theta_sd             =   4.4013883502429E+00
(PID.TID 0000.0001) %MON dynstat_theta_del2           =   1.4774209040953E-01
(PID.TID 0000.0001) %MON dynstat_salt_max             =   3.7435038902263E+01
(PID.TID 0000.0001) %MON dynstat_salt_min             =   2.9777804453658E+01
(PID.TID 0000.0001) %MON dynstat_salt_mean            =   3.4718001594747E+01
(PID.TID 0000.0001) %MON dynstat_salt_sd              =   2.9441805887817E-01
(PID.TID 0000.0001) %MON dynstat_salt_del2            =   2.6634288478228E-02
(PID.TID 0000.0001) %MON advcfl_uvel_max              =   5.3867626848022E-02
(PID.TID 0000.0001) %MON advcfl_vvel_max              =   2.8043917454756E-02
(PID.TID 0000.0001) %MON advcfl_wvel_max              =   9.5633393236659E-02
(PID.TID 0000.0001) %MON advcfl_W_hf_max              =   9.5633393236659E-02
(PID.TID 0000.0001) %MON ke_max                       =   3.6258455158488E-03
(PID.TID 0000.0001) %MON ke_mean                      =   6.6961228529936E-05
(PID.TID 0000.0001) %MON ke_volint                    =   3.2278159776838E+17
(PID.TID 0000.0001) %MON ke_volmean                   =   2.4012661417699E-05
(PID.TID 0000.0001) %MON ke_vol                       =   1.3442141716555E+22
(PID.TID 0000.0001) %MON surfExpan_theta_mean         =   6.0157020272631E-03
(PID.TID 0000.0001) %MON surfExpan_salt_mean          =  -1.1548440494390E-04
(PID.TID 0000.0001) // =======================================================
(PID.TID 0000.0001) // End MONITOR dynamic field statistics
(PID.TID 0000.0001) // =======================================================
time,SST,SSS,fu,fv,Q,E-P,i0,i1,a,b =   8.6400E+05  7.1702E-01  0.0000E+00 -3.6931E-02 -5.8989E-02  1.2989E+02 -2.0964E-09    12     1  8.6667E-01  1.3333E-01
time,fu0,fu1,fu =   8.6400E+05 -4.5368E-02 -3.5633E-02 -3.6931E-02  8.6667E-01  1.3333E-01
 cg2d: Sum(rhs),rhsMax =  -2.99760216648792E-15  1.72928021404588E+02
(PID.TID 0000.0001)                    cg2d_init_res =    3.45139346217003E-03
(PID.TID 0000.0001)                       cg2d_iters =   110
(PID.TID 0000.0001)                         cg2d_res =    9.77916842215444E-10
(PID.TID 0000.0001) // =======================================================
(PID.TID 0000.0001) // Begin MONITOR dynamic field statistics
(PID.TID 0000.0001) // =======================================================
(PID.TID 0000.0001) %MON time_tsnumber                =                     6
(PID.TID 0000.0001) %MON time_secondsf                =   1.0368000000000E+06
(PID.TID 0000.0001) %MON dynstat_eta_max              =   6.2209409104714E+04
(PID.TID 0000.0001) %MON dynstat_eta_min              =  -9.5072852016943E+04
(PID.TID 0000.0001) %MON dynstat_eta_mean             =  -9.8431796472070E-12
(PID.TID 0000.0001) %MON dynstat_eta_sd               =   4.0801322068860E+04
(PID.TID 0000.0001) %MON dynstat_eta_del2             =   2.3953933516492E+04
(PID.TID 0000.0001) %MON dynstat_uvel_max             =   7.3968233239019E-02
(PID.TID 0000.0001) %MON dynstat_uvel_min             =  -9.0172291385774E-02
(PID.TID 0000.0001) %MON dynstat_uvel_mean            =  -3.8964185537855E-05
(PID.TID 0000.0001) %MON dynstat_uvel_sd              =   4.2141440571438E-03
(PID.TID 0000.0001) %MON dynstat_uvel_del2            =   1.7359279209448E-03
(PID.TID 0000.0001) %MON dynstat_vvel_max             =   6.9116494110819E-02
(PID.TID 0000.0001) %MON dynstat_vvel_min             =  -8.3440815289062E-02
(PID.TID 0000.0001) %MON dynstat_vvel_mean            =   2.7833871245220E-04
(PID.TID 0000.0001) %MON dynstat_vvel_sd              =   7.2913719397344E-03
(PID.TID 0000.0001) %MON dynstat_vvel_del2            =   2.1078935086214E-03
(PID.TID 0000.0001) %MON dynstat_wvel_max             =   1.6176784935398E+00
(PID.TID 0000.0001) %MON dynstat_wvel_min             =  -1.6533396912261E+00
(PID.TID 0000.0001) %MON dynstat_wvel_mean            =  -3.9198024009907E-04
(PID.TID 0000.0001) %MON dynstat_wvel_sd              =   1.9514667911180E-01
(PID.TID 0000.0001) %MON dynstat_wvel_del2            =   9.1433753546215E-02
(PID.TID 0000.0001) %MON dynstat_theta_max            =   2.9706282897748E+01
(PID.TID 0000.0001) %MON dynstat_theta_min            =  -2.5961459502981E+00
(PID.TID 0000.0001) %MON dynstat_theta_mean           =   3.6026389662625E+00
(PID.TID 0000.0001) %MON dynstat_theta_sd             =   4.4014686043614E+00
(PID.TID 0000.0001) %MON dynstat_theta_del2           =   1.4563318568541E-01
(PID.TID 0000.0001) %MON dynstat_salt_max             =   3.7434857875570E+01
(PID.TID 0000.0001) %MON dynstat_salt_min             =   2.9778878944150E+01
(PID.TID 0000.0001) %MON dynstat_salt_mean            =   3.4718001268950E+01
(PID.TID 0000.0001) %MON dynstat_salt_sd              =   2.9441940442649E-01
(PID.TID 0000.0001) %MON dynstat_salt_del2            =   2.6516191993227E-02
(PID.TID 0000.0001) %MON advcfl_uvel_max              =   5.3801157600333E-02
(PID.TID 0000.0001) %MON advcfl_vvel_max              =   3.2422424361755E-02
(PID.TID 0000.0001) %MON advcfl_wvel_max              =   1.0549015570768E-01
(PID.TID 0000.0001) %MON advcfl_W_hf_max              =   1.0549015570768E-01
(PID.TID 0000.0001) %MON ke_max                       =   3.8298313188214E-03
(PID.TID 0000.0001) %MON ke_mean                      =   9.1382784780255E-05
(PID.TID 0000.0001) %MON ke_volint                    =   4.2891429210886E+17
(PID.TID 0000.0001) %MON ke_volmean                   =   3.1908181088480E-05
(PID.TID 0000.0001) %MON ke_vol                       =   1.3442141716555E+22
(PID.TID 0000.0001) %MON surfExpan_theta_mean         =   2.1317183417008E-03
(PID.TID 0000.0001) %MON surfExpan_salt_mean          =  -6.0616715525925E-05
(PID.TID 0000.0001) // =======================================================
(PID.TID 0000.0001) // End MONITOR dynamic field statistics
(PID.TID 0000.0001) // =======================================================
time,SST,SSS,fu,fv,Q,E-P,i0,i1,a,b =   1.0368E+06  8.3775E-01  0.0000E+00 -3.6282E-02 -5.8123E-02  1.2135E+02 -2.0964E-09    12     1  9.3333E-01  6.6667E-02
time,fu0,fu1,fu =   1.0368E+06 -4.5368E-02 -3.5633E-02 -3.6282E-02  9.3333E-01  6.6667E-02
 cg2d: Sum(rhs),rhsMax =  -1.83186799063151E-15  1.72940039371833E+02
(PID.TID 0000.0001)                    cg2d_init_res =    3.58751760755387E-03
(PID.TID 0000.0001)                       cg2d_iters =   110
(PID.TID 0000.0001)                         cg2d_res =    9.59140173544760E-10
(PID.TID 0000.0001) // =======================================================
(PID.TID 0000.0001) // Begin MONITOR dynamic field statistics
(PID.TID 0000.0001) // =======================================================
(PID.TID 0000.0001) %MON time_tsnumber                =                     7
(PID.TID 0000.0001) %MON time_secondsf                =   1.2096000000000E+06
(PID.TID 0000.0001) %MON dynstat_eta_max              =   6.1155547260331E+04
(PID.TID 0000.0001) %MON dynstat_eta_min              =  -9.5059620617664E+04
(PID.TID 0000.0001) %MON dynstat_eta_mean             =   3.0185538592007E-12
(PID.TID 0000.0001) %MON dynstat_eta_sd               =   4.0659437797686E+04
(PID.TID 0000.0001) %MON dynstat_eta_del2             =   2.3955577269917E+04
(PID.TID 0000.0001) %MON dynstat_uvel_max             =   8.8189836937284E-02
(PID.TID 0000.0001) %MON dynstat_uvel_min             =  -7.5475971554070E-02
(PID.TID 0000.0001) %MON dynstat_uvel_mean            =   3.1900301581328E-04
(PID.TID 0000.0001) %MON dynstat_uvel_sd              =   4.9839450387760E-03
(PID.TID 0000.0001) %MON dynstat_uvel_del2            =   1.8998665217042E-03
(PID.TID 0000.0001) %MON dynstat_vvel_max             =   7.6043254878170E-02
(PID.TID 0000.0001) %MON dynstat_vvel_min             =  -9.4863250791883E-02
(PID.TID 0000.0001) %MON dynstat_vvel_mean            =  -9.9610548423111E-05
(PID.TID 0000.0001) %MON dynstat_vvel_sd              =   8.1826612262756E-03
(PID.TID 0000.0001) %MON dynstat_vvel_del2            =   2.3434668458345E-03
(PID.TID 0000.0001) %MON dynstat_wvel_max             =   1.7915102878644E+00
(PID.TID 0000.0001) %MON dynstat_wvel_min             =  -1.7236786130371E+00
(PID.TID 0000.0001) %MON dynstat_wvel_mean            =  -8.5393502443867E-05
(PID.TID 0000.0001) %MON dynstat_wvel_sd              =   2.1276769786451E-01
(PID.TID 0000.0001) %MON dynstat_wvel_del2            =   9.7203108113926E-02
(PID.TID 0000.0001) %MON dynstat_theta_max            =   2.9752525179057E+01
(PID.TID 0000.0001) %MON dynstat_theta_min            =  -2.6766339727776E+00
(PID.TID 0000.0001) %MON dynstat_theta_mean           =   3.6027764357490E+00
(PID.TID 0000.0001) %MON dynstat_theta_sd             =   4.4015744414526E+00
(PID.TID 0000.0001) %MON dynstat_theta_del2           =   1.4394313834685E-01
(PID.TID 0000.0001) %MON dynstat_salt_max             =   3.7434632087701E+01
(PID.TID 0000.0001) %MON dynstat_salt_min             =   2.9778945279621E+01
(PID.TID 0000.0001) %MON dynstat_salt_mean            =   3.4718001120682E+01
(PID.TID 0000.0001) %MON dynstat_salt_sd              =   2.9442001375000E-01
(PID.TID 0000.0001) %MON dynstat_salt_del2            =   2.6437662472670E-02
(PID.TID 0000.0001) %MON advcfl_uvel_max              =   5.8299764599916E-02
(PID.TID 0000.0001) %MON advcfl_vvel_max              =   3.6860816410469E-02
(PID.TID 0000.0001) %MON advcfl_wvel_max              =   1.1178102756209E-01
(PID.TID 0000.0001) %MON advcfl_W_hf_max              =   1.1178102756209E-01
(PID.TID 0000.0001) %MON ke_max                       =   5.0511133534652E-03
(PID.TID 0000.0001) %MON ke_mean                      =   1.1893248767504E-04
(PID.TID 0000.0001) %MON ke_volint                    =   5.5532064540379E+17
(PID.TID 0000.0001) %MON ke_volmean                   =   4.1311917186519E-05
(PID.TID 0000.0001) %MON ke_vol                       =   1.3442141716555E+22
(PID.TID 0000.0001) %MON surfExpan_theta_mean         =  -1.6209611259941E-03
(PID.TID 0000.0001) %MON surfExpan_salt_mean          =  -5.5062160648773E-05
(PID.TID 0000.0001) // =======================================================
(PID.TID 0000.0001) // End MONITOR dynamic field statistics
(PID.TID 0000.0001) // =======================================================
 S/R EXTERNAL_FIELDS_LOAD: Reading new data  1209600. 7
(PID.TID 0000.0001)  MDSREADFIELD: opening global file: trenberth_taux.bin
(PID.TID 0000.0001)  MDSREADFIELD: opening global file: trenberth_taux.bin
(PID.TID 0000.0001)  MDSREADFIELD: opening global file: trenberth_tauy.bin
(PID.TID 0000.0001)  MDSREADFIELD: opening global file: trenberth_tauy.bin
(PID.TID 0000.0001)  MDSREADFIELD: opening global file: shi_qnet.bin
(PID.TID 0000.0001)  MDSREADFIELD: opening global file: shi_qnet.bin
(PID.TID 0000.0001)  MDSREADFIELD: opening global file: shi_empmr.bin
(PID.TID 0000.0001)  MDSREADFIELD: opening global file: shi_empmr.bin
(PID.TID 0000.0001)  MDSREADFIELD: opening global file: lev_sst.bin
(PID.TID 0000.0001)  MDSREADFIELD: opening global file: lev_sst.bin
(PID.TID 0000.0001)  MDSREADFIELD: opening global file: deltageopotjmd95.bin
(PID.TID 0000.0001)  MDSREADFIELD: opening global file: deltageopotjmd95.bin
time,SST,SSS,fu,fv,Q,E-P,i0,i1,a,b =   1.2096E+06  9.5848E-01  0.0000E+00 -3.5633E-02 -5.7257E-02  1.1281E+02 -2.0964E-09     1     2  0.0000E+00  1.0000E+00
time,fu0,fu1,fu =   1.2096E+06 -3.5633E-02 -1.4435E-02 -3.5633E-02  0.0000E+00  1.0000E+00
 cg2d: Sum(rhs),rhsMax =   9.85322934354826E-16  1.72953754988164E+02
(PID.TID 0000.0001)                    cg2d_init_res =    3.93575476310401E-03
(PID.TID 0000.0001)                       cg2d_iters =   109
(PID.TID 0000.0001)                         cg2d_res =    9.43250956927138E-10
(PID.TID 0000.0001) // =======================================================
(PID.TID 0000.0001) // Begin MONITOR dynamic field statistics
(PID.TID 0000.0001) // =======================================================
(PID.TID 0000.0001) %MON time_tsnumber                =                     8
(PID.TID 0000.0001) %MON time_secondsf                =   1.3824000000000E+06
(PID.TID 0000.0001) %MON dynstat_eta_max              =   5.6617514560505E+04
(PID.TID 0000.0001) %MON dynstat_eta_min              =  -9.4430062912502E+04
(PID.TID 0000.0001) %MON dynstat_eta_mean             =   1.0580461714406E-11
(PID.TID 0000.0001) %MON dynstat_eta_sd               =   4.0356617829144E+04
(PID.TID 0000.0001) %MON dynstat_eta_del2             =   2.3957808575859E+04
(PID.TID 0000.0001) %MON dynstat_uvel_max             =   1.0172737089142E-01
(PID.TID 0000.0001) %MON dynstat_uvel_min             =  -6.5374030255689E-02
(PID.TID 0000.0001) %MON dynstat_uvel_mean            =   5.4566233310161E-04
(PID.TID 0000.0001) %MON dynstat_uvel_sd              =   5.8261907463661E-03
(PID.TID 0000.0001) %MON dynstat_uvel_del2            =   2.0399793956201E-03
(PID.TID 0000.0001) %MON dynstat_vvel_max             =   8.1474832907453E-02
(PID.TID 0000.0001) %MON dynstat_vvel_min             =  -1.0475388128952E-01
(PID.TID 0000.0001) %MON dynstat_vvel_mean            =  -3.3374680077538E-04
(PID.TID 0000.0001) %MON dynstat_vvel_sd              =   8.9610190318223E-03
(PID.TID 0000.0001) %MON dynstat_vvel_del2            =   2.5440447862068E-03
(PID.TID 0000.0001) %MON dynstat_wvel_max             =   1.9170802565251E+00
(PID.TID 0000.0001) %MON dynstat_wvel_min             =  -1.7392509116111E+00
(PID.TID 0000.0001) %MON dynstat_wvel_mean            =   1.7826807826872E-04
(PID.TID 0000.0001) %MON dynstat_wvel_sd              =   2.2630218040198E-01
(PID.TID 0000.0001) %MON dynstat_wvel_del2            =   1.0084102218025E-01
(PID.TID 0000.0001) %MON dynstat_theta_max            =   2.9804736284575E+01
(PID.TID 0000.0001) %MON dynstat_theta_min            =  -2.7604594239743E+00
(PID.TID 0000.0001) %MON dynstat_theta_mean           =   3.6029089375575E+00
(PID.TID 0000.0001) %MON dynstat_theta_sd             =   4.4017029756346E+00
(PID.TID 0000.0001) %MON dynstat_theta_del2           =   1.4262763834353E-01
(PID.TID 0000.0001) %MON dynstat_salt_max             =   3.7434376362799E+01
(PID.TID 0000.0001) %MON dynstat_salt_min             =   2.9778314483903E+01
(PID.TID 0000.0001) %MON dynstat_salt_mean            =   3.4718001104348E+01
(PID.TID 0000.0001) %MON dynstat_salt_sd              =   2.9442253807831E-01
(PID.TID 0000.0001) %MON dynstat_salt_del2            =   2.6382091186553E-02
(PID.TID 0000.0001) %MON advcfl_uvel_max              =   6.7249038917668E-02
(PID.TID 0000.0001) %MON advcfl_vvel_max              =   4.0703998168567E-02
(PID.TID 0000.0001) %MON advcfl_wvel_max              =   1.1933299027347E-01
(PID.TID 0000.0001) %MON advcfl_W_hf_max              =   1.1933299027347E-01
(PID.TID 0000.0001) %MON ke_max                       =   6.3510652488828E-03
(PID.TID 0000.0001) %MON ke_mean                      =   1.4863119287698E-04
(PID.TID 0000.0001) %MON ke_volint                    =   6.9295192222686E+17
(PID.TID 0000.0001) %MON ke_volmean                   =   5.1550707977838E-05
(PID.TID 0000.0001) %MON ke_vol                       =   1.3442141716555E+22
(PID.TID 0000.0001) %MON surfExpan_theta_mean         =  -4.3265482057766E-03
(PID.TID 0000.0001) %MON surfExpan_salt_mean          =  -5.6964632871483E-05
(PID.TID 0000.0001) // =======================================================
(PID.TID 0000.0001) // End MONITOR dynamic field statistics
(PID.TID 0000.0001) // =======================================================
time,SST,SSS,fu,fv,Q,E-P,i0,i1,a,b =   1.3824E+06  8.5911E-01  0.0000E+00 -3.4220E-02 -5.4615E-02  1.1534E+02 -2.0964E-09     1     2  6.6667E-02  9.3333E-01
time,fu0,fu1,fu =   1.3824E+06 -3.5633E-02 -1.4435E-02 -3.4220E-02  6.6667E-02  9.3333E-01
 cg2d: Sum(rhs),rhsMax =  -2.44249065417534E-15  1.72967906285951E+02
(PID.TID 0000.0001)                    cg2d_init_res =    3.96270524203854E-03
(PID.TID 0000.0001)                       cg2d_iters =   108
(PID.TID 0000.0001)                         cg2d_res =    9.22523921190811E-10
(PID.TID 0000.0001) // =======================================================
(PID.TID 0000.0001) // Begin MONITOR dynamic field statistics
(PID.TID 0000.0001) // =======================================================
(PID.TID 0000.0001) %MON time_tsnumber                =                     9
(PID.TID 0000.0001) %MON time_secondsf                =   1.5552000000000E+06
(PID.TID 0000.0001) %MON dynstat_eta_max              =   5.2268303999621E+04
(PID.TID 0000.0001) %MON dynstat_eta_min              =  -9.3568483385768E+04
(PID.TID 0000.0001) %MON dynstat_eta_mean             =  -2.4050668181560E-12
(PID.TID 0000.0001) %MON dynstat_eta_sd               =   4.0032063945672E+04
(PID.TID 0000.0001) %MON dynstat_eta_del2             =   2.3959225240649E+04
(PID.TID 0000.0001) %MON dynstat_uvel_max             =   1.1448767282234E-01
(PID.TID 0000.0001) %MON dynstat_uvel_min             =  -6.6937232151143E-02
(PID.TID 0000.0001) %MON dynstat_uvel_mean            =   6.2892029299550E-04
(PID.TID 0000.0001) %MON dynstat_uvel_sd              =   6.7070490592036E-03
(PID.TID 0000.0001) %MON dynstat_uvel_del2            =   2.1577253055248E-03
(PID.TID 0000.0001) %MON dynstat_vvel_max             =   8.4913125305662E-02
(PID.TID 0000.0001) %MON dynstat_vvel_min             =  -1.1294488938058E-01
(PID.TID 0000.0001) %MON dynstat_vvel_mean            =  -4.1852408387596E-04
(PID.TID 0000.0001) %MON dynstat_vvel_sd              =   9.6114317823657E-03
(PID.TID 0000.0001) %MON dynstat_vvel_del2            =   2.7078707500075E-03
(PID.TID 0000.0001) %MON dynstat_wvel_max             =   1.9910166065429E+00
(PID.TID 0000.0001) %MON dynstat_wvel_min             =  -1.7055307321980E+00
(PID.TID 0000.0001) %MON dynstat_wvel_mean            =   3.5988323649368E-04
(PID.TID 0000.0001) %MON dynstat_wvel_sd              =   2.3569587512444E-01
(PID.TID 0000.0001) %MON dynstat_wvel_del2            =   1.0250588535892E-01
(PID.TID 0000.0001) %MON dynstat_theta_max            =   2.9845474780651E+01
(PID.TID 0000.0001) %MON dynstat_theta_min            =  -2.8334015778043E+00
(PID.TID 0000.0001) %MON dynstat_theta_mean           =   3.6030340945551E+00
(PID.TID 0000.0001) %MON dynstat_theta_sd             =   4.4018516081011E+00
(PID.TID 0000.0001) %MON dynstat_theta_del2           =   1.4178839696619E-01
(PID.TID 0000.0001) %MON dynstat_salt_max             =   3.7434103472412E+01
(PID.TID 0000.0001) %MON dynstat_salt_min             =   2.9777172508938E+01
(PID.TID 0000.0001) %MON dynstat_salt_mean            =   3.4718001108532E+01
(PID.TID 0000.0001) %MON dynstat_salt_sd              =   2.9442158836479E-01
(PID.TID 0000.0001) %MON dynstat_salt_del2            =   2.6367947340932E-02
(PID.TID 0000.0001) %MON advcfl_uvel_max              =   7.5684507500350E-02
(PID.TID 0000.0001) %MON advcfl_vvel_max              =   4.3886761176800E-02
(PID.TID 0000.0001) %MON advcfl_wvel_max              =   1.2739493493973E-01
(PID.TID 0000.0001) %MON advcfl_W_hf_max              =   1.2739493493973E-01
(PID.TID 0000.0001) %MON ke_max                       =   7.7151372283005E-03
(PID.TID 0000.0001) %MON ke_mean                      =   1.7964358522505E-04
(PID.TID 0000.0001) %MON ke_volint                    =   8.3392323127285E+17
(PID.TID 0000.0001) %MON ke_volmean                   =   6.2037973476041E-05
(PID.TID 0000.0001) %MON ke_vol                       =   1.3442141716555E+22
(PID.TID 0000.0001) %MON surfExpan_theta_mean         =  -5.4609908898098E-03
(PID.TID 0000.0001) %MON surfExpan_salt_mean          =  -5.4001607707024E-05
(PID.TID 0000.0001) // =======================================================
(PID.TID 0000.0001) // End MONITOR dynamic field statistics
(PID.TID 0000.0001) // =======================================================
time,SST,SSS,fu,fv,Q,E-P,i0,i1,a,b =   1.5552E+06  7.5973E-01  0.0000E+00 -3.2807E-02 -5.1974E-02  1.1787E+02 -2.0964E-09     1     2  1.3333E-01  8.6667E-01
time,fu0,fu1,fu =   1.5552E+06 -3.5633E-02 -1.4435E-02 -3.2807E-02  1.3333E-01  8.6667E-01
 cg2d: Sum(rhs),rhsMax =   4.57966997657877E-16  1.72980800670832E+02
(PID.TID 0000.0001)                    cg2d_init_res =    3.62696444626559E-03
(PID.TID 0000.0001)                       cg2d_iters =   108
(PID.TID 0000.0001)                         cg2d_res =    8.89973309827352E-10
(PID.TID 0000.0001) // =======================================================
(PID.TID 0000.0001) // Begin MONITOR dynamic field statistics
(PID.TID 0000.0001) // =======================================================
(PID.TID 0000.0001) %MON time_tsnumber                =                    10
(PID.TID 0000.0001) %MON time_secondsf                =   1.7280000000000E+06
(PID.TID 0000.0001) %MON dynstat_eta_max              =   5.1372738270148E+04
(PID.TID 0000.0001) %MON dynstat_eta_min              =  -9.2841923912955E+04
(PID.TID 0000.0001) %MON dynstat_eta_mean             =  -1.9129608179352E-12
(PID.TID 0000.0001) %MON dynstat_eta_sd               =   3.9769766035530E+04
(PID.TID 0000.0001) %MON dynstat_eta_del2             =   2.3960643170376E+04
(PID.TID 0000.0001) %MON dynstat_uvel_max             =   1.2630603090963E-01
(PID.TID 0000.0001) %MON dynstat_uvel_min             =  -6.6697547810030E-02
(PID.TID 0000.0001) %MON dynstat_uvel_mean            =   5.9161923701532E-04
(PID.TID 0000.0001) %MON dynstat_uvel_sd              =   7.6230662901598E-03
(PID.TID 0000.0001) %MON dynstat_uvel_del2            =   2.2639205742643E-03
(PID.TID 0000.0001) %MON dynstat_vvel_max             =   8.6873279220090E-02
(PID.TID 0000.0001) %MON dynstat_vvel_min             =  -1.1933262089980E-01
(PID.TID 0000.0001) %MON dynstat_vvel_mean            =  -3.8445031053194E-04
(PID.TID 0000.0001) %MON dynstat_vvel_sd              =   1.0130009593579E-02
(PID.TID 0000.0001) %MON dynstat_vvel_del2            =   2.8365043599830E-03
(PID.TID 0000.0001) %MON dynstat_wvel_max             =   2.0207514291901E+00
(PID.TID 0000.0001) %MON dynstat_wvel_min             =  -1.6345195482924E+00
(PID.TID 0000.0001) %MON dynstat_wvel_mean            =   4.4775869788065E-04
(PID.TID 0000.0001) %MON dynstat_wvel_sd              =   2.4123949917309E-01
(PID.TID 0000.0001) %MON dynstat_wvel_del2            =   1.0254506387799E-01
(PID.TID 0000.0001) %MON dynstat_theta_max            =   2.9880790568036E+01
(PID.TID 0000.0001) %MON dynstat_theta_min            =  -2.9013489060239E+00
(PID.TID 0000.0001) %MON dynstat_theta_mean           =   3.6031509461308E+00
(PID.TID 0000.0001) %MON dynstat_theta_sd             =   4.4020171607628E+00
(PID.TID 0000.0001) %MON dynstat_theta_del2           =   1.4123755502911E-01
(PID.TID 0000.0001) %MON dynstat_salt_max             =   3.7433823896847E+01
(PID.TID 0000.0001) %MON dynstat_salt_min             =   2.9775824839502E+01
(PID.TID 0000.0001) %MON dynstat_salt_mean            =   3.4718001099163E+01
(PID.TID 0000.0001) %MON dynstat_salt_sd              =   2.9442386318405E-01
(PID.TID 0000.0001) %MON dynstat_salt_del2            =   2.6379631475791E-02
(PID.TID 0000.0001) %MON advcfl_uvel_max              =   8.3497284101088E-02
(PID.TID 0000.0001) %MON advcfl_vvel_max              =   4.6368828751375E-02
(PID.TID 0000.0001) %MON advcfl_wvel_max              =   1.3317599447903E-01
(PID.TID 0000.0001) %MON advcfl_W_hf_max              =   1.3317599447903E-01
(PID.TID 0000.0001) %MON ke_max                       =   9.1174084205954E-03
(PID.TID 0000.0001) %MON ke_mean                      =   2.1146554042649E-04
(PID.TID 0000.0001) %MON ke_volint                    =   9.7507560367018E+17
(PID.TID 0000.0001) %MON ke_volmean                   =   7.2538708803321E-05
(PID.TID 0000.0001) %MON ke_vol                       =   1.3442141716555E+22
(PID.TID 0000.0001) %MON surfExpan_theta_mean         =  -5.1197733319773E-03
(PID.TID 0000.0001) %MON surfExpan_salt_mean          =  -5.2476317173212E-05
(PID.TID 0000.0001) // =======================================================
(PID.TID 0000.0001) // End MONITOR dynamic field statistics
(PID.TID 0000.0001) // =======================================================
time,SST,SSS,fu,fv,Q,E-P,i0,i1,a,b =   1.7280E+06  6.6036E-01  0.0000E+00 -3.1393E-02 -4.9332E-02  1.2039E+02 -2.0964E-09     1     2  2.0000E-01  8.0000E-01
time,fu0,fu1,fu =   1.7280E+06 -3.5633E-02 -1.4435E-02 -3.1393E-02  2.0000E-01  8.0000E-01
 cg2d: Sum(rhs),rhsMax =  -5.55111512312578E-17  1.72990806708753E+02
(PID.TID 0000.0001)                    cg2d_init_res =    3.12693632788841E-03
(PID.TID 0000.0001)                       cg2d_iters =   107
(PID.TID 0000.0001)                         cg2d_res =    9.45716057922498E-10
(PID.TID 0000.0001) // =======================================================
(PID.TID 0000.0001) // Begin MONITOR dynamic field statistics
(PID.TID 0000.0001) // =======================================================
(PID.TID 0000.0001) %MON time_tsnumber                =                    11
(PID.TID 0000.0001) %MON time_secondsf                =   1.9008000000000E+06
(PID.TID 0000.0001) %MON dynstat_eta_max              =   4.7513739742567E+04
(PID.TID 0000.0001) %MON dynstat_eta_min              =  -9.2588065195694E+04
(PID.TID 0000.0001) %MON dynstat_eta_mean             =   7.2706978464387E-13
(PID.TID 0000.0001) %MON dynstat_eta_sd               =   3.9595096950560E+04
(PID.TID 0000.0001) %MON dynstat_eta_del2             =   2.3961818294959E+04
(PID.TID 0000.0001) %MON dynstat_uvel_max             =   1.3711742234097E-01
(PID.TID 0000.0001) %MON dynstat_uvel_min             =  -6.4754327074638E-02
(PID.TID 0000.0001) %MON dynstat_uvel_mean            =   4.7896958640806E-04
(PID.TID 0000.0001) %MON dynstat_uvel_sd              =   8.5766912754299E-03
(PID.TID 0000.0001) %MON dynstat_uvel_del2            =   2.3669394312904E-03
(PID.TID 0000.0001) %MON dynstat_vvel_max             =   8.9472864378127E-02
(PID.TID 0000.0001) %MON dynstat_vvel_min             =  -1.2387115870735E-01
(PID.TID 0000.0001) %MON dynstat_vvel_mean            =  -2.8045047259910E-04
(PID.TID 0000.0001) %MON dynstat_vvel_sd              =   1.0519087505310E-02
(PID.TID 0000.0001) %MON dynstat_vvel_del2            =   2.9318056326170E-03
(PID.TID 0000.0001) %MON dynstat_wvel_max             =   2.1374447216932E+00
(PID.TID 0000.0001) %MON dynstat_wvel_min             =  -1.5548489680877E+00
(PID.TID 0000.0001) %MON dynstat_wvel_mean            =   4.5215439501770E-04
(PID.TID 0000.0001) %MON dynstat_wvel_sd              =   2.4343836618314E-01
(PID.TID 0000.0001) %MON dynstat_wvel_del2            =   1.0143198538885E-01
(PID.TID 0000.0001) %MON dynstat_theta_max            =   2.9910876643038E+01
(PID.TID 0000.0001) %MON dynstat_theta_min            =  -2.9643081178282E+00
(PID.TID 0000.0001) %MON dynstat_theta_mean           =   3.6032596462686E+00
(PID.TID 0000.0001) %MON dynstat_theta_sd             =   4.4021927271561E+00
(PID.TID 0000.0001) %MON dynstat_theta_del2           =   1.4115161655775E-01
(PID.TID 0000.0001) %MON dynstat_salt_max             =   3.7433555552766E+01
(PID.TID 0000.0001) %MON dynstat_salt_min             =   2.9774406627112E+01
(PID.TID 0000.0001) %MON dynstat_salt_mean            =   3.4718001095458E+01
(PID.TID 0000.0001) %MON dynstat_salt_sd              =   2.9442147470366E-01
(PID.TID 0000.0001) %MON dynstat_salt_del2            =   2.6410165917740E-02
(PID.TID 0000.0001) %MON advcfl_uvel_max              =   9.0644384008906E-02
(PID.TID 0000.0001) %MON advcfl_vvel_max              =   4.8132358964598E-02
(PID.TID 0000.0001) %MON advcfl_wvel_max              =   1.3649302428391E-01
(PID.TID 0000.0001) %MON advcfl_W_hf_max              =   1.3649302428391E-01
(PID.TID 0000.0001) %MON ke_max                       =   1.0551185535214E-02
(PID.TID 0000.0001) %MON ke_mean                      =   2.4376904307475E-04
(PID.TID 0000.0001) %MON ke_volint                    =   1.1163772242781E+18
(PID.TID 0000.0001) %MON ke_volmean                   =   8.3050547138864E-05
(PID.TID 0000.0001) %MON ke_vol                       =   1.3442141716555E+22
(PID.TID 0000.0001) %MON surfExpan_theta_mean         =  -3.7970450608803E-03
(PID.TID 0000.0001) %MON surfExpan_salt_mean          =  -5.6064629273971E-05
(PID.TID 0000.0001) // =======================================================
(PID.TID 0000.0001) // End MONITOR dynamic field statistics
(PID.TID 0000.0001) // =======================================================
time,SST,SSS,fu,fv,Q,E-P,i0,i1,a,b =   1.9008E+06  5.6099E-01  0.0000E+00 -2.9980E-02 -4.6691E-02  1.2292E+02 -2.0964E-09     1     2  2.6667E-01  7.3333E-01
time,fu0,fu1,fu =   1.9008E+06 -3.5633E-02 -1.4435E-02 -2.9980E-02  2.6667E-01  7.3333E-01
 cg2d: Sum(rhs),rhsMax =   4.99600361081320E-16  1.72997154602967E+02
(PID.TID 0000.0001)                    cg2d_init_res =    2.73182880267201E-03
(PID.TID 0000.0001)                       cg2d_iters =   102
(PID.TID 0000.0001)                         cg2d_res =    9.22511789322051E-10
(PID.TID 0000.0001) // =======================================================
(PID.TID 0000.0001) // Begin MONITOR dynamic field statistics
(PID.TID 0000.0001) // =======================================================
(PID.TID 0000.0001) %MON time_tsnumber                =                    12
(PID.TID 0000.0001) %MON time_secondsf                =   2.0736000000000E+06
(PID.TID 0000.0001) %MON dynstat_eta_max              =   4.2957375098719E+04
(PID.TID 0000.0001) %MON dynstat_eta_min              =  -9.2540142545846E+04
(PID.TID 0000.0001) %MON dynstat_eta_mean             =  -9.8703523866925E-12
(PID.TID 0000.0001) %MON dynstat_eta_sd               =   3.9503389597975E+04
(PID.TID 0000.0001) %MON dynstat_eta_del2             =   2.3962703336964E+04
(PID.TID 0000.0001) %MON dynstat_uvel_max             =   1.4843376993322E-01
(PID.TID 0000.0001) %MON dynstat_uvel_min             =  -6.9027728545822E-02
(PID.TID 0000.0001) %MON dynstat_uvel_mean            =   3.4368353447719E-04
(PID.TID 0000.0001) %MON dynstat_uvel_sd              =   9.5587069146922E-03
(PID.TID 0000.0001) %MON dynstat_uvel_del2            =   2.4639827050121E-03
(PID.TID 0000.0001) %MON dynstat_vvel_max             =   9.0793661507963E-02
(PID.TID 0000.0001) %MON dynstat_vvel_min             =  -1.2719203333514E-01
(PID.TID 0000.0001) %MON dynstat_vvel_mean            =  -1.5660025960828E-04
(PID.TID 0000.0001) %MON dynstat_vvel_sd              =   1.0783416681630E-02
(PID.TID 0000.0001) %MON dynstat_vvel_del2            =   2.9991184102478E-03
(PID.TID 0000.0001) %MON dynstat_wvel_max             =   2.2828403636792E+00
(PID.TID 0000.0001) %MON dynstat_wvel_min             =  -1.4727510155145E+00
(PID.TID 0000.0001) %MON dynstat_wvel_mean            =   3.9594038373721E-04
(PID.TID 0000.0001) %MON dynstat_wvel_sd              =   2.4285440822531E-01
(PID.TID 0000.0001) %MON dynstat_wvel_del2            =   9.9697378119632E-02
(PID.TID 0000.0001) %MON dynstat_theta_max            =   2.9935979696709E+01
(PID.TID 0000.0001) %MON dynstat_theta_min            =  -3.0223750554591E+00
(PID.TID 0000.0001) %MON dynstat_theta_mean           =   3.6033618821423E+00
(PID.TID 0000.0001) %MON dynstat_theta_sd             =   4.4023807984278E+00
(PID.TID 0000.0001) %MON dynstat_theta_del2           =   1.4124664194300E-01
(PID.TID 0000.0001) %MON dynstat_salt_max             =   3.7433320138559E+01
(PID.TID 0000.0001) %MON dynstat_salt_min             =   2.9773042501368E+01
(PID.TID 0000.0001) %MON dynstat_salt_mean            =   3.4718001105605E+01
(PID.TID 0000.0001) %MON dynstat_salt_sd              =   2.9441709983099E-01
(PID.TID 0000.0001) %MON dynstat_salt_del2            =   2.6441632429637E-02
(PID.TID 0000.0001) %MON advcfl_uvel_max              =   9.7107977321162E-02
(PID.TID 0000.0001) %MON advcfl_vvel_max              =   4.9422744324107E-02
(PID.TID 0000.0001) %MON advcfl_wvel_max              =   1.3719975125297E-01
(PID.TID 0000.0001) %MON advcfl_W_hf_max              =   1.3719975125297E-01
(PID.TID 0000.0001) %MON ke_max                       =   1.1974233283098E-02
(PID.TID 0000.0001) %MON ke_mean                      =   2.7616429015282E-04
(PID.TID 0000.0001) %MON ke_volint                    =   1.2577156627086E+18
(PID.TID 0000.0001) %MON ke_volmean                   =   9.3565124459264E-05
(PID.TID 0000.0001) %MON ke_vol                       =   1.3442141716555E+22
(PID.TID 0000.0001) %MON surfExpan_theta_mean         =  -2.1023864793643E-03
(PID.TID 0000.0001) %MON surfExpan_salt_mean          =  -6.1239417019933E-05
(PID.TID 0000.0001) // =======================================================
(PID.TID 0000.0001) // End MONITOR dynamic field statistics
(PID.TID 0000.0001) // =======================================================
time,SST,SSS,fu,fv,Q,E-P,i0,i1,a,b =   2.0736E+06  4.6162E-01  0.0000E+00 -2.8567E-02 -4.4050E-02  1.2545E+02 -2.0964E-09     1     2  3.3333E-01  6.6667E-01
time,fu0,fu1,fu =   2.0736E+06 -3.5633E-02 -1.4435E-02 -2.8567E-02  3.3333E-01  6.6667E-01
 cg2d: Sum(rhs),rhsMax =   4.57966997657877E-16  1.73000010639348E+02
(PID.TID 0000.0001)                    cg2d_init_res =    2.58836924430126E-03
(PID.TID 0000.0001)                       cg2d_iters =   101
(PID.TID 0000.0001)                         cg2d_res =    9.37838831452412E-10
(PID.TID 0000.0001) // =======================================================
(PID.TID 0000.0001) // Begin MONITOR dynamic field statistics
(PID.TID 0000.0001) // =======================================================
(PID.TID 0000.0001) %MON time_tsnumber                =                    13
(PID.TID 0000.0001) %MON time_secondsf                =   2.2464000000000E+06
(PID.TID 0000.0001) %MON dynstat_eta_max              =   4.2948340427474E+04
(PID.TID 0000.0001) %MON dynstat_eta_min              =  -9.2455782052776E+04
(PID.TID 0000.0001) %MON dynstat_eta_mean             =   3.4012202783365E-12
(PID.TID 0000.0001) %MON dynstat_eta_sd               =   3.9482745959353E+04
(PID.TID 0000.0001) %MON dynstat_eta_del2             =   2.3963388006447E+04
(PID.TID 0000.0001) %MON dynstat_uvel_max             =   1.5902780883572E-01
(PID.TID 0000.0001) %MON dynstat_uvel_min             =  -7.3961501052827E-02
(PID.TID 0000.0001) %MON dynstat_uvel_mean            =   2.3222278222475E-04
(PID.TID 0000.0001) %MON dynstat_uvel_sd              =   1.0547398758352E-02
(PID.TID 0000.0001) %MON dynstat_uvel_del2            =   2.5592693827832E-03
(PID.TID 0000.0001) %MON dynstat_vvel_max             =   9.1003856215282E-02
(PID.TID 0000.0001) %MON dynstat_vvel_min             =  -1.3058526260480E-01
(PID.TID 0000.0001) %MON dynstat_vvel_mean            =  -5.1752341722625E-05
(PID.TID 0000.0001) %MON dynstat_vvel_sd              =   1.0929001104789E-02
(PID.TID 0000.0001) %MON dynstat_vvel_del2            =   3.0421866865247E-03
(PID.TID 0000.0001) %MON dynstat_wvel_max             =   2.4171444748807E+00
(PID.TID 0000.0001) %MON dynstat_wvel_min             =  -1.4411326862429E+00
(PID.TID 0000.0001) %MON dynstat_wvel_mean            =   3.0735617907769E-04
(PID.TID 0000.0001) %MON dynstat_wvel_sd              =   2.4000459787846E-01
(PID.TID 0000.0001) %MON dynstat_wvel_del2            =   9.7676201862600E-02
(PID.TID 0000.0001) %MON dynstat_theta_max            =   2.9956271897394E+01
(PID.TID 0000.0001) %MON dynstat_theta_min            =  -3.0756285164781E+00
(PID.TID 0000.0001) %MON dynstat_theta_mean           =   3.6034590870228E+00
(PID.TID 0000.0001) %MON dynstat_theta_sd             =   4.4025855155067E+00
(PID.TID 0000.0001) %MON dynstat_theta_del2           =   1.4163298955303E-01
(PID.TID 0000.0001) %MON dynstat_salt_max             =   3.7433142404383E+01
(PID.TID 0000.0001) %MON dynstat_salt_min             =   2.9771788619522E+01
(PID.TID 0000.0001) %MON dynstat_salt_mean            =   3.4718001120255E+01
(PID.TID 0000.0001) %MON dynstat_salt_sd              =   2.9441789102481E-01
(PID.TID 0000.0001) %MON dynstat_salt_del2            =   2.6500694611497E-02
(PID.TID 0000.0001) %MON advcfl_uvel_max              =   1.0286601788543E-01
(PID.TID 0000.0001) %MON advcfl_vvel_max              =   5.0741244376589E-02
(PID.TID 0000.0001) %MON advcfl_wvel_max              =   1.3519869381833E-01
(PID.TID 0000.0001) %MON advcfl_W_hf_max              =   1.3519869381833E-01
(PID.TID 0000.0001) %MON ke_max                       =   1.3355692198275E-02
(PID.TID 0000.0001) %MON ke_mean                      =   3.0814189000536E-04
(PID.TID 0000.0001) %MON ke_volint                    =   1.3972497356966E+18
(PID.TID 0000.0001) %MON ke_volmean                   =   1.0394546978892E-04
(PID.TID 0000.0001) %MON ke_vol                       =   1.3442141716555E+22
(PID.TID 0000.0001) %MON surfExpan_theta_mean         =  -5.6026012905206E-04
(PID.TID 0000.0001) %MON surfExpan_salt_mean          =  -6.0358529983948E-05
(PID.TID 0000.0001) // =======================================================
(PID.TID 0000.0001) // End MONITOR dynamic field statistics
(PID.TID 0000.0001) // =======================================================
time,SST,SSS,fu,fv,Q,E-P,i0,i1,a,b =   2.2464E+06  3.6224E-01  0.0000E+00 -2.7154E-02 -4.1408E-02  1.2798E+02 -2.0964E-09     1     2  4.0000E-01  6.0000E-01
time,fu0,fu1,fu =   2.2464E+06 -3.5633E-02 -1.4435E-02 -2.7154E-02  4.0000E-01  6.0000E-01
 cg2d: Sum(rhs),rhsMax =   2.40085729075190E-15  1.73000150464279E+02
(PID.TID 0000.0001)                    cg2d_init_res =    2.58971233250078E-03
(PID.TID 0000.0001)                       cg2d_iters =   107
(PID.TID 0000.0001)                         cg2d_res =    8.03638554025122E-10
(PID.TID 0000.0001) // =======================================================
(PID.TID 0000.0001) // Begin MONITOR dynamic field statistics
(PID.TID 0000.0001) // =======================================================
(PID.TID 0000.0001) %MON time_tsnumber                =                    14
(PID.TID 0000.0001) %MON time_secondsf                =   2.4192000000000E+06
(PID.TID 0000.0001) %MON dynstat_eta_max              =   4.3130163473269E+04
(PID.TID 0000.0001) %MON dynstat_eta_min              =  -9.2543606349913E+04
(PID.TID 0000.0001) %MON dynstat_eta_mean             =  -7.1091737203352E-12
(PID.TID 0000.0001) %MON dynstat_eta_sd               =   3.9518068126685E+04
(PID.TID 0000.0001) %MON dynstat_eta_del2             =   2.3964255773920E+04
(PID.TID 0000.0001) %MON dynstat_uvel_max             =   1.6830304585767E-01
(PID.TID 0000.0001) %MON dynstat_uvel_min             =  -7.9853832849674E-02
(PID.TID 0000.0001) %MON dynstat_uvel_mean            =   1.7504257780225E-04
(PID.TID 0000.0001) %MON dynstat_uvel_sd              =   1.1517398651165E-02
(PID.TID 0000.0001) %MON dynstat_uvel_del2            =   2.6532815428408E-03
(PID.TID 0000.0001) %MON dynstat_vvel_max             =   9.0201401373304E-02
(PID.TID 0000.0001) %MON dynstat_vvel_min             =  -1.3247689008562E-01
(PID.TID 0000.0001) %MON dynstat_vvel_mean            =   1.2558115479380E-05
(PID.TID 0000.0001) %MON dynstat_vvel_sd              =   1.0964164707583E-02
(PID.TID 0000.0001) %MON dynstat_vvel_del2            =   3.0637084892373E-03
(PID.TID 0000.0001) %MON dynstat_wvel_max             =   2.5417069616213E+00
(PID.TID 0000.0001) %MON dynstat_wvel_min             =  -1.5100963572569E+00
(PID.TID 0000.0001) %MON dynstat_wvel_mean            =   2.1249082014642E-04
(PID.TID 0000.0001) %MON dynstat_wvel_sd              =   2.3537484454503E-01
(PID.TID 0000.0001) %MON dynstat_wvel_del2            =   9.5583509220522E-02
(PID.TID 0000.0001) %MON dynstat_theta_max            =   2.9971857892291E+01
(PID.TID 0000.0001) %MON dynstat_theta_min            =  -3.1241396002031E+00
(PID.TID 0000.0001) %MON dynstat_theta_mean           =   3.6035544691786E+00
(PID.TID 0000.0001) %MON dynstat_theta_sd             =   4.4027941440261E+00
(PID.TID 0000.0001) %MON dynstat_theta_del2           =   1.4211884526721E-01
(PID.TID 0000.0001) %MON dynstat_salt_max             =   3.7433047498344E+01
(PID.TID 0000.0001) %MON dynstat_salt_min             =   2.9770641036644E+01
(PID.TID 0000.0001) %MON dynstat_salt_mean            =   3.4718001118987E+01
(PID.TID 0000.0001) %MON dynstat_salt_sd              =   2.9440980335523E-01
(PID.TID 0000.0001) %MON dynstat_salt_del2            =   2.6562663679539E-02
(PID.TID 0000.0001) %MON advcfl_uvel_max              =   1.0788275266271E-01
(PID.TID 0000.0001) %MON advcfl_vvel_max              =   5.1476270139519E-02
(PID.TID 0000.0001) %MON advcfl_wvel_max              =   1.3045314080625E-01
(PID.TID 0000.0001) %MON advcfl_W_hf_max              =   1.3045314080625E-01
(PID.TID 0000.0001) %MON ke_max                       =   1.4667009164977E-02
(PID.TID 0000.0001) %MON ke_mean                      =   3.3918445080052E-04
(PID.TID 0000.0001) %MON ke_volint                    =   1.5320176961382E+18
(PID.TID 0000.0001) %MON ke_volmean                   =   1.1397125015067E-04
(PID.TID 0000.0001) %MON ke_vol                       =   1.3442141716555E+22
(PID.TID 0000.0001) %MON surfExpan_theta_mean         =   4.9385547831066E-04
(PID.TID 0000.0001) %MON surfExpan_salt_mean          =  -4.7717268855097E-05
(PID.TID 0000.0001) // =======================================================
(PID.TID 0000.0001) // End MONITOR dynamic field statistics
(PID.TID 0000.0001) // =======================================================
time,SST,SSS,fu,fv,Q,E-P,i0,i1,a,b =   2.4192E+06  2.6287E-01  0.0000E+00 -2.5740E-02 -3.8767E-02  1.3050E+02 -2.0964E-09     1     2  4.6667E-01  5.3333E-01
time,fu0,fu1,fu =   2.4192E+06 -3.5633E-02 -1.4435E-02 -2.5740E-02  4.6667E-01  5.3333E-01
 cg2d: Sum(rhs),rhsMax =  -1.09634523681734E-15  1.72998547201246E+02
(PID.TID 0000.0001)                    cg2d_init_res =    2.55874272914647E-03
(PID.TID 0000.0001)                       cg2d_iters =   106
(PID.TID 0000.0001)                         cg2d_res =    9.62029372193172E-10
(PID.TID 0000.0001) // =======================================================
(PID.TID 0000.0001) // Begin MONITOR dynamic field statistics
(PID.TID 0000.0001) // =======================================================
(PID.TID 0000.0001) %MON time_tsnumber                =                    15
(PID.TID 0000.0001) %MON time_secondsf                =   2.5920000000000E+06
(PID.TID 0000.0001) %MON dynstat_eta_max              =   4.4272746396115E+04
(PID.TID 0000.0001) %MON dynstat_eta_min              =  -9.2733331644548E+04
(PID.TID 0000.0001) %MON dynstat_eta_mean             =  -1.0621644251830E-12
(PID.TID 0000.0001) %MON dynstat_eta_sd               =   3.9586691500920E+04
(PID.TID 0000.0001) %MON dynstat_eta_del2             =   2.3965700270035E+04
(PID.TID 0000.0001) %MON dynstat_uvel_max             =   1.7615302498564E-01
(PID.TID 0000.0001) %MON dynstat_uvel_min             =  -8.4389753396979E-02
(PID.TID 0000.0001) %MON dynstat_uvel_mean            =   1.8262574504495E-04
(PID.TID 0000.0001) %MON dynstat_uvel_sd              =   1.2447549758087E-02
(PID.TID 0000.0001) %MON dynstat_uvel_del2            =   2.7472293307956E-03
(PID.TID 0000.0001) %MON dynstat_vvel_max             =   8.8498064408865E-02
(PID.TID 0000.0001) %MON dynstat_vvel_min             =  -1.3287236564640E-01
(PID.TID 0000.0001) %MON dynstat_vvel_mean            =   3.2384844917778E-05
(PID.TID 0000.0001) %MON dynstat_vvel_sd              =   1.0901195518854E-02
(PID.TID 0000.0001) %MON dynstat_vvel_del2            =   3.0698344248246E-03
(PID.TID 0000.0001) %MON dynstat_wvel_max             =   2.6569044764146E+00
(PID.TID 0000.0001) %MON dynstat_wvel_min             =  -1.5547931985842E+00
(PID.TID 0000.0001) %MON dynstat_wvel_mean            =   1.2979504892968E-04
(PID.TID 0000.0001) %MON dynstat_wvel_sd              =   2.2947306123281E-01
(PID.TID 0000.0001) %MON dynstat_wvel_del2            =   9.3649216860447E-02
(PID.TID 0000.0001) %MON dynstat_theta_max            =   2.9982785580699E+01
(PID.TID 0000.0001) %MON dynstat_theta_min            =  -3.1679769250469E+00
(PID.TID 0000.0001) %MON dynstat_theta_mean           =   3.6036486896854E+00
(PID.TID 0000.0001) %MON dynstat_theta_sd             =   4.4030320640187E+00
(PID.TID 0000.0001) %MON dynstat_theta_del2           =   1.4261321525148E-01
(PID.TID 0000.0001) %MON dynstat_salt_max             =   3.7433058134275E+01
(PID.TID 0000.0001) %MON dynstat_salt_min             =   2.9769554656678E+01
(PID.TID 0000.0001) %MON dynstat_salt_mean            =   3.4718001087010E+01
(PID.TID 0000.0001) %MON dynstat_salt_sd              =   2.9440921061610E-01
(PID.TID 0000.0001) %MON dynstat_salt_del2            =   2.6605029963553E-02
(PID.TID 0000.0001) %MON advcfl_uvel_max              =   1.1210750912794E-01
(PID.TID 0000.0001) %MON advcfl_vvel_max              =   5.1629939257106E-02
(PID.TID 0000.0001) %MON advcfl_wvel_max              =   1.2299767521370E-01
(PID.TID 0000.0001) %MON advcfl_W_hf_max              =   1.2299767521370E-01
(PID.TID 0000.0001) %MON ke_max                       =   1.5884790988276E-02
(PID.TID 0000.0001) %MON ke_mean                      =   3.6889717493546E-04
(PID.TID 0000.0001) %MON ke_volint                    =   1.6594348226640E+18
(PID.TID 0000.0001) %MON ke_volmean                   =   1.2345018060777E-04
(PID.TID 0000.0001) %MON ke_vol                       =   1.3442141716555E+22
(PID.TID 0000.0001) %MON surfExpan_theta_mean         =   9.4388735623566E-04
(PID.TID 0000.0001) %MON surfExpan_salt_mean          =  -2.2212068638271E-05
(PID.TID 0000.0001) // =======================================================
(PID.TID 0000.0001) // End MONITOR dynamic field statistics
(PID.TID 0000.0001) // =======================================================
time,SST,SSS,fu,fv,Q,E-P,i0,i1,a,b =   2.5920E+06  1.6350E-01  0.0000E+00 -2.4327E-02 -3.6125E-02  1.3303E+02 -2.0964E-09     1     2  5.3333E-01  4.6667E-01
time,fu0,fu1,fu =   2.5920E+06 -3.5633E-02 -1.4435E-02 -2.4327E-02  5.3333E-01  4.6667E-01
 cg2d: Sum(rhs),rhsMax =  -4.26048085699904E-15  1.72996021956760E+02
(PID.TID 0000.0001)                    cg2d_init_res =    2.45006179261666E-03
(PID.TID 0000.0001)                       cg2d_iters =   105
(PID.TID 0000.0001)                         cg2d_res =    9.73988636931385E-10
(PID.TID 0000.0001) // =======================================================
(PID.TID 0000.0001) // Begin MONITOR dynamic field statistics
(PID.TID 0000.0001) // =======================================================
(PID.TID 0000.0001) %MON time_tsnumber                =                    16
(PID.TID 0000.0001) %MON time_secondsf                =   2.7648000000000E+06
(PID.TID 0000.0001) %MON dynstat_eta_max              =   4.6789405485682E+04
(PID.TID 0000.0001) %MON dynstat_eta_min              =  -9.2852434056814E+04
(PID.TID 0000.0001) %MON dynstat_eta_mean             =  -1.2467885339839E-12
(PID.TID 0000.0001) %MON dynstat_eta_sd               =   3.9659503873491E+04
(PID.TID 0000.0001) %MON dynstat_eta_del2             =   2.3966763321998E+04
(PID.TID 0000.0001) %MON dynstat_uvel_max             =   1.8326059209601E-01
(PID.TID 0000.0001) %MON dynstat_uvel_min             =  -8.7623465950688E-02
(PID.TID 0000.0001) %MON dynstat_uvel_mean            =   2.4727626063531E-04
(PID.TID 0000.0001) %MON dynstat_uvel_sd              =   1.3323140580947E-02
(PID.TID 0000.0001) %MON dynstat_uvel_del2            =   2.8447694517609E-03
(PID.TID 0000.0001) %MON dynstat_vvel_max             =   8.9080998779854E-02
(PID.TID 0000.0001) %MON dynstat_vvel_min             =  -1.3177977555999E-01
(PID.TID 0000.0001) %MON dynstat_vvel_mean            =   1.7431128578600E-05
(PID.TID 0000.0001) %MON dynstat_vvel_sd              =   1.0756937775688E-02
(PID.TID 0000.0001) %MON dynstat_vvel_del2            =   3.0670882857486E-03
(PID.TID 0000.0001) %MON dynstat_wvel_max             =   2.7623140600311E+00
(PID.TID 0000.0001) %MON dynstat_wvel_min             =  -1.5768143019211E+00
(PID.TID 0000.0001) %MON dynstat_wvel_mean            =   6.7075626717092E-05
(PID.TID 0000.0001) %MON dynstat_wvel_sd              =   2.2284687215342E-01
(PID.TID 0000.0001) %MON dynstat_wvel_del2            =   9.1870765800624E-02
(PID.TID 0000.0001) %MON dynstat_theta_max            =   2.9989060862992E+01
(PID.TID 0000.0001) %MON dynstat_theta_min            =  -3.2072080143167E+00
(PID.TID 0000.0001) %MON dynstat_theta_mean           =   3.6037435815480E+00
(PID.TID 0000.0001) %MON dynstat_theta_sd             =   4.4032904938860E+00
(PID.TID 0000.0001) %MON dynstat_theta_del2           =   1.4297894111407E-01
(PID.TID 0000.0001) %MON dynstat_salt_max             =   3.7433192125258E+01
(PID.TID 0000.0001) %MON dynstat_salt_min             =   2.9768463770245E+01
(PID.TID 0000.0001) %MON dynstat_salt_mean            =   3.4718001020331E+01
(PID.TID 0000.0001) %MON dynstat_salt_sd              =   2.9441201053631E-01
(PID.TID 0000.0001) %MON dynstat_salt_del2            =   2.6649050902285E-02
(PID.TID 0000.0001) %MON advcfl_uvel_max              =   1.1547897323056E-01
(PID.TID 0000.0001) %MON advcfl_vvel_max              =   5.1205393795605E-02
(PID.TID 0000.0001) %MON advcfl_wvel_max              =   1.1294530429110E-01
(PID.TID 0000.0001) %MON advcfl_W_hf_max              =   1.1294530429110E-01
(PID.TID 0000.0001) %MON ke_max                       =   1.6992342881713E-02
(PID.TID 0000.0001) %MON ke_mean                      =   3.9702824502520E-04
(PID.TID 0000.0001) %MON ke_volint                    =   1.7781293931218E+18
(PID.TID 0000.0001) %MON ke_volmean                   =   1.3228021476160E-04
(PID.TID 0000.0001) %MON ke_vol                       =   1.3442141716555E+22
(PID.TID 0000.0001) %MON surfExpan_theta_mean         =   8.6715455613503E-04
(PID.TID 0000.0001) %MON surfExpan_salt_mean          =   1.2480413658435E-05
(PID.TID 0000.0001) // =======================================================
(PID.TID 0000.0001) // End MONITOR dynamic field statistics
(PID.TID 0000.0001) // =======================================================
time,SST,SSS,fu,fv,Q,E-P,i0,i1,a,b =   2.7648E+06  6.4124E-02  0.0000E+00 -2.2914E-02 -3.3484E-02  1.3556E+02 -2.0964E-09     1     2  6.0000E-01  4.0000E-01
time,fu0,fu1,fu =   2.7648E+06 -3.5633E-02 -1.4435E-02 -2.2914E-02  6.0000E-01  4.0000E-01
 cg2d: Sum(rhs),rhsMax =   6.93889390390723E-17  1.72993070143628E+02
(PID.TID 0000.0001)                    cg2d_init_res =    2.30541260163326E-03
(PID.TID 0000.0001)                       cg2d_iters =   105
(PID.TID 0000.0001)                         cg2d_res =    8.67386497832330E-10
(PID.TID 0000.0001) // =======================================================
(PID.TID 0000.0001) // Begin MONITOR dynamic field statistics
(PID.TID 0000.0001) // =======================================================
(PID.TID 0000.0001) %MON time_tsnumber                =                    17
(PID.TID 0000.0001) %MON time_secondsf                =   2.9376000000000E+06
(PID.TID 0000.0001) %MON dynstat_eta_max              =   4.8392796833172E+04
(PID.TID 0000.0001) %MON dynstat_eta_min              =  -9.2898952804312E+04
(PID.TID 0000.0001) %MON dynstat_eta_mean             =  -3.8252311785279E-12
(PID.TID 0000.0001) %MON dynstat_eta_sd               =   3.9709927305918E+04
(PID.TID 0000.0001) %MON dynstat_eta_del2             =   2.3967311189736E+04
(PID.TID 0000.0001) %MON dynstat_uvel_max             =   1.9076618947922E-01
(PID.TID 0000.0001) %MON dynstat_uvel_min             =  -9.1158802754867E-02
(PID.TID 0000.0001) %MON dynstat_uvel_mean            =   3.4910138455824E-04
(PID.TID 0000.0001) %MON dynstat_uvel_sd              =   1.4133812149019E-02
(PID.TID 0000.0001) %MON dynstat_uvel_del2            =   2.9457256093425E-03
(PID.TID 0000.0001) %MON dynstat_vvel_max             =   9.2144757771821E-02
(PID.TID 0000.0001) %MON dynstat_vvel_min             =  -1.2921766111966E-01
(PID.TID 0000.0001) %MON dynstat_vvel_mean            =  -1.5114350689151E-05
(PID.TID 0000.0001) %MON dynstat_vvel_sd              =   1.0552145670524E-02
(PID.TID 0000.0001) %MON dynstat_vvel_del2            =   3.0594166997015E-03
(PID.TID 0000.0001) %MON dynstat_wvel_max             =   2.8570474426046E+00
(PID.TID 0000.0001) %MON dynstat_wvel_min             =  -1.5805358458631E+00
(PID.TID 0000.0001) %MON dynstat_wvel_mean            =   2.3315391725630E-05
(PID.TID 0000.0001) %MON dynstat_wvel_sd              =   2.1606932851972E-01
(PID.TID 0000.0001) %MON dynstat_wvel_del2            =   9.0379056962673E-02
(PID.TID 0000.0001) %MON dynstat_theta_max            =   2.9990663773912E+01
(PID.TID 0000.0001) %MON dynstat_theta_min            =  -3.2418974116521E+00
(PID.TID 0000.0001) %MON dynstat_theta_mean           =   3.6038393020901E+00
(PID.TID 0000.0001) %MON dynstat_theta_sd             =   4.4035652004757E+00
(PID.TID 0000.0001) %MON dynstat_theta_del2           =   1.4327287477704E-01
(PID.TID 0000.0001) %MON dynstat_salt_max             =   3.7433460601986E+01
(PID.TID 0000.0001) %MON dynstat_salt_min             =   2.9767300644563E+01
(PID.TID 0000.0001) %MON dynstat_salt_mean            =   3.4718000930099E+01
(PID.TID 0000.0001) %MON dynstat_salt_sd              =   2.9441346812119E-01
(PID.TID 0000.0001) %MON dynstat_salt_del2            =   2.6687101279179E-02
(PID.TID 0000.0001) %MON advcfl_uvel_max              =   1.1878421815487E-01
(PID.TID 0000.0001) %MON advcfl_vvel_max              =   5.0209838306844E-02
(PID.TID 0000.0001) %MON advcfl_wvel_max              =   1.0048998816874E-01
(PID.TID 0000.0001) %MON advcfl_W_hf_max              =   1.0048998816874E-01
(PID.TID 0000.0001) %MON ke_max                       =   1.7979383884318E-02
(PID.TID 0000.0001) %MON ke_mean                      =   4.2338526150165E-04
(PID.TID 0000.0001) %MON ke_volint                    =   1.8876962857929E+18
(PID.TID 0000.0001) %MON ke_volmean                   =   1.4043121442977E-04
(PID.TID 0000.0001) %MON ke_vol                       =   1.3442141716555E+22
(PID.TID 0000.0001) %MON surfExpan_theta_mean         =   4.6724501809691E-04
(PID.TID 0000.0001) %MON surfExpan_salt_mean          =   5.0635231806090E-05
(PID.TID 0000.0001) // =======================================================
(PID.TID 0000.0001) // End MONITOR dynamic field statistics
(PID.TID 0000.0001) // =======================================================
time,SST,SSS,fu,fv,Q,E-P,i0,i1,a,b =   2.9376E+06 -3.5249E-02  0.0000E+00 -2.1501E-02 -3.0843E-02  1.3808E+02 -2.0964E-09     1     2  6.6667E-01  3.3333E-01
time,fu0,fu1,fu =   2.9376E+06 -3.5633E-02 -1.4435E-02 -2.1501E-02  6.6667E-01  3.3333E-01
 cg2d: Sum(rhs),rhsMax =  -1.59594559789866E-15  1.72989818733244E+02
(PID.TID 0000.0001)                    cg2d_init_res =    2.20657321260652E-03
(PID.TID 0000.0001)                       cg2d_iters =    99
(PID.TID 0000.0001)                         cg2d_res =    9.07084946939932E-10
(PID.TID 0000.0001) // =======================================================
(PID.TID 0000.0001) // Begin MONITOR dynamic field statistics
(PID.TID 0000.0001) // =======================================================
(PID.TID 0000.0001) %MON time_tsnumber                =                    18
(PID.TID 0000.0001) %MON time_secondsf                =   3.1104000000000E+06
(PID.TID 0000.0001) %MON dynstat_eta_max              =   4.8834901577458E+04
(PID.TID 0000.0001) %MON dynstat_eta_min              =  -9.2835665516338E+04
(PID.TID 0000.0001) %MON dynstat_eta_mean             =   3.2891695131198E-12
(PID.TID 0000.0001) %MON dynstat_eta_sd               =   3.9723822753456E+04
(PID.TID 0000.0001) %MON dynstat_eta_del2             =   2.3967135679241E+04
(PID.TID 0000.0001) %MON dynstat_uvel_max             =   1.9673996485594E-01
(PID.TID 0000.0001) %MON dynstat_uvel_min             =  -9.5060538695263E-02
(PID.TID 0000.0001) %MON dynstat_uvel_mean            =   4.6370202497302E-04
(PID.TID 0000.0001) %MON dynstat_uvel_sd              =   1.4870643207713E-02
(PID.TID 0000.0001) %MON dynstat_uvel_del2            =   3.0459660703689E-03
(PID.TID 0000.0001) %MON dynstat_vvel_max             =   9.4736791349986E-02
(PID.TID 0000.0001) %MON dynstat_vvel_min             =  -1.2522379482903E-01
(PID.TID 0000.0001) %MON dynstat_vvel_mean            =  -4.6941415579186E-05
(PID.TID 0000.0001) %MON dynstat_vvel_sd              =   1.0310270044768E-02
(PID.TID 0000.0001) %MON dynstat_vvel_del2            =   3.0533328323762E-03
(PID.TID 0000.0001) %MON dynstat_wvel_max             =   2.9401062645838E+00
(PID.TID 0000.0001) %MON dynstat_wvel_min             =  -1.6425587566547E+00
(PID.TID 0000.0001) %MON dynstat_wvel_mean            =  -8.0936382107965E-06
(PID.TID 0000.0001) %MON dynstat_wvel_sd              =   2.0968400294014E-01
(PID.TID 0000.0001) %MON dynstat_wvel_del2            =   8.9285516393584E-02
(PID.TID 0000.0001) %MON dynstat_theta_max            =   2.9987563634929E+01
(PID.TID 0000.0001) %MON dynstat_theta_min            =  -3.2721039004233E+00
(PID.TID 0000.0001) %MON dynstat_theta_mean           =   3.6039358448377E+00
(PID.TID 0000.0001) %MON dynstat_theta_sd             =   4.4038589265704E+00
(PID.TID 0000.0001) %MON dynstat_theta_del2           =   1.4350319132511E-01
(PID.TID 0000.0001) %MON dynstat_salt_max             =   3.7433867092847E+01
(PID.TID 0000.0001) %MON dynstat_salt_min             =   2.9766010524143E+01
(PID.TID 0000.0001) %MON dynstat_salt_mean            =   3.4718000829492E+01
(PID.TID 0000.0001) %MON dynstat_salt_sd              =   2.9441390429801E-01
(PID.TID 0000.0001) %MON dynstat_salt_del2            =   2.6708400585477E-02
(PID.TID 0000.0001) %MON advcfl_uvel_max              =   1.2370205294602E-01
(PID.TID 0000.0001) %MON advcfl_vvel_max              =   4.8657949974134E-02
(PID.TID 0000.0001) %MON advcfl_wvel_max              =   9.8319616281497E-02
(PID.TID 0000.0001) %MON advcfl_W_hf_max              =   9.8319616281497E-02
(PID.TID 0000.0001) %MON ke_max                       =   1.8840518493239E-02
(PID.TID 0000.0001) %MON ke_mean                      =   4.4773864213724E-04
(PID.TID 0000.0001) %MON ke_volint                    =   1.9879621589283E+18
(PID.TID 0000.0001) %MON ke_volmean                   =   1.4789028421564E-04
(PID.TID 0000.0001) %MON ke_vol                       =   1.3442141716555E+22
(PID.TID 0000.0001) %MON surfExpan_theta_mean         =  -1.3058199486569E-05
(PID.TID 0000.0001) %MON surfExpan_salt_mean          =   8.5133065503167E-05
(PID.TID 0000.0001) // =======================================================
(PID.TID 0000.0001) // End MONITOR dynamic field statistics
(PID.TID 0000.0001) // =======================================================
time,SST,SSS,fu,fv,Q,E-P,i0,i1,a,b =   3.1104E+06 -1.3462E-01  0.0000E+00 -2.0088E-02 -2.8201E-02  1.4061E+02 -2.0964E-09     1     2  7.3333E-01  2.6667E-01
time,fu0,fu1,fu =   3.1104E+06 -3.5633E-02 -1.4435E-02 -2.0088E-02  7.3333E-01  2.6667E-01
 cg2d: Sum(rhs),rhsMax =  -1.94289029309402E-16  1.72986107073127E+02
(PID.TID 0000.0001)                    cg2d_init_res =    2.18102819248142E-03
(PID.TID 0000.0001)                       cg2d_iters =    99
(PID.TID 0000.0001)                         cg2d_res =    9.77785717927026E-10
(PID.TID 0000.0001) // =======================================================
(PID.TID 0000.0001) // Begin MONITOR dynamic field statistics
(PID.TID 0000.0001) // =======================================================
(PID.TID 0000.0001) %MON time_tsnumber                =                    19
(PID.TID 0000.0001) %MON time_secondsf                =   3.2832000000000E+06
(PID.TID 0000.0001) %MON dynstat_eta_max              =   4.8224387211594E+04
(PID.TID 0000.0001) %MON dynstat_eta_min              =  -9.2712798609932E+04
(PID.TID 0000.0001) %MON dynstat_eta_mean             =   1.4043098905663E-12
(PID.TID 0000.0001) %MON dynstat_eta_sd               =   3.9703080459927E+04
(PID.TID 0000.0001) %MON dynstat_eta_del2             =   2.3966250529996E+04
(PID.TID 0000.0001) %MON dynstat_uvel_max             =   2.0110488569584E-01
(PID.TID 0000.0001) %MON dynstat_uvel_min             =  -9.8447664122047E-02
(PID.TID 0000.0001) %MON dynstat_uvel_mean            =   5.6927869294432E-04
(PID.TID 0000.0001) %MON dynstat_uvel_sd              =   1.5524672098184E-02
(PID.TID 0000.0001) %MON dynstat_uvel_del2            =   3.1434729665511E-03
(PID.TID 0000.0001) %MON dynstat_vvel_max             =   9.6880621904670E-02
(PID.TID 0000.0001) %MON dynstat_vvel_min             =  -1.1986189030505E-01
(PID.TID 0000.0001) %MON dynstat_vvel_mean            =  -6.3709229704245E-05
(PID.TID 0000.0001) %MON dynstat_vvel_sd              =   1.0056186911633E-02
(PID.TID 0000.0001) %MON dynstat_vvel_del2            =   3.0513816214478E-03
(PID.TID 0000.0001) %MON dynstat_wvel_max             =   3.0106680272834E+00
(PID.TID 0000.0001) %MON dynstat_wvel_min             =  -1.7726738960776E+00
(PID.TID 0000.0001) %MON dynstat_wvel_mean            =  -3.4991362828893E-05
(PID.TID 0000.0001) %MON dynstat_wvel_sd              =   2.0415220989551E-01
(PID.TID 0000.0001) %MON dynstat_wvel_del2            =   8.8715894865029E-02
(PID.TID 0000.0001) %MON dynstat_theta_max            =   2.9979731581980E+01
(PID.TID 0000.0001) %MON dynstat_theta_min            =  -3.2978794210508E+00
(PID.TID 0000.0001) %MON dynstat_theta_mean           =   3.6040337120742E+00
(PID.TID 0000.0001) %MON dynstat_theta_sd             =   4.4041721426791E+00
(PID.TID 0000.0001) %MON dynstat_theta_del2           =   1.4382684937033E-01
(PID.TID 0000.0001) %MON dynstat_salt_max             =   3.7434407378920E+01
(PID.TID 0000.0001) %MON dynstat_salt_min             =   2.9764561512260E+01
(PID.TID 0000.0001) %MON dynstat_salt_mean            =   3.4718000738345E+01
(PID.TID 0000.0001) %MON dynstat_salt_sd              =   2.9441595825732E-01
(PID.TID 0000.0001) %MON dynstat_salt_del2            =   2.6751195257861E-02
(PID.TID 0000.0001) %MON advcfl_uvel_max              =   1.2742110726480E-01
(PID.TID 0000.0001) %MON advcfl_vvel_max              =   4.6574485865334E-02
(PID.TID 0000.0001) %MON advcfl_wvel_max              =   9.7953098615634E-02
(PID.TID 0000.0001) %MON advcfl_W_hf_max              =   9.7953098615634E-02
(PID.TID 0000.0001) %MON ke_max                       =   1.9573379193396E-02
(PID.TID 0000.0001) %MON ke_mean                      =   4.6978856424609E-04
(PID.TID 0000.0001) %MON ke_volint                    =   2.0784675921606E+18
(PID.TID 0000.0001) %MON ke_volmean                   =   1.5462324650251E-04
(PID.TID 0000.0001) %MON ke_vol                       =   1.3442141716555E+22
(PID.TID 0000.0001) %MON surfExpan_theta_mean         =  -3.6261637968909E-04
(PID.TID 0000.0001) %MON surfExpan_salt_mean          =   1.1038367310101E-04
(PID.TID 0000.0001) // =======================================================
(PID.TID 0000.0001) // End MONITOR dynamic field statistics
(PID.TID 0000.0001) // =======================================================
time,SST,SSS,fu,fv,Q,E-P,i0,i1,a,b =   3.2832E+06 -2.3399E-01  0.0000E+00 -1.8674E-02 -2.5560E-02  1.4314E+02 -2.0964E-09     1     2  8.0000E-01  2.0000E-01
time,fu0,fu1,fu =   3.2832E+06 -3.5633E-02 -1.4435E-02 -1.8674E-02  8.0000E-01  2.0000E-01
 cg2d: Sum(rhs),rhsMax =   4.02455846426619E-16  1.72981617083697E+02
(PID.TID 0000.0001)                    cg2d_init_res =    2.20680567194784E-03
(PID.TID 0000.0001)                       cg2d_iters =   102
(PID.TID 0000.0001)                         cg2d_res =    9.91147257436568E-10
(PID.TID 0000.0001) // =======================================================
(PID.TID 0000.0001) // Begin MONITOR dynamic field statistics
(PID.TID 0000.0001) // =======================================================
(PID.TID 0000.0001) %MON time_tsnumber                =                    20
(PID.TID 0000.0001) %MON time_secondsf                =   3.4560000000000E+06
(PID.TID 0000.0001) %MON dynstat_eta_max              =   4.6919005134320E+04
(PID.TID 0000.0001) %MON dynstat_eta_min              =  -9.2592394703068E+04
(PID.TID 0000.0001) %MON dynstat_eta_mean             =   6.2224308629543E-12
(PID.TID 0000.0001) %MON dynstat_eta_sd               =   3.9661648676301E+04
(PID.TID 0000.0001) %MON dynstat_eta_del2             =   2.3964945541440E+04
(PID.TID 0000.0001) %MON dynstat_uvel_max             =   2.0380492244002E-01
(PID.TID 0000.0001) %MON dynstat_uvel_min             =  -1.0119271477805E-01
(PID.TID 0000.0001) %MON dynstat_uvel_mean            =   6.5145502350951E-04
(PID.TID 0000.0001) %MON dynstat_uvel_sd              =   1.6087071614393E-02
(PID.TID 0000.0001) %MON dynstat_uvel_del2            =   3.2340693054022E-03
(PID.TID 0000.0001) %MON dynstat_vvel_max             =   9.8610241266521E-02
(PID.TID 0000.0001) %MON dynstat_vvel_min             =  -1.1322532843679E-01
(PID.TID 0000.0001) %MON dynstat_vvel_mean            =  -5.8030621849322E-05
(PID.TID 0000.0001) %MON dynstat_vvel_sd              =   9.8150653841352E-03
(PID.TID 0000.0001) %MON dynstat_vvel_del2            =   3.0584558741045E-03
(PID.TID 0000.0001) %MON dynstat_wvel_max             =   3.0682364064736E+00
(PID.TID 0000.0001) %MON dynstat_wvel_min             =  -1.8897157038873E+00
(PID.TID 0000.0001) %MON dynstat_wvel_mean            =  -6.2928645147608E-05
(PID.TID 0000.0001) %MON dynstat_wvel_sd              =   1.9981011343862E-01
(PID.TID 0000.0001) %MON dynstat_wvel_del2            =   8.8540856725813E-02
(PID.TID 0000.0001) %MON dynstat_theta_max            =   2.9967149828675E+01
(PID.TID 0000.0001) %MON dynstat_theta_min            =  -3.3192712226251E+00
(PID.TID 0000.0001) %MON dynstat_theta_mean           =   3.6041327875064E+00
(PID.TID 0000.0001) %MON dynstat_theta_sd             =   4.4045043961971E+00
(PID.TID 0000.0001) %MON dynstat_theta_del2           =   1.4394224940898E-01
(PID.TID 0000.0001) %MON dynstat_salt_max             =   3.7435274147510E+01
(PID.TID 0000.0001) %MON dynstat_salt_min             =   2.9762948626642E+01
(PID.TID 0000.0001) %MON dynstat_salt_mean            =   3.4718000671543E+01
(PID.TID 0000.0001) %MON dynstat_salt_sd              =   2.9441587652996E-01
(PID.TID 0000.0001) %MON dynstat_salt_del2            =   2.6780454886260E-02
(PID.TID 0000.0001) %MON advcfl_uvel_max              =   1.2984289293364E-01
(PID.TID 0000.0001) %MON advcfl_vvel_max              =   4.3995730798642E-02
(PID.TID 0000.0001) %MON advcfl_wvel_max              =   9.7216025010989E-02
(PID.TID 0000.0001) %MON advcfl_W_hf_max              =   9.7216025010989E-02
(PID.TID 0000.0001) %MON ke_max                       =   2.0295634603587E-02
(PID.TID 0000.0001) %MON ke_mean                      =   4.8920357092667E-04
(PID.TID 0000.0001) %MON ke_volint                    =   2.1584260993787E+18
(PID.TID 0000.0001) %MON ke_volmean                   =   1.6057159230217E-04
(PID.TID 0000.0001) %MON ke_vol                       =   1.3442141716555E+22
(PID.TID 0000.0001) %MON surfExpan_theta_mean         =  -4.5391083164888E-04
(PID.TID 0000.0001) %MON surfExpan_salt_mean          =   1.2287948337635E-04
(PID.TID 0000.0001) // =======================================================
(PID.TID 0000.0001) // End MONITOR dynamic field statistics
(PID.TID 0000.0001) // =======================================================
(PID.TID 0000.0001)   Seconds in section "ALL                    [THE_MODEL_MAIN]":
(PID.TID 0000.0001)           User time:  30.8400004
(PID.TID 0000.0001)         System time:  0.379999986
(PID.TID 0000.0001)     Wall clock time:  31.3453491
(PID.TID 0000.0001)          No. starts: 1
(PID.TID 0000.0001)           No. stops: 1
(PID.TID 0000.0001)   Seconds in section "INITIALISE_FIXED       [THE_MODEL_MAIN]":
(PID.TID 0000.0001)           User time:  0.439999988
(PID.TID 0000.0001)         System time:  0.0299999993
(PID.TID 0000.0001)     Wall clock time:  0.488095045
(PID.TID 0000.0001)          No. starts: 1
(PID.TID 0000.0001)           No. stops: 1
(PID.TID 0000.0001)   Seconds in section "THE_MAIN_LOOP          [THE_MODEL_MAIN]":
(PID.TID 0000.0001)           User time:  30.05
(PID.TID 0000.0001)         System time:  0.270000003
(PID.TID 0000.0001)     Wall clock time:  30.4315549
(PID.TID 0000.0001)          No. starts: 1
(PID.TID 0000.0001)           No. stops: 1
(PID.TID 0000.0001)   Seconds in section "INITIALISE_VARIA    [THE_MAIN_LOOP]":
(PID.TID 0000.0001)           User time:  0.25
(PID.TID 0000.0001)         System time:  0.110000007
(PID.TID 0000.0001)     Wall clock time:  0.420567036
(PID.TID 0000.0001)          No. starts: 1
(PID.TID 0000.0001)           No. stops: 1
(PID.TID 0000.0001)   Seconds in section "WRITE_STATE         [THE_MAIN_LOOP]":
(PID.TID 0000.0001)           User time:  0.319999993
(PID.TID 0000.0001)         System time:  0.0199999958
(PID.TID 0000.0001)     Wall clock time:  0.329326987
(PID.TID 0000.0001)          No. starts: 1
(PID.TID 0000.0001)           No. stops: 1
(PID.TID 0000.0001)   Seconds in section "MONITOR             [THE_MAIN_LOOP]":
(PID.TID 0000.0001)           User time:  0.149999976
(PID.TID 0000.0001)         System time:  0.
(PID.TID 0000.0001)     Wall clock time:  0.146323919
(PID.TID 0000.0001)          No. starts: 1
(PID.TID 0000.0001)           No. stops: 1
(PID.TID 0000.0001)   Seconds in section "MAIN LOOP           [THE_MAIN_LOOP]":
(PID.TID 0000.0001)           User time:  29.33
(PID.TID 0000.0001)         System time:  0.140000001
(PID.TID 0000.0001)     Wall clock time:  29.5349621
(PID.TID 0000.0001)          No. starts: 1
(PID.TID 0000.0001)           No. stops: 1
(PID.TID 0000.0001)   Seconds in section "FORWARD_STEP        [THE_MAIN_LOOP]":
(PID.TID 0000.0001)           User time:  29.33
(PID.TID 0000.0001)         System time:  0.140000001
(PID.TID 0000.0001)     Wall clock time:  29.5334721
(PID.TID 0000.0001)          No. starts: 20
(PID.TID 0000.0001)           No. stops: 20
(PID.TID 0000.0001)   Seconds in section "UPDATE_ETAH        [FORWARD_STEP]":
(PID.TID 0000.0001)           User time:  0.0100002289
(PID.TID 0000.0001)         System time:  0.
(PID.TID 0000.0001)     Wall clock time:  0.00684297085
(PID.TID 0000.0001)          No. starts: 20
(PID.TID 0000.0001)           No. stops: 20
(PID.TID 0000.0001)   Seconds in section "CALC_SURF_DR      [FORWARD_STEP]":
(PID.TID 0000.0001)           User time:  0.0700001717
(PID.TID 0000.0001)         System time:  0.
(PID.TID 0000.0001)     Wall clock time:  0.0820569992
(PID.TID 0000.0001)          No. starts: 20
(PID.TID 0000.0001)           No. stops: 20
(PID.TID 0000.0001)   Seconds in section "EXTERNAL_FIELDS_LOAD[FORWARD_STEP]":
(PID.TID 0000.0001)           User time:  0.109999299
(PID.TID 0000.0001)         System time:  0.0100000203
(PID.TID 0000.0001)     Wall clock time:  0.153853297
(PID.TID 0000.0001)          No. starts: 20
(PID.TID 0000.0001)           No. stops: 20
(PID.TID 0000.0001)   Seconds in section "THERMODYNAMICS      [FORWARD_STEP]":
(PID.TID 0000.0001)           User time:  9.37999952
(PID.TID 0000.0001)         System time:  0.0600000024
(PID.TID 0000.0001)     Wall clock time:  9.41876233
(PID.TID 0000.0001)          No. starts: 20
(PID.TID 0000.0001)           No. stops: 20
(PID.TID 0000.0001)   Seconds in section "BLOCKING_EXCHANGES  [FORWARD_STEP]":
(PID.TID 0000.0001)           User time:  0.110000134
(PID.TID 0000.0001)         System time:  0.
(PID.TID 0000.0001)     Wall clock time:  0.110174656
(PID.TID 0000.0001)          No. starts: 40
(PID.TID 0000.0001)           No. stops: 40
(PID.TID 0000.0001)   Seconds in section "DYNAMICS            [FORWARD_STEP]":
(PID.TID 0000.0001)           User time:  8.83999979
(PID.TID 0000.0001)         System time:  0.0199999958
(PID.TID 0000.0001)     Wall clock time:  8.89330232
(PID.TID 0000.0001)          No. starts: 20
(PID.TID 0000.0001)           No. stops: 20
(PID.TID 0000.0001)   Seconds in section "UPDATE_SURF_DR     [FORWARD_STEP]":
(PID.TID 0000.0001)           User time:  0.0300004482
(PID.TID 0000.0001)         System time:  0.
(PID.TID 0000.0001)     Wall clock time:  0.0298167467
(PID.TID 0000.0001)          No. starts: 20
(PID.TID 0000.0001)           No. stops: 20
(PID.TID 0000.0001)   Seconds in section "UPDATE_CG2D        [FORWARD_STEP]":
(PID.TID 0000.0001)           User time:  0.210000992
(PID.TID 0000.0001)         System time:  0.
(PID.TID 0000.0001)     Wall clock time:  0.22306478
(PID.TID 0000.0001)          No. starts: 20
(PID.TID 0000.0001)           No. stops: 20
(PID.TID 0000.0001)   Seconds in section "SOLVE_FOR_PRESSURE  [FORWARD_STEP]":
(PID.TID 0000.0001)           User time:  4.74999762
(PID.TID 0000.0001)         System time:  0.
(PID.TID 0000.0001)     Wall clock time:  4.71671307
(PID.TID 0000.0001)          No. starts: 20
(PID.TID 0000.0001)           No. stops: 20
(PID.TID 0000.0001)   Seconds in section "THE_CORRECTION_STEP [FORWARD_STEP]":
(PID.TID 0000.0001)           User time:  2.51000285
(PID.TID 0000.0001)         System time:  0.00999999046
(PID.TID 0000.0001)     Wall clock time:  2.53829706
(PID.TID 0000.0001)          No. starts: 20
(PID.TID 0000.0001)           No. stops: 20
(PID.TID 0000.0001)   Seconds in section "MONITOR             [FORWARD_STEP]":
(PID.TID 0000.0001)           User time:  3.00000048
(PID.TID 0000.0001)         System time:  0.
(PID.TID 0000.0001)     Wall clock time:  3.00603354
(PID.TID 0000.0001)          No. starts: 20
(PID.TID 0000.0001)           No. stops: 20
(PID.TID 0000.0001)   Seconds in section "DO_THE_MODEL_IO     [FORWARD_STEP]":
(PID.TID 0000.0001)           User time:  0.290000916
(PID.TID 0000.0001)         System time:  0.0399999917
(PID.TID 0000.0001)     Wall clock time:  0.331063151
(PID.TID 0000.0001)          No. starts: 20
(PID.TID 0000.0001)           No. stops: 20
(PID.TID 0000.0001)   Seconds in section "WRITE_CHECKPOINT    [FORWARD_STEP]":
(PID.TID 0000.0001)           User time:  0.
(PID.TID 0000.0001)         System time:  0.
(PID.TID 0000.0001)     Wall clock time:  0.0014500618
(PID.TID 0000.0001)          No. starts: 20
(PID.TID 0000.0001)           No. stops: 20
(PID.TID 0000.0001)   Seconds in section "WRITE_CHECKPOINT       [THE_MODEL_MAIN]":
(PID.TID 0000.0001)           User time:  0.350000381
(PID.TID 0000.0001)         System time:  0.0799999833
(PID.TID 0000.0001)     Wall clock time:  0.42536509
(PID.TID 0000.0001)          No. starts: 1
(PID.TID 0000.0001)           No. stops: 1
(PID.TID 0000.0001) // ======================================================
(PID.TID 0000.0001) // Tile <-> Tile communication statistics
(PID.TID 0000.0001) // ======================================================
(PID.TID 0000.0001) // o Tile number: 000001
(PID.TID 0000.0001) //         No. X exchanges =              0
(PID.TID 0000.0001) //            Max. X spins =              0
(PID.TID 0000.0001) //            Min. X spins =     1000000000
(PID.TID 0000.0001) //          Total. X spins =              0
(PID.TID 0000.0001) //            Avg. X spins =       0.00E+00
(PID.TID 0000.0001) //         No. Y exchanges =              0
(PID.TID 0000.0001) //            Max. Y spins =              0
(PID.TID 0000.0001) //            Min. Y spins =     1000000000
(PID.TID 0000.0001) //          Total. Y spins =              0
(PID.TID 0000.0001) //            Avg. Y spins =       0.00E+00
(PID.TID 0000.0001) // o Thread number: 000001
(PID.TID 0000.0001) //            No. barriers =          32246
(PID.TID 0000.0001) //      Max. barrier spins =              1
(PID.TID 0000.0001) //      Min. barrier spins =              1
(PID.TID 0000.0001) //     Total barrier spins =          32246
(PID.TID 0000.0001) //      Avg. barrier spins =       1.00E+00
