(PID.TID 0000.0001) 
(PID.TID 0000.0001) // ======================================================
(PID.TID 0000.0001) //                      MITgcm UV
(PID.TID 0000.0001) //                      =========
(PID.TID 0000.0001) // ======================================================
(PID.TID 0000.0001) // execution environment starting up...
(PID.TID 0000.0001) // Run starting Wed Apr  1 14:19:48 1998
(PID.TID 0000.0001) // on melville.lcs.mit.edu
(PID.TID 0000.0001) // account cnh
(PID.TID 0000.0001) // MITgcm UV Release: $Name:  $
(PID.TID 0000.0001) 
(PID.TID 0000.0001) // =======================================================
(PID.TID 0000.0001) // Execution Environment parameter file "eedata"
(PID.TID 0000.0001) // =======================================================
(PID.TID 0000.0001) ># Example "eedata" file
(PID.TID 0000.0001) ># Lines beginning "#" are comments
(PID.TID 0000.0001) ># nTx - No. threads per process in X
(PID.TID 0000.0001) ># nTy - No. threads per process in Y
(PID.TID 0000.0001) > &EEPARMS
(PID.TID 0000.0001) > nTx=1,nTy=1
(PID.TID 0000.0001) > /
(PID.TID 0000.0001) ># Note: Some systems use & as the
(PID.TID 0000.0001) ># namelist terminator. Other systems
(PID.TID 0000.0001) ># use a / character (as shown here).
(PID.TID 0000.0001) 
(PID.TID 0000.0001) // =======================================================
(PID.TID 0000.0001) // Computational Grid Specification ( see files "SIZE.h" )
(PID.TID 0000.0001) //                                  ( and "eedata"       )
(PID.TID 0000.0001) // =======================================================
(PID.TID 0000.0001)      nPx =    1 ; /* No. processes in X */
(PID.TID 0000.0001)      nPy =    1 ; /* No. processes in Y */
(PID.TID 0000.0001)      nSx =    1 ; /* No. tiles in X per process */
(PID.TID 0000.0001)      nSy =    1 ; /* No. tiles in Y per process */
(PID.TID 0000.0001)      sNx =   90 ; /* Tile size in X */
(PID.TID 0000.0001)      sNy =   40 ; /* Tile size in Y */
(PID.TID 0000.0001)      OLx =    3 ; /* Tile overlap distance in X */
(PID.TID 0000.0001)      OLy =    3 ; /* Tile overlap distance in Y */
(PID.TID 0000.0001)      nTx =    1 ; /* No. threads in X per process */
(PID.TID 0000.0001)      nTy =    1 ; /* No. threads in Y per process */
(PID.TID 0000.0001)       Nr =   15 ; /* No. levels in the vertical   */
(PID.TID 0000.0001)       nX =   90 ; /* Total domain size in X ( = nPx*nSx*sNx ) */
(PID.TID 0000.0001)       nY =   40 ; /* Total domain size in Y ( = nPy*nSy*sNy ) */
(PID.TID 0000.0001)   nTiles =    1 ; /* Total no. tiles per process ( = nSx*nSy ) */
(PID.TID 0000.0001)   nProcs =    1 ; /* Total no. processes ( = nPx*nPy ) */
(PID.TID 0000.0001) nThreads =    1 ; /* Total no. threads per process ( = nTx*nTy ) */
(PID.TID 0000.0001) usingMPI =    F ; /* Flag used to control whether MPI is in use */
(PID.TID 0000.0001)                   /*  note: To execute a program with MPI calls */
(PID.TID 0000.0001)                   /*  it must be launched appropriately e.g     */
(PID.TID 0000.0001)                   /*  "mpirun -np 64 ......"                    */
(PID.TID 0000.0001) 
(PID.TID 0000.0001) // ======================================================
(PID.TID 0000.0001) // Mapping of tiles to threads
(PID.TID 0000.0001) // ======================================================
(PID.TID 0000.0001) // -o- Thread   1, tiles (   1:   1,   1:   1)
(PID.TID 0000.0001) 
(PID.TID 0000.0001) // ======================================================
(PID.TID 0000.0001) // Tile <-> Tile connectvity table
(PID.TID 0000.0001) // ======================================================
(PID.TID 0000.0001) // Tile number: 000001 (process no. = 000001)
(PID.TID 0000.0001) //        WEST: Tile = 000001, Process = 000001, Comm = put
(PID.TID 0000.0001) //                bi = 000001, bj = 000001
(PID.TID 0000.0001) //        EAST: Tile = 000001, Process = 000001, Comm = put
(PID.TID 0000.0001) //                bi = 000001, bj = 000001
(PID.TID 0000.0001) //       SOUTH: Tile = 000001, Process = 000001, Comm = put
(PID.TID 0000.0001) //                bi = 000001, bj = 000001
(PID.TID 0000.0001) //       NORTH: Tile = 000001, Process = 000001, Comm = put
(PID.TID 0000.0001) //                bi = 000001, bj = 000001
(PID.TID 0000.0001) 
(PID.TID 0000.0001) // =======================================================
(PID.TID 0000.0001) // Model parameter file "data"
(PID.TID 0000.0001) // =======================================================
(PID.TID 0000.0001) ># ====================
(PID.TID 0000.0001) ># | Model parameters |
(PID.TID 0000.0001) ># ====================
(PID.TID 0000.0001) >#
(PID.TID 0000.0001) ># Continuous equation parameters
(PID.TID 0000.0001) > &PARM01
(PID.TID 0000.0001) > tRef=15*20.,
(PID.TID 0000.0001) > sRef=15*35.,
(PID.TID 0000.0001) > viscAh =3.E5,
(PID.TID 0000.0001) > no_slip_sides=.TRUE.,
(PID.TID 0000.0001) > viscAr =1.721611620915750e5,
(PID.TID 0000.0001) >#viscAz =1.67E-3,
(PID.TID 0000.0001) > no_slip_bottom=.FALSE.,
(PID.TID 0000.0001) > diffKhT=1.E3,
(PID.TID 0000.0001) > diffKrT=5.154525811125000e3,
(PID.TID 0000.0001) >#diffKzT=0.5E-4,
(PID.TID 0000.0001) > diffKhS=1.E3,
(PID.TID 0000.0001) > diffKrS=5.154525811125000e3,
(PID.TID 0000.0001) >#diffKzS=0.5E-4,
(PID.TID 0000.0001) > implicitDiffusion=.TRUE.,
(PID.TID 0000.0001) > ivdc_kappa=1.030905162225000e9,
(PID.TID 0000.0001) >#ivdc_kappa=10.0,
(PID.TID 0000.0001) > gravity=9.81,
(PID.TID 0000.0001) > gravitySign=-1.D0,
(PID.TID 0000.0001) > rhonil=1035.,
(PID.TID 0000.0001) > buoyancyRelation='OCEANICP',
(PID.TID 0000.0001) > integr_GeoPot=1,
(PID.TID 0000.0001) > eosType='JMD95P',
(PID.TID 0000.0001) > rigidLid=.FALSE.,
(PID.TID 0000.0001) > implicitFreeSurface=.TRUE.,
(PID.TID 0000.0001) > exactConserv=.TRUE.,
(PID.TID 0000.0001) > nonlinFreeSurf=3,
(PID.TID 0000.0001) > hFacInf=0.2,
(PID.TID 0000.0001) > hFacSup=2.0,
(PID.TID 0000.0001) >#useRealFreshWaterFlux=.TRUE.,
(PID.TID 0000.0001) > readBinaryPrec=64,
(PID.TID 0000.0001) > writeBinaryPrec=64,
(PID.TID 0000.0001) > cosPower=0.5,
(PID.TID 0000.0001) > &
(PID.TID 0000.0001) >
(PID.TID 0000.0001) ># Elliptic solver parameters
(PID.TID 0000.0001) > &PARM02
(PID.TID 0000.0001) > cg2dMaxIters=200,
(PID.TID 0000.0001) > cg2dTargetResidual=1.E-9,
(PID.TID 0000.0001) > &
(PID.TID 0000.0001) >
(PID.TID 0000.0001) ># Time stepping parameters
(PID.TID 0000.0001) > &PARM03
(PID.TID 0000.0001) > startTime =           0.,
(PID.TID 0000.0001) > endTime   =     3456000.,
(PID.TID 0000.0001) ># after 100 years of intergration, one gets a reasonable flow field
(PID.TID 0000.0001) >#endTime   = 3110400000.,
(PID.TID 0000.0001) > deltaTmom      =   1200.0,
(PID.TID 0000.0001) > deltaTtracer   = 172800.0,
(PID.TID 0000.0001) > deltaTfreesurf = 172800.0,
(PID.TID 0000.0001) > deltaTClock    = 172800.0,
(PID.TID 0000.0001) > pChkptFreq  = 3110400000.,
(PID.TID 0000.0001) > dumpFreq    = 3110400000.,
(PID.TID 0000.0001) > taveFreq    = 3110400000.,
(PID.TID 0000.0001) > monitorFreq =   1.,
(PID.TID 0000.0001) > periodicExternalForcing=.TRUE.,
(PID.TID 0000.0001) > externForcingPeriod=2592000.,
(PID.TID 0000.0001) > externForcingCycle=31104000.,
(PID.TID 0000.0001) > tauThetaClimRelax=5184000.0,
(PID.TID 0000.0001) > abEps=0.1,
(PID.TID 0000.0001) > &
(PID.TID 0000.0001) >
(PID.TID 0000.0001) ># Gridding parameters
(PID.TID 0000.0001) > &PARM04
(PID.TID 0000.0001) > usingCartesianGrid=.FALSE.,
(PID.TID 0000.0001) > usingSphericalPolarGrid=.TRUE.,
(PID.TID 0000.0001) > dXspacing=4.,
(PID.TID 0000.0001) > dYspacing=4.,
(PID.TID 0000.0001) > Ro_SeaLevel=53023122.566084,
(PID.TID 0000.0001) > groundAtK1=.TRUE.,
(PID.TID 0000.0001) > delR=7103300.720021, 6570548.440790, 6041670.010249,
(PID.TID 0000.0001) >      5516436.666057, 4994602.034410, 4475903.435290,
(PID.TID 0000.0001) >      3960063.245801, 3446790.312651, 2935781.405664,
(PID.TID 0000.0001) >      2426722.705046, 1919291.315988, 1413156.804970,
(PID.TID 0000.0001) >      1008846.750166,  705919.025481,  504089.693499,
(PID.TID 0000.0001) > phiMin=-80.,
(PID.TID 0000.0001) > &
(PID.TID 0000.0001) >
(PID.TID 0000.0001) ># Input datasets
(PID.TID 0000.0001) > &PARM05
(PID.TID 0000.0001) > topoFile       ='topog.bin',
(PID.TID 0000.0001) > pLoadFile      ='deltageopotjmd95.bin',
(PID.TID 0000.0001) > hydrogThetaFile='lev_t.bin',
(PID.TID 0000.0001) > hydrogSaltFile ='lev_s.bin',
(PID.TID 0000.0001) > zonalWindFile  ='trenberth_taux.bin',
(PID.TID 0000.0001) > meridWindFile  ='trenberth_tauy.bin',
(PID.TID 0000.0001) > thetaClimFile  ='lev_sst.bin',
(PID.TID 0000.0001) >#saltClimFile   ='lev_sss.bin',
(PID.TID 0000.0001) > surfQFile      ='shi_qnet.bin',
(PID.TID 0000.0001) > EmPmRFile      ='shi_empmr.bin',
(PID.TID 0000.0001) > &
(PID.TID 0000.0001) 
(PID.TID 0000.0001) S/R INI_PARMS ; read PARM01 : OK
(PID.TID 0000.0001) S/R INI_PARMS ; read PARM02 : OK
(PID.TID 0000.0001) S/R INI_PARMS ; read PARM03 : OK
(PID.TID 0000.0001) S/R INI_PARMS ; read PARM04 : OK
(PID.TID 0000.0001) S/R INI_PARMS ; read PARM05 : OK
(PID.TID 0000.0001) %MON XC_max                       =   3.5800000000000E+02
(PID.TID 0000.0001) %MON XC_min                       =   2.0000000000000E+00
(PID.TID 0000.0001) %MON XC_mean                      =   1.8000000000000E+02
(PID.TID 0000.0001) %MON XC_sd                        =   1.0391663325314E+02
(PID.TID 0000.0001) %MON XG_max                       =   3.5600000000000E+02
(PID.TID 0000.0001) %MON XG_min                       =   4.0000000000000E+00
(PID.TID 0000.0001) %MON XG_mean                      =   1.8000000000000E+02
(PID.TID 0000.0001) %MON XG_sd                        =   1.0276186062932E+02
(PID.TID 0000.0001) %MON DXC_max                      =   4.4443898815675E+05
(PID.TID 0000.0001) %MON DXC_min                      =   9.2460385861875E+04
(PID.TID 0000.0001) %MON DXC_mean                     =   3.1372497618153E+05
(PID.TID 0000.0001) %MON DXC_sd                       =   1.1216447457560E+05
(PID.TID 0000.0001) %MON DXF_max                      =   4.4443898815675E+05
(PID.TID 0000.0001) %MON DXF_min                      =   9.2460385861875E+04
(PID.TID 0000.0001) %MON DXF_mean                     =   3.1372497618153E+05
(PID.TID 0000.0001) %MON DXF_sd                       =   1.1216447457560E+05
(PID.TID 0000.0001) %MON DXG_max                      =   4.4470989340816E+05
(PID.TID 0000.0001) %MON DXG_min                      =   7.7223062580781E+04
(PID.TID 0000.0001) %MON DXG_mean                     =   3.1353386340260E+05
(PID.TID 0000.0001) %MON DXG_sd                       =   1.1256651772502E+05
(PID.TID 0000.0001) %MON DXV_max                      =   4.4470989340816E+05
(PID.TID 0000.0001) %MON DXV_min                      =   7.7223062580781E+04
(PID.TID 0000.0001) %MON DXV_mean                     =   3.1353386340260E+05
(PID.TID 0000.0001) %MON DXV_sd                       =   1.1256651772502E+05
(PID.TID 0000.0001) %MON YC_max                       =   7.8000000000000E+01
(PID.TID 0000.0001) %MON YC_min                       =  -7.8000000000000E+01
(PID.TID 0000.0001) %MON YC_mean                      =   0.0000000000000E+00
(PID.TID 0000.0001) %MON YC_sd                        =   4.6173585522461E+01
(PID.TID 0000.0001) %MON YG_max                       =   7.6000000000000E+01
(PID.TID 0000.0001) %MON YG_min                       =  -8.0000000000000E+01
(PID.TID 0000.0001) %MON YG_mean                      =  -2.0512820512821E+00
(PID.TID 0000.0001) %MON YG_sd                        =   4.6760682979564E+01
(PID.TID 0000.0001) %MON DYC_max                      =   4.4470989340816E+05
(PID.TID 0000.0001) %MON DYC_min                      =   4.4470989340816E+05
(PID.TID 0000.0001) %MON DYC_mean                     =   4.4470989340814E+05
(PID.TID 0000.0001) %MON DYC_sd                       =   1.9848812371492E-08
(PID.TID 0000.0001) %MON DYF_max                      =   4.4470989340816E+05
(PID.TID 0000.0001) %MON DYF_min                      =   4.4470989340816E+05
(PID.TID 0000.0001) %MON DYF_mean                     =   4.4470989340814E+05
(PID.TID 0000.0001) %MON DYF_sd                       =   1.9848812371492E-08
(PID.TID 0000.0001) %MON DYG_max                      =   4.4470989340816E+05
(PID.TID 0000.0001) %MON DYG_min                      =   4.4470989340816E+05
(PID.TID 0000.0001) %MON DYG_mean                     =   4.4470989340814E+05
(PID.TID 0000.0001) %MON DYG_sd                       =   1.9848812371492E-08
(PID.TID 0000.0001) %MON DYU_max                      =   4.4470989340816E+05
(PID.TID 0000.0001) %MON DYU_min                      =   4.4470989340816E+05
(PID.TID 0000.0001) %MON DYU_mean                     =   4.4470989340814E+05
(PID.TID 0000.0001) %MON DYU_sd                       =   1.9848812371492E-08
(PID.TID 0000.0001) %MON RA_max                       =   1.9760627980089E+11
(PID.TID 0000.0001) %MON RA_min                       =   4.1109698667291E+10
(PID.TID 0000.0001) %MON RA_mean                      =   1.3948826965197E+11
(PID.TID 0000.0001) %MON RA_sd                        =   4.9870522472902E+10
(PID.TID 0000.0001) %MON RAW_max                      =   1.9760627980089E+11
(PID.TID 0000.0001) %MON RAW_min                      =   4.1109698667291E+10
(PID.TID 0000.0001) %MON RAW_mean                     =   1.3948826965197E+11
(PID.TID 0000.0001) %MON RAW_sd                       =   4.9870522472902E+10
(PID.TID 0000.0001) %MON RAS_max                      =   1.9772672958215E+11
(PID.TID 0000.0001) %MON RAS_min                      =   3.4334886267982E+10
(PID.TID 0000.0001) %MON RAS_mean                     =   1.3940329716694E+11
(PID.TID 0000.0001) %MON RAS_sd                       =   5.0049278732354E+10
(PID.TID 0000.0001) %MON RAZ_max                      =   1.9772672958215E+11
(PID.TID 0000.0001) %MON RAZ_min                      =   3.4334886267982E+10
(PID.TID 0000.0001) %MON RAZ_mean                     =   1.3940329716694E+11
(PID.TID 0000.0001) %MON RAZ_sd                       =   5.0049278732354E+10
(PID.TID 0000.0001) check_eos: Check the equation of state: Type JMD95P
(PID.TID 0000.0001) rho(35.5 PSU, 3.0 degC, 300. bar) = 1041.83267    -1.00000
(PID.TID 0000.0001) rho(find_rho)                     = 1041.83267 23069.54233
(PID.TID 0000.0001) rho(find_rho_scalar)              = 1041.83267     0.00000
(PID.TID 0000.0001) rho(35.0 PSU,20.0 degC, 200. bar) = 1033.21339    -1.00000
(PID.TID 0000.0001) rho(find_rho)                     = 1033.21283 24455.23234
(PID.TID 0000.0001) rho(find_rho_scalar)              = 1033.21283     0.00000
(PID.TID 0000.0001) rho(35.0 PSU,25.0 degC, 200. bar) = 1031.65423    -1.00000
(PID.TID 0000.0001) rho(find_rho)                     = 1031.65212 24831.95470
(PID.TID 0000.0001) rho(find_rho_scalar)              = 1031.65212     0.00000
(PID.TID 0000.0001) rho(20.0 PSU,20.0 degC, 100. bar) = 1017.72674    -1.00000
(PID.TID 0000.0001) rho(find_rho)                     = 1017.72885 23305.70425
(PID.TID 0000.0001) rho(find_rho_scalar)              = 1017.72885     0.00000
(PID.TID 0000.0001) rho(40.0 PSU,12.0 degC, 800. bar) = 1062.92826    -1.00000
(PID.TID 0000.0001) rho(find_rho)                     = 1062.93765 26197.90058
(PID.TID 0000.0001) rho(find_rho_scalar)              = 1062.93765     0.00000
(PID.TID 0000.0001) rho( 0.0 PSU, 5.0 degC,   0. bar) =  999.96675 20337.80375
(PID.TID 0000.0001) rho(find_rho)                     =  999.96675 20340.00932
(PID.TID 0000.0001) rho(find_rho_scalar)              =  999.96675     0.00000
(PID.TID 0000.0001) rho( 0.0 PSU,25.0 degC,   0. bar) =  997.04796 22100.72106
(PID.TID 0000.0001) rho(find_rho)                     =  997.04795 22338.16845
(PID.TID 0000.0001) rho(find_rho_scalar)              =  997.04795     0.00000
(PID.TID 0000.0001) rho(35.0 PSU, 5.0 degC,   0. bar) = 1027.67547 22185.93358
(PID.TID 0000.0001) rho(find_rho)                     = 1027.67546 22228.20795
(PID.TID 0000.0001) rho(find_rho_scalar)              = 1027.67546     0.00000
(PID.TID 0000.0001) rho(35.0 PSU,25.0 degC,   0. bar) = 1023.34306 23726.34949
(PID.TID 0000.0001) rho(find_rho)                     = 1023.34305 24093.88755
(PID.TID 0000.0001) rho(find_rho_scalar)              = 1023.34305     0.00000
(PID.TID 0000.0001) rho( 0.0 PSU, 4.0 degC,1000. bar) = 1044.12802 23643.52599
(PID.TID 0000.0001) rho(find_rho)                     = 1044.12328 23650.33430
(PID.TID 0000.0001) rho(find_rho_scalar)              = 1044.12328     0.00000
(PID.TID 0000.0001) rho( 0.0 PSU,22.8 degC,1000. bar) = 1037.90204 25405.09717
(PID.TID 0000.0001) rho(find_rho)                     = 1037.89958 25740.15017
(PID.TID 0000.0001) rho(find_rho_scalar)              = 1037.89958     0.00000
(PID.TID 0000.0001) rho(35.0 PSU, 3.6 degC,1000. bar) = 1069.48914 25577.49819
(PID.TID 0000.0001) rho(find_rho)                     = 1069.48678 25670.45688
(PID.TID 0000.0001) rho(find_rho_scalar)              = 1069.48678     0.00000
(PID.TID 0000.0001) rho(35.0 PSU,22.6 degC,1000. bar) = 1062.53817 27108.94504
(PID.TID 0000.0001) rho(find_rho)                     = 1062.53756 27602.20923
(PID.TID 0000.0001) rho(find_rho_scalar)              = 1062.53756     0.00000
(PID.TID 0000.0001) end check the equation of state
(PID.TID 0000.0001)  MDSREADFIELD: opening global file: topog.bin
(PID.TID 0000.0001) // =======================================================
(PID.TID 0000.0001) // Field Model R_low (ini_masks_etc) at iteration          1
(PID.TID 0000.0001) // CMIN =          1.008622348308563E-06
(PID.TID 0000.0001) // CMAX =          1.008622348308563E-06
(PID.TID 0000.0001) // CINT =          0.000000000000000E+00
(PID.TID 0000.0001) // SYMBOLS (CMIN->CMAX): -abcdefghijklmnopqrstuvwxyz+
(PID.TID 0000.0001) //                  0.0: .
(PID.TID 0000.0001) // RANGE I (Lo:Hi:Step):(  -2:  93:   1)
(PID.TID 0000.0001) // RANGE J (Lo:Hi:Step):(  43:  -2:  -1)
(PID.TID 0000.0001) // RANGE K (Lo:Hi:Step):(   1:   1:   1)
(PID.TID 0000.0001) // =======================================================
(PID.TID 0000.0001) K =   1
(PID.TID 0000.0001) //                I=7       I=17      I=27      I=37      I=47      I=57      I=67      I=77      I=87
(PID.TID 0000.0001) // |--J--|**0123456|890123456|890123456|890123456|890123456|890123456|890123456|890123456|890123456|890123
(PID.TID 0000.0001) //     43 ------------------------------------------------------------------------------------------------
(PID.TID 0000.0001) //     42 ------------------------------------------------------------------------------------------------
(PID.TID 0000.0001) //     41 ------------------------------------------------------------------------------------------------
(PID.TID 0000.0001) //     40 ------------------------------------------------------------------------------------------------
(PID.TID 0000.0001) //     39 ------------------------------------------------------------------------------------------------
(PID.TID 0000.0001) //     38 ------------------------------------------------------------------------------------------------
(PID.TID 0000.0001) //     37 ------------------------------------------------------------------------------------------------
(PID.TID 0000.0001) //     36 ------------------------------------------------------------------------------------------------
(PID.TID 0000.0001) //     35 ------------------------------------------------------------------------------------------------
(PID.TID 0000.0001) //     34 ------------------------------------------------------------------------------------------------
(PID.TID 0000.0001) //     33 ------------------------------------------------------------------------------------------------
(PID.TID 0000.0001) //     32 ------------------------------------------------------------------------------------------------
(PID.TID 0000.0001) //     31 ------------------------------------------------------------------------------------------------
(PID.TID 0000.0001) //     30 ------------------------------------------------------------------------------------------------
(PID.TID 0000.0001) //     29 ------------------------------------------------------------------------------------------------
(PID.TID 0000.0001) //     28 ------------------------------------------------------------------------------------------------
(PID.TID 0000.0001) //     27 ------------------------------------------------------------------------------------------------
(PID.TID 0000.0001) //     26 ------------------------------------------------------------------------------------------------
(PID.TID 0000.0001) //     25 ------------------------------------------------------------------------------------------------
(PID.TID 0000.0001) //     24 ------------------------------------------------------------------------------------------------
(PID.TID 0000.0001) //     23 ------------------------------------------------------------------------------------------------
(PID.TID 0000.0001) //     22 ------------------------------------------------------------------------------------------------
(PID.TID 0000.0001) //     21 ------------------------------------------------------------------------------------------------
(PID.TID 0000.0001) //     20 ------------------------------------------------------------------------------------------------
(PID.TID 0000.0001) //     19 ------------------------------------------------------------------------------------------------
(PID.TID 0000.0001) //     18 ------------------------------------------------------------------------------------------------
(PID.TID 0000.0001) //     17 ------------------------------------------------------------------------------------------------
(PID.TID 0000.0001) //     16 ------------------------------------------------------------------------------------------------
(PID.TID 0000.0001) //     15 ------------------------------------------------------------------------------------------------
(PID.TID 0000.0001) //     14 ------------------------------------------------------------------------------------------------
(PID.TID 0000.0001) //     13 ------------------------------------------------------------------------------------------------
(PID.TID 0000.0001) //     12 ------------------------------------------------------------------------------------------------
(PID.TID 0000.0001) //     11 ------------------------------------------------------------------------------------------------
(PID.TID 0000.0001) //     10 ------------------------------------------------------------------------------------------------
(PID.TID 0000.0001) //      9 ------------------------------------------------------------------------------------------------
(PID.TID 0000.0001) //      8 ------------------------------------------------------------------------------------------------
(PID.TID 0000.0001) //      7 ------------------------------------------------------------------------------------------------
(PID.TID 0000.0001) //      6 ------------------------------------------------------------------------------------------------
(PID.TID 0000.0001) //      5 ------------------------------------------------------------------------------------------------
(PID.TID 0000.0001) //      4 ------------------------------------------------------------------------------------------------
(PID.TID 0000.0001) //      3 ------------------------------------------------------------------------------------------------
(PID.TID 0000.0001) //      2 ------------------------------------------------------------------------------------------------
(PID.TID 0000.0001) //      1 ------------------------------------------------------------------------------------------------
(PID.TID 0000.0001) //      0 ------------------------------------------------------------------------------------------------
(PID.TID 0000.0001) //     -1 ------------------------------------------------------------------------------------------------
(PID.TID 0000.0001) //     -2 ------------------------------------------------------------------------------------------------
(PID.TID 0000.0001) // =======================================================
(PID.TID 0000.0001) // END OF FIELD                                          =
(PID.TID 0000.0001) // =======================================================
(PID.TID 0000.0001) 
(PID.TID 0000.0001) // =======================================================
(PID.TID 0000.0001) // Field Model Ro_surf (ini_masks_etc) at iteration          1
(PID.TID 0000.0001) // CMIN =          1.008622348308563E-06
(PID.TID 0000.0001) // CMAX =          5.302312256608400E+07
(PID.TID 0000.0001) // CINT =          1.963819354299370E+06
(PID.TID 0000.0001) // SYMBOLS (CMIN->CMAX): -abcdefghijklmnopqrstuvwxyz+
(PID.TID 0000.0001) //                  0.0: .
(PID.TID 0000.0001) // RANGE I (Lo:Hi:Step):(  -2:  93:   1)
(PID.TID 0000.0001) // RANGE J (Lo:Hi:Step):(  43:  -2:  -1)
(PID.TID 0000.0001) // RANGE K (Lo:Hi:Step):(   1:   1:   1)
(PID.TID 0000.0001) // =======================================================
(PID.TID 0000.0001) K =   1
(PID.TID 0000.0001) //                I=7       I=17      I=27      I=37      I=47      I=57      I=67      I=77      I=87
(PID.TID 0000.0001) // |--J--|**0123456|890123456|890123456|890123456|890123456|890123456|890123456|890123456|890123456|890123
(PID.TID 0000.0001) //     43 ------------------------------------------------------------------------------------------------
(PID.TID 0000.0001) //     42 ---------------------------------------------bbcdnttwwwttttqnnlfddc--abcc-----ccbcltttttba------
(PID.TID 0000.0001) //     41 ------------------------------------------------------------------------------------------------
(PID.TID 0000.0001) //     40 ainnllaa-aaaaaaaaaaaaa------------------------------------------------------------------aaainnll
(PID.TID 0000.0001) //     39 fgnnllibbaaaaaaaa---aa-----------------------------------------------------bdda--------abffgnnll
(PID.TID 0000.0001) //     38 gnllllibbaaaaaaa-----------------------------------------------------------bddca------bccfgnllll
(PID.TID 0000.0001) //     37 gnnnga------------------------------------------------------------------aa---bca---bggc--agnnnga
(PID.TID 0000.0001) //     36 cfgga-----------------------------------------nnaa--------------------aaaaaaabnnn-bllfggffcfgga-
(PID.TID 0000.0001) //     35 daaaa---------------------------------aaaa--iinnqqa---atttn-----------aaa----annqqqnglllgddaaaa-
(PID.TID 0000.0001) //     34 a-------------------------------------affc-tticcfab-wwwttttn------------------anqttqqqtttna-----
(PID.TID 0000.0001) //     33 da-------------------------------------ffa+++t+++++++++wwwtqna-----------------aifwwtnttttda----
(PID.TID 0000.0001) //     32 na-------------------------------------ag++++t++++++++++wwttnn----------------aaatwttqltttna----
(PID.TID 0000.0001) //     31 n--------------------------------------++++++w++++++++++wwwtqn--------------iw++twwwtiltwwn-----
(PID.TID 0000.0001) //     30 q-------------------------------------t++++w++w+++++++++++++ww------------at++++twwwlgqtwwq-----
(PID.TID 0000.0001) //     29 q-----------------------------------gf++++t+++tqt+++++++++++wwt-----------w++w+++wtnqq++wtq-----
(PID.TID 0000.0001) //     28 a---------------------------------actn+++++++++++++++++++wwwwwtq---------iw++++++wntww++wqa-----
(PID.TID 0000.0001) //     27 -----------------cc--------------aftttlt++++++++w+nnw+++wwwwwwttt---aaac-iw++++++qt+++++t-------
(PID.TID 0000.0001) //     26 -----------------cnn-----------afw+++wl+++++++++++qwtn++++++wwtttqg-aa-ii-c++++++tw++++wq-------
(PID.TID 0000.0001) //     25 -----------------qttq---lla---atfw+++wl+++ww++qqtnt+++++++++wwtttqnn---iifnac+++wqw++wwqq-------
(PID.TID 0000.0001) //     24 ---------------cntwwtg-qqqa---ftt-++twn+++++++++++++++++++wwwwwttqnqqqf-afnnddwwwtw++++wt-------
(PID.TID 0000.0001) //     23 ---------------dttwwtl-ttqd---fff--tqtq++++ttw+++++w++++++wwwwwttqqqqqql----bbqwwwt++++ww-------
(PID.TID 0000.0001) //     22 igii-----------wwwqttgnttqq---bb-dlqwwlltwwwwt++++++wt+w++wwwwwwtttqqqqii------dwwwttwwtwwigii--
(PID.TID 0000.0001) //     21 w++wqi--------nwwwwqtiwwwqqb-----dltwwqtttnwwt++++++wqwwwwwwwwwttttqnnill--------twwtqttwww++wqi
(PID.TID 0000.0001) //     20 w++wwi-------nwwwwwtqwwwwqww------b-fqqqgiltttt+++++++wwwwwwwwwwtttqttqqn---------ntt+++ttw++wwi
(PID.TID 0000.0001) //     19 tww++t-------qwwlittl+++qwwwwd---aba-----iannww++++t++++wwwwwwwwttqtttttt-----------w+++wqtww++t
(PID.TID 0000.0001) //     18 tw+++w-------qtnttfqq+++qwww++w+qfaa---iiblntwwwwtwtq+++wwtwwwwwtqtttttwwa----------w+++wqtw+++w
(PID.TID 0000.0001) //     17 tw+++w-------q-twwdqt+++l+++++++qf-----iilnninnnltwww++wwwttttttnqttqtwwwq---------tw+++wqtw+++w
(PID.TID 0000.0001) //     16 tw+++w------gn-wwtnntw++i++++++nf-------flnnfnnndf+++wwqflnttttqntttttwwwqt--------it+++wqtw+++w
(PID.TID 0000.0001) //     15 tw++wlb----aqq-wwwttnwwwnw+++++f---------lggdllnf++++wwwwwtqtttqqtttttwwqttt------atw+++wqtw++wl
(PID.TID 0000.0001) //     14 tw++nwn----dwwi+++tqqqtwnw++w+tb---------ttgglttg++++++wwtwttqqqnqttqqqqtttt-----aqtw+++wntw++nw
(PID.TID 0000.0001) //     13 twwn++t----nwwl+++qwwtqttliiw++n---------wwggittg++++++++wwwtttqqnqqttqttttl----aqttlwwwtntwwn++
(PID.TID 0000.0001) //     12 ttt+++wdaqttwwnwntwwwtntqttww++wt+++a----wwigiilw+++++++++wwqtttqqqqqtttttt-----qwwwwttttnttt+++
(PID.TID 0000.0001) //     11 qtw+++w++qtwwwnnt++wwtlttttwww++++++++--wwwwng-nw+w+++++++++wwwtqntttqqtttt----n+++++wwtqnqtw+++
(PID.TID 0000.0001) //     10 qtw++ww+w++wtiqqt++wwtqnnnqttwwww+++++w-wwwwtd-nbiw+++++++++wwwtqnttwwttqtq--ad++++++wwttnqtw++w
(PID.TID 0000.0001) //      9 nttwwwww+++llglntwtwtqqqttnnnttwwwwwwwwnwwwwt-fbt+++++++++++wwwtnqttwwwttqf-aad++++++wwwtqnttwww
(PID.TID 0000.0001) //      8 ntttqqqw++twwttwwwwfblqttttttnqqqttqqqtwtwwticfw++++++wwwwwwwttqnttwwwwwwta-aacttn++wtwwwtntttqq
(PID.TID 0000.0001) //      7 tninnwwqqt++wnw++wwtgcqtwwwttwwwwwwwttnttwwntw++++++wwwwtttqtqnnttwww+++wwt-aaaintgfqtqwwwtninnw
(PID.TID 0000.0001) //      6 ww++++++++++++++++wwwnggwwwwwwwwwwwwwwtqqqqttw++++wwwtqnnqnwtww+++w+w+++wwwtqqqqtilnniwtqtww++++
(PID.TID 0000.0001) //      5 ++++++++++++++++++wwwttttwwwwwwwwwwwwwtqqqlnlwwwwtttnnnqtwwww++++++++w+wwwwtqqqgitwwwwww++++++++
(PID.TID 0000.0001) //      4 +++tw++++++wwwqttttqqqttqqlbdnnllqqlnqqqqqnnnlnqlnnntttwwwwww+++++++wwwwwttnb--cqtwwwwww+++++tw+
(PID.TID 0000.0001) //      3 tttttilqqqdcc----------------------------cclgnqqqqttwwwwwwwwwtttttwwwwttqqbb--ciqtwwwwwwwwttttti
(PID.TID 0000.0001) //      2 ---------------------------------------------bbcdnttwwwttttqnnlfddc--abcc-----ccbcltttttba------
(PID.TID 0000.0001) //      1 ------------------------------------------------------------------------------------------------
(PID.TID 0000.0001) //      0 ainnllaa-aaaaaaaaaaaaa------------------------------------------------------------------aaainnll
(PID.TID 0000.0001) //     -1 fgnnllibbaaaaaaaa---aa-----------------------------------------------------bdda--------abffgnnll
(PID.TID 0000.0001) //     -2 ------------------------------------------------------------------------------------------------
(PID.TID 0000.0001) // =======================================================
(PID.TID 0000.0001) // END OF FIELD                                          =
(PID.TID 0000.0001) // =======================================================
(PID.TID 0000.0001) 
(PID.TID 0000.0001) // =======================================================
(PID.TID 0000.0001) // Field hFacC at iteration          1
(PID.TID 0000.0001) // CMIN =          1.000000000000000E+00
(PID.TID 0000.0001) // CMAX =          1.000000000000000E+00
(PID.TID 0000.0001) // CINT =          0.000000000000000E+00
(PID.TID 0000.0001) // SYMBOLS (CMIN->CMAX): -abcdefghijklmnopqrstuvwxyz+
(PID.TID 0000.0001) //                  0.0: .
(PID.TID 0000.0001) // RANGE I (Lo:Hi:Step):(  -2:  93:   1)
(PID.TID 0000.0001) // RANGE J (Lo:Hi:Step):(  43:  -2:  -1)
(PID.TID 0000.0001) // RANGE K (Lo:Hi:Step):(   1:   1:   1)
(PID.TID 0000.0001) // =======================================================
(PID.TID 0000.0001) K =   1
(PID.TID 0000.0001) //                I=7       I=17      I=27      I=37      I=47      I=57      I=67      I=77      I=87
(PID.TID 0000.0001) // |--J--|**0123456|890123456|890123456|890123456|890123456|890123456|890123456|890123456|890123456|890123
(PID.TID 0000.0001) //     43 ................................................................................................
(PID.TID 0000.0001) //     42 ................................................................................................
(PID.TID 0000.0001) //     41 ................................................................................................
(PID.TID 0000.0001) //     40 ................................................................................................
(PID.TID 0000.0001) //     39 ................................................................................................
(PID.TID 0000.0001) //     38 ................................................................................................
(PID.TID 0000.0001) //     37 ................................................................................................
(PID.TID 0000.0001) //     36 ................................................................................................
(PID.TID 0000.0001) //     35 ................................................................................................
(PID.TID 0000.0001) //     34 ................................................................................................
(PID.TID 0000.0001) //     33 ..........................................---.---------.........................................
(PID.TID 0000.0001) //     32 .........................................----.----------........................................
(PID.TID 0000.0001) //     31 .......................................------.----------......................--................
(PID.TID 0000.0001) //     30 .......................................----.--.-------------................----................
(PID.TID 0000.0001) //     29 ......................................----.---...-----------...............--.---.....--........
(PID.TID 0000.0001) //     28 ......................................-------------------..................------.....--........
(PID.TID 0000.0001) //     27 ........................................--------.-...---...................------..-----........
(PID.TID 0000.0001) //     26 ..................................---..-----------....------...............------..----.........
(PID.TID 0000.0001) //     25 ..................................---..---..--.....---------.................---...--...........
(PID.TID 0000.0001) //     24 ..................................--...-------------------.........................----.........
(PID.TID 0000.0001) //     23 .......................................----...-----.------.........................----.........
(PID.TID 0000.0001) //     22 ..............................................------..-.--......................................
(PID.TID 0000.0001) //     21 .--...........................................------.......................................--...
(PID.TID 0000.0001) //     20 .--............................................-------...............................---...--...
(PID.TID 0000.0001) //     19 ...--................---.......................----.----.............................---.....--.
(PID.TID 0000.0001) //     18 ..---................---....--.-.....................---.............................---....---.
(PID.TID 0000.0001) //     17 ..---................---.-------.....................--..............................---....---.
(PID.TID 0000.0001) //     16 ..---.................--.------...................---................................---....---.
(PID.TID 0000.0001) //     15 ..--......................-----..................----................................---....--..
(PID.TID 0000.0001) //     14 ..--...........---........--.-...................------..............................---....--..
(PID.TID 0000.0001) //     13 ....--.........---...........--..................--------.....................................--
(PID.TID 0000.0001) //     12 ...---.......................--..---.............---------...................................---
(PID.TID 0000.0001) //     11 ...---.--........--...........--------...........-.---------....................-----........---
(PID.TID 0000.0001) //     10 ...--..-.--......--..............-----.............---------...................------........--.
(PID.TID 0000.0001) //      9 ........---......................................-----------...................------...........
(PID.TID 0000.0001) //      8 ........--......................................------............................--............
(PID.TID 0000.0001) //      7 ..........--...--.............................------.................---........................
(PID.TID 0000.0001) //      6 ..----------------............................----.............---.-.---....................----
(PID.TID 0000.0001) //      5 ------------------...........................................--------.-.................--------
(PID.TID 0000.0001) //      4 ---..------..................................................-------....................-----..-
(PID.TID 0000.0001) //      3 ................................................................................................
(PID.TID 0000.0001) //      2 ................................................................................................
(PID.TID 0000.0001) //      1 ................................................................................................
(PID.TID 0000.0001) //      0 ................................................................................................
(PID.TID 0000.0001) //     -1 ................................................................................................
(PID.TID 0000.0001) //     -2 ................................................................................................
(PID.TID 0000.0001) // =======================================================
(PID.TID 0000.0001) // END OF FIELD                                          =
(PID.TID 0000.0001) // =======================================================
(PID.TID 0000.0001) 
(PID.TID 0000.0001) // =======================================================
(PID.TID 0000.0001) // Field hFacW at iteration          1
(PID.TID 0000.0001) // CMIN =          1.000000000000000E+00
(PID.TID 0000.0001) // CMAX =          1.000000000000000E+00
(PID.TID 0000.0001) // CINT =          0.000000000000000E+00
(PID.TID 0000.0001) // SYMBOLS (CMIN->CMAX): -abcdefghijklmnopqrstuvwxyz+
(PID.TID 0000.0001) //                  0.0: .
(PID.TID 0000.0001) // RANGE I (Lo:Hi:Step):(  -2:  93:   1)
(PID.TID 0000.0001) // RANGE J (Lo:Hi:Step):(  43:  -2:  -1)
(PID.TID 0000.0001) // RANGE K (Lo:Hi:Step):(   1:   1:   1)
(PID.TID 0000.0001) // =======================================================
(PID.TID 0000.0001) K =   1
(PID.TID 0000.0001) //                I=7       I=17      I=27      I=37      I=47      I=57      I=67      I=77      I=87
(PID.TID 0000.0001) // |--J--|**0123456|890123456|890123456|890123456|890123456|890123456|890123456|890123456|890123456|890123
(PID.TID 0000.0001) //     43 ................................................................................................
(PID.TID 0000.0001) //     42 ................................................................................................
(PID.TID 0000.0001) //     41 ................................................................................................
(PID.TID 0000.0001) //     40 ................................................................................................
(PID.TID 0000.0001) //     39 ................................................................................................
(PID.TID 0000.0001) //     38 ................................................................................................
(PID.TID 0000.0001) //     37 ................................................................................................
(PID.TID 0000.0001) //     36 ................................................................................................
(PID.TID 0000.0001) //     35 ................................................................................................
(PID.TID 0000.0001) //     34 ................................................................................................
(PID.TID 0000.0001) //     33 ...........................................--..--------.........................................
(PID.TID 0000.0001) //     32 ..........................................---..---------........................................
(PID.TID 0000.0001) //     31 ........................................-----..---------.......................-................
(PID.TID 0000.0001) //     30 ........................................---..-..------------.................---................
(PID.TID 0000.0001) //     29 .......................................---..--....----------................-..--......-........
(PID.TID 0000.0001) //     28 .......................................------------------...................-----......-........
(PID.TID 0000.0001) //     27 .........................................-------......--....................-----...----........
(PID.TID 0000.0001) //     26 ...................................--...----------.....-----................-----...---.........
(PID.TID 0000.0001) //     25 ...................................--...--...-......--------..................--....-...........
(PID.TID 0000.0001) //     24 ...................................-....------------------..........................---.........
(PID.TID 0000.0001) //     23 ........................................---....----..-----..........................---.........
(PID.TID 0000.0001) //     22 ...............................................-----.....-......................................
(PID.TID 0000.0001) //     21 ..-............................................-----........................................-...
(PID.TID 0000.0001) //     20 ..-.............................................------................................--....-...
(PID.TID 0000.0001) //     19 ....-.................--........................---..---..............................--......-.
(PID.TID 0000.0001) //     18 ...--.................--.....-........................--..............................--.....--.
(PID.TID 0000.0001) //     17 ...--.................--..------......................-...............................--.....--.
(PID.TID 0000.0001) //     16 ...--..................-..-----....................--.................................--.....--.
(PID.TID 0000.0001) //     15 ...-.......................----...................---.................................--.....-..
(PID.TID 0000.0001) //     14 ...-............--.........-......................-----...............................--.....-..
(PID.TID 0000.0001) //     13 .....-..........--............-...................-------......................................-
(PID.TID 0000.0001) //     12 ....--........................-...--..............--------....................................--
(PID.TID 0000.0001) //     11 ....--..-.........-............-------..............--------.....................----.........--
(PID.TID 0000.0001) //     10 ....-.....-.......-...............----..............--------....................-----.........-.
(PID.TID 0000.0001) //      9 .........--.......................................----------....................-----...........
(PID.TID 0000.0001) //      8 .........-.......................................-----.............................-............
(PID.TID 0000.0001) //      7 ...........-....-..............................-----..................--........................
(PID.TID 0000.0001) //      6 ...---------------.............................---..............--....--.....................---
(PID.TID 0000.0001) //      5 ------------------............................................-------....................-------
(PID.TID 0000.0001) //      4 ---...-----...................................................------.....................----...
(PID.TID 0000.0001) //      3 ................................................................................................
(PID.TID 0000.0001) //      2 ................................................................................................
(PID.TID 0000.0001) //      1 ................................................................................................
(PID.TID 0000.0001) //      0 ................................................................................................
(PID.TID 0000.0001) //     -1 ................................................................................................
(PID.TID 0000.0001) //     -2 ................................................................................................
(PID.TID 0000.0001) // =======================================================
(PID.TID 0000.0001) // END OF FIELD                                          =
(PID.TID 0000.0001) // =======================================================
(PID.TID 0000.0001) 
(PID.TID 0000.0001) // =======================================================
(PID.TID 0000.0001) // Field hFacS at iteration          1
(PID.TID 0000.0001) // CMIN =          1.000000000000000E+00
(PID.TID 0000.0001) // CMAX =          1.000000000000000E+00
(PID.TID 0000.0001) // CINT =          0.000000000000000E+00
(PID.TID 0000.0001) // SYMBOLS (CMIN->CMAX): -abcdefghijklmnopqrstuvwxyz+
(PID.TID 0000.0001) //                  0.0: .
(PID.TID 0000.0001) // RANGE I (Lo:Hi:Step):(  -2:  93:   1)
(PID.TID 0000.0001) // RANGE J (Lo:Hi:Step):(  43:  -2:  -1)
(PID.TID 0000.0001) // RANGE K (Lo:Hi:Step):(   1:   1:   1)
(PID.TID 0000.0001) // =======================================================
(PID.TID 0000.0001) K =   1
(PID.TID 0000.0001) //                I=7       I=17      I=27      I=37      I=47      I=57      I=67      I=77      I=87
(PID.TID 0000.0001) // |--J--|**0123456|890123456|890123456|890123456|890123456|890123456|890123456|890123456|890123456|890123
(PID.TID 0000.0001) //     43 ................................................................................................
(PID.TID 0000.0001) //     42 ................................................................................................
(PID.TID 0000.0001) //     41 ................................................................................................
(PID.TID 0000.0001) //     40 ................................................................................................
(PID.TID 0000.0001) //     39 ................................................................................................
(PID.TID 0000.0001) //     38 ................................................................................................
(PID.TID 0000.0001) //     37 ................................................................................................
(PID.TID 0000.0001) //     36 ................................................................................................
(PID.TID 0000.0001) //     35 ................................................................................................
(PID.TID 0000.0001) //     34 ................................................................................................
(PID.TID 0000.0001) //     33 ..........................................---.---------.........................................
(PID.TID 0000.0001) //     32 .........................................----.----------........................................
(PID.TID 0000.0001) //     31 .......................................----.-..---------......................--................
(PID.TID 0000.0001) //     30 .......................................---..--...-----------................-.--................
(PID.TID 0000.0001) //     29 ......................................----.---...--------..................--.---.....--........
(PID.TID 0000.0001) //     28 ........................................--------.-...---...................------.....--........
(PID.TID 0000.0001) //     27 ........................................--------.-....--...................------..----.........
(PID.TID 0000.0001) //     26 ..................................---..---..--........------.................---...--...........
(PID.TID 0000.0001) //     25 ..................................--...---..--.....-------.........................--...........
(PID.TID 0000.0001) //     24 .......................................----...-----.------.........................----.........
(PID.TID 0000.0001) //     23 ..............................................-----...-.--......................................
(PID.TID 0000.0001) //     22 ..............................................------............................................
(PID.TID 0000.0001) //     21 .--............................................-----.......................................--...
(PID.TID 0000.0001) //     20 ...............................................----.--...............................---........
(PID.TID 0000.0001) //     19 ...--................---.............................---.............................---.....--.
(PID.TID 0000.0001) //     18 ..---................---....--.-.....................--..............................---....---.
(PID.TID 0000.0001) //     17 ..---.................--.------......................................................---....---.
(PID.TID 0000.0001) //     16 ..--......................-----...................---................................---....--..
(PID.TID 0000.0001) //     15 ..--......................--.-...................----................................---....--..
(PID.TID 0000.0001) //     14 ...............---...........-...................------.........................................
(PID.TID 0000.0001) //     13 ....--.......................--..................--------.....................................--
(PID.TID 0000.0001) //     12 ...---........................-..---.............-.-------...................................---
(PID.TID 0000.0001) //     11 ...--..-.........--..............-----.............---------....................-----........--.
(PID.TID 0000.0001) //     10 .........--........................................---------...................------...........
(PID.TID 0000.0001) //      9 ........--.......................................-----............................--............
(PID.TID 0000.0001) //      8 ................................................----............................................
(PID.TID 0000.0001) //      7 ..........--...--.............................----...................---........................
(PID.TID 0000.0001) //      6 ..----------------.............................................---.-..-.....................----
(PID.TID 0000.0001) //      5 ---..------..................................................-------....................-----..-
(PID.TID 0000.0001) //      4 ................................................................................................
(PID.TID 0000.0001) //      3 ................................................................................................
(PID.TID 0000.0001) //      2 ................................................................................................
(PID.TID 0000.0001) //      1 ................................................................................................
(PID.TID 0000.0001) //      0 ................................................................................................
(PID.TID 0000.0001) //     -1 ................................................................................................
(PID.TID 0000.0001) //     -2 ................................................................................................
(PID.TID 0000.0001) // =======================================================
(PID.TID 0000.0001) // END OF FIELD                                          =
(PID.TID 0000.0001) // =======================================================
(PID.TID 0000.0001) 
(PID.TID 0000.0001) %MON fCori_max                    =   1.4226580169407E-04
(PID.TID 0000.0001) %MON fCori_min                    =  -1.4226580169407E-04
(PID.TID 0000.0001) %MON fCori_mean                   =   7.5291817533716E-23
(PID.TID 0000.0001) %MON fCori_sd                     =   9.6335367303778E-05
(PID.TID 0000.0001) %MON fCoriG_max                   =   1.4112379284621E-04
(PID.TID 0000.0001) %MON fCoriG_min                   =  -1.4323448157692E-04
(PID.TID 0000.0001) %MON fCoriG_mean                  =  -3.6726790147928E-06
(PID.TID 0000.0001) %MON fCoriG_sd                    =   9.7510077443652E-05
(PID.TID 0000.0001) %MON fCoriCos_max                 =   1.4535550371427E-04
(PID.TID 0000.0001) %MON fCoriCos_min                 =   3.0239529651320E-05
(PID.TID 0000.0001) %MON fCoriCos_mean                =   1.0260497651149E-04
(PID.TID 0000.0001) %MON fCoriCos_sd                  =   3.6683828681187E-05
(PID.TID 0000.0001)  PACKAGES_BOOT: opening data.pkg
(PID.TID 0000.0001)  OPEN_COPY_DATA_FILE: opening file data.pkg
(PID.TID 0000.0001) // =======================================================
(PID.TID 0000.0001) // Parameter file "data.pkg"
(PID.TID 0000.0001) // =======================================================
(PID.TID 0000.0001) ># Packages
(PID.TID 0000.0001) > &PACKAGES
(PID.TID 0000.0001) > &
(PID.TID 0000.0001) 
(PID.TID 0000.0001)  PACKAGES_BOOT: finished reading data.pkg
(PID.TID 0000.0001) 
(PID.TID 0000.0001) // ===================================
(PID.TID 0000.0001) // GAD parameters :
(PID.TID 0000.0001) // ===================================
(PID.TID 0000.0001) tempAdvScheme =   /* Temp. advection scheme selector */
(PID.TID 0000.0001)                       2
(PID.TID 0000.0001)     ;
(PID.TID 0000.0001) tempMultiDimAdvec =   /* use Muti-Dim Advec method for Temp */
(PID.TID 0000.0001)                   F
(PID.TID 0000.0001)     ;
(PID.TID 0000.0001) tempAdamsBashforth =   /* use Adams-Bashforth time-stepping for Temp */
(PID.TID 0000.0001)                   T
(PID.TID 0000.0001)     ;
(PID.TID 0000.0001) saltAdvScheme =   /* Salt. advection scheme selector */
(PID.TID 0000.0001)                       2
(PID.TID 0000.0001)     ;
(PID.TID 0000.0001) saltMultiDimAdvec =   /* use Muti-Dim Advec method for Salt */
(PID.TID 0000.0001)                   F
(PID.TID 0000.0001)     ;
(PID.TID 0000.0001) saltAdamsBashforth =   /* use Adams-Bashforth time-stepping for Salt */
(PID.TID 0000.0001)                   T
(PID.TID 0000.0001)     ;
(PID.TID 0000.0001) // ===================================
(PID.TID 0000.0001) // CG2D normalisation factor =          0.6002578945994698667540502E-08
(PID.TID 0000.0001) 
(PID.TID 0000.0001) CONFIG_CHECK: OK
(PID.TID 0000.0001) // =======================================================
(PID.TID 0000.0001) // Model configuration
(PID.TID 0000.0001) // =======================================================
(PID.TID 0000.0001) //
(PID.TID 0000.0001) // "Physical" paramters ( PARM01 in namelist )
(PID.TID 0000.0001) //
(PID.TID 0000.0001) buoyancyRelation = OCEANICP
(PID.TID 0000.0001) tRef =   /* Reference temperature profile ( oC or oK ) */
(PID.TID 0000.0001)    15 @  2.000000000000000E+01              /* K =  1: 15 */
(PID.TID 0000.0001)     ;
(PID.TID 0000.0001) sRef =   /* Reference salinity profile ( ppt ) */
(PID.TID 0000.0001)    15 @  3.500000000000000E+01              /* K =  1: 15 */
(PID.TID 0000.0001)     ;
(PID.TID 0000.0001) viscAh =   /* Lateral eddy viscosity ( m^2/s ) */
(PID.TID 0000.0001)                 3.000000000000000E+05
(PID.TID 0000.0001)     ;
(PID.TID 0000.0001) viscAh =   /* Lateral biharmonic viscosity ( m^4/s ) */
(PID.TID 0000.0001)                 0.000000000000000E+00
(PID.TID 0000.0001)     ;
(PID.TID 0000.0001) no_slip_sides =  /* Viscous BCs: No-slip sides */
(PID.TID 0000.0001)                   T
(PID.TID 0000.0001)     ;
(PID.TID 0000.0001) viscAr =   /* Vertical eddy viscosity ( units of r^2/s ) */
(PID.TID 0000.0001)                 1.721611620915750E+05
(PID.TID 0000.0001)     ;
(PID.TID 0000.0001) diffKhT =   /* Laplacian diffusion of heat laterally ( m^2/s ) */
(PID.TID 0000.0001)                 1.000000000000000E+03
(PID.TID 0000.0001)     ;
(PID.TID 0000.0001) diffK4T =   /* Bihaarmonic diffusion of heat laterally ( m^4/s ) */
(PID.TID 0000.0001)                 0.000000000000000E+00
(PID.TID 0000.0001)     ;
(PID.TID 0000.0001) diffKzT =   /* Laplacian diffusion of heat vertically ( m^2/s ) */
(PID.TID 0000.0001)                 1.234567000000000E+05
(PID.TID 0000.0001)     ;
(PID.TID 0000.0001) diffKrT =   /* Laplacian diffusion of heat vertically ( m^2/s ) */
(PID.TID 0000.0001)                 5.154525811125000E+03
(PID.TID 0000.0001)     ;
(PID.TID 0000.0001) diffKhS =   /* Laplacian diffusion of salt laterally ( m^2/s ) */
(PID.TID 0000.0001)                 1.000000000000000E+03
(PID.TID 0000.0001)     ;
(PID.TID 0000.0001) diffK4S =   /* Bihaarmonic diffusion of salt laterally ( m^4/s ) */
(PID.TID 0000.0001)                 0.000000000000000E+00
(PID.TID 0000.0001)     ;
(PID.TID 0000.0001) diffKzS =   /* Laplacian diffusion of salt vertically ( m^2/s ) */
(PID.TID 0000.0001)                 1.234567000000000E+05
(PID.TID 0000.0001)     ;
(PID.TID 0000.0001) diffKrS =   /* Laplacian diffusion of salt vertically ( m^2/s ) */
(PID.TID 0000.0001)                 5.154525811125000E+03
(PID.TID 0000.0001)     ;
(PID.TID 0000.0001)  Equation of State : eosType = JMD95P
(PID.TID 0000.0001) tAlpha =   /* Linear EOS thermal expansion coefficient ( 1/degree ) */
(PID.TID 0000.0001)                 1.234567000000000E+05
(PID.TID 0000.0001)     ;
(PID.TID 0000.0001) sBeta =   /* Linear EOS haline contraction coefficient ( 1/ppt ) */
(PID.TID 0000.0001)                 1.234567000000000E+05
(PID.TID 0000.0001)     ;
(PID.TID 0000.0001) rhonil =   /* Reference density ( kg/m^3 ) */
(PID.TID 0000.0001)                 1.035000000000000E+03
(PID.TID 0000.0001)     ;
(PID.TID 0000.0001) rhoConst =   /* Reference density ( kg/m^3 ) */
(PID.TID 0000.0001)                 1.035000000000000E+03
(PID.TID 0000.0001)     ;
(PID.TID 0000.0001) rhoConstFresh =   /* Reference density ( kg/m^3 ) */
(PID.TID 0000.0001)                 9.998000000000000E+02
(PID.TID 0000.0001)     ;
(PID.TID 0000.0001) gravity =   /* Gravitational acceleration ( m/s^2 ) */
(PID.TID 0000.0001)                 9.810000000000000E+00
(PID.TID 0000.0001)     ;
(PID.TID 0000.0001) gBaro =   /* Barotropic gravity ( m/s^2 ) */
(PID.TID 0000.0001)                 9.810000000000000E+00
(PID.TID 0000.0001)     ;
(PID.TID 0000.0001) f0 =   /* Reference coriolis parameter ( 1/s ) */
(PID.TID 0000.0001)                 1.000000000000000E-04
(PID.TID 0000.0001)     ;
(PID.TID 0000.0001) beta =   /* Beta ( 1/(m.s) ) */
(PID.TID 0000.0001)                 9.999999999999999E-12
(PID.TID 0000.0001)     ;
(PID.TID 0000.0001) freeSurfFac =   /* Implicit free surface factor */
(PID.TID 0000.0001)                 1.000000000000000E+00
(PID.TID 0000.0001)     ;
(PID.TID 0000.0001) implicitFreeSurface =   /* Implicit free surface on/off flag */
(PID.TID 0000.0001)                   T
(PID.TID 0000.0001)     ;
(PID.TID 0000.0001) rigidLid =   /* Rigid lid on/off flag */
(PID.TID 0000.0001)                   F
(PID.TID 0000.0001)     ;
(PID.TID 0000.0001) implicSurfPress =   /* Surface Pressure implicit factor (0-1)*/
(PID.TID 0000.0001)                 1.000000000000000E+00
(PID.TID 0000.0001)     ;
(PID.TID 0000.0001) implicDiv2Dflow =   /* Barot. Flow Div. implicit factor (0-1)*/
(PID.TID 0000.0001)                 1.000000000000000E+00
(PID.TID 0000.0001)     ;
(PID.TID 0000.0001) exactConserv =   /* Exact Volume Conservation on/off flag*/
(PID.TID 0000.0001)                   T
(PID.TID 0000.0001)     ;
(PID.TID 0000.0001) uniformLin_PhiSurf =   /* use uniform Bo_surf on/off flag*/
(PID.TID 0000.0001)                   T
(PID.TID 0000.0001)     ;
(PID.TID 0000.0001) nonlinFreeSurf =   /* Non-linear Free Surf. options (-1,0,1,2,3)*/
(PID.TID 0000.0001)                       3
(PID.TID 0000.0001)     ;
(PID.TID 0000.0001)      -1,0= Off ; 1,2,3= On, 2=+rescale gU,gV, 3=+update cg2d solv.
(PID.TID 0000.0001) hFacInf =   /* lower threshold for hFac (nonlinFreeSurf only)*/
(PID.TID 0000.0001)                 2.000000000000000E-01
(PID.TID 0000.0001)     ;
(PID.TID 0000.0001) hFacSup =   /* upper threshold for hFac (nonlinFreeSurf only)*/
(PID.TID 0000.0001)                 2.000000000000000E+00
(PID.TID 0000.0001)     ;
(PID.TID 0000.0001) select_rStar =   /* r* Coordinate options (not yet implemented)*/
(PID.TID 0000.0001)                       0
(PID.TID 0000.0001)     ;
(PID.TID 0000.0001)      -1,0= Off ; 1,2,3= On, 2=+rescale gU,gV, 3=+update cg2d solv.
(PID.TID 0000.0001) useRealFreshWaterFlux =   /* Real Fresh Water Flux on/off flag*/
(PID.TID 0000.0001)                   F
(PID.TID 0000.0001)     ;
(PID.TID 0000.0001) convertFW2Salt = /* convert F.W. Flux to Salt Flux (-1=use local S)(ppt)*/
(PID.TID 0000.0001)                 3.500000000000000E+01
(PID.TID 0000.0001)     ;
(PID.TID 0000.0001) multiDimAdvection =   /* enable/disable Multi-Dim Advection */
(PID.TID 0000.0001)                   T
(PID.TID 0000.0001)     ;
(PID.TID 0000.0001) staggerTimeStep =   /* Stagger time stepping on/off flag */
(PID.TID 0000.0001)                   F
(PID.TID 0000.0001)     ;
(PID.TID 0000.0001) momStepping =  /* Momentum equation on/off flag */
(PID.TID 0000.0001)                   T
(PID.TID 0000.0001)     ;
(PID.TID 0000.0001) momAdvection =  /* Momentum advection on/off flag */
(PID.TID 0000.0001)                   T
(PID.TID 0000.0001)     ;
(PID.TID 0000.0001) momViscosity =  /* Momentum viscosity on/off flag */
(PID.TID 0000.0001)                   T
(PID.TID 0000.0001)     ;
(PID.TID 0000.0001) useCoriolis =  /* Coriolis on/off flag */
(PID.TID 0000.0001)                   T
(PID.TID 0000.0001)     ;
(PID.TID 0000.0001) momForcing =  /* Momentum forcing on/off flag */
(PID.TID 0000.0001)                   T
(PID.TID 0000.0001)     ;
(PID.TID 0000.0001) momPressureForcing =  /* Momentum pressure term on/off flag */
(PID.TID 0000.0001)                   T
(PID.TID 0000.0001)     ;
(PID.TID 0000.0001) tempStepping =  /* Temperature equation on/off flag */
(PID.TID 0000.0001)                   T
(PID.TID 0000.0001)     ;
(PID.TID 0000.0001) tempAdvection=  /* Temperature advection on/off flag */
(PID.TID 0000.0001)                   T
(PID.TID 0000.0001)     ;
(PID.TID 0000.0001) tempForcing  =  /* Temperature forcing on/off flag */
(PID.TID 0000.0001)                   T
(PID.TID 0000.0001)     ;
(PID.TID 0000.0001) saltStepping =  /* Salinity equation on/off flag */
(PID.TID 0000.0001)                   T
(PID.TID 0000.0001)     ;
(PID.TID 0000.0001) saltAdvection=  /* Salinity advection on/off flag */
(PID.TID 0000.0001)                   T
(PID.TID 0000.0001)     ;
(PID.TID 0000.0001) saltForcing  =  /* Salinity forcing on/off flag */
(PID.TID 0000.0001)                   T
(PID.TID 0000.0001)     ;
(PID.TID 0000.0001) nonHydrostatic =  /* Non-Hydrostatic on/off flag */
(PID.TID 0000.0001)                   F
(PID.TID 0000.0001)     ;
(PID.TID 0000.0001) //
(PID.TID 0000.0001) // Elliptic solver(s) paramters ( PARM02 in namelist )
(PID.TID 0000.0001) //
(PID.TID 0000.0001) cg2dMaxIters =   /* Upper limit on 2d con. grad iterations  */
(PID.TID 0000.0001)                     200
(PID.TID 0000.0001)     ;
(PID.TID 0000.0001) cg2dChkResFreq =   /* 2d con. grad convergence test frequency */
(PID.TID 0000.0001)                       1
(PID.TID 0000.0001)     ;
(PID.TID 0000.0001) cg2dTargetResidual =   /* 2d con. grad target residual  */
(PID.TID 0000.0001)                 1.000000000000000E-09
(PID.TID 0000.0001)     ;
(PID.TID 0000.0001) //
(PID.TID 0000.0001) // Time stepping paramters ( PARM03 in namelist )
(PID.TID 0000.0001) //
(PID.TID 0000.0001) nIter0 =   /* Base timestep number  */
(PID.TID 0000.0001)                       0
(PID.TID 0000.0001)     ;
(PID.TID 0000.0001) nTimeSteps =   /* Number of timesteps */
(PID.TID 0000.0001)                      20
(PID.TID 0000.0001)     ;
(PID.TID 0000.0001) deltatTmom =   /* Momentum equation timestep ( s ) */
(PID.TID 0000.0001)                 1.200000000000000E+03
(PID.TID 0000.0001)     ;
(PID.TID 0000.0001) deltaTfreesurf =   /* FreeSurface equation timestep ( s ) */
(PID.TID 0000.0001)                 1.728000000000000E+05
(PID.TID 0000.0001)     ;
(PID.TID 0000.0001) deltatTtracer =   /* Tracer equation timestep ( s ) */
(PID.TID 0000.0001)                 1.728000000000000E+05
(PID.TID 0000.0001)     ;
(PID.TID 0000.0001) deltatTClock  =   /* Model clock timestep ( s ) */
(PID.TID 0000.0001)                 1.728000000000000E+05
(PID.TID 0000.0001)     ;
(PID.TID 0000.0001) cAdjFreq =   /* Convective adjustment interval ( s ) */
(PID.TID 0000.0001)                 0.000000000000000E+00
(PID.TID 0000.0001)     ;
(PID.TID 0000.0001) forcing_In_AB =   /* put T,S Forcing in Adams-Bash. stepping */
(PID.TID 0000.0001)                   T
(PID.TID 0000.0001)     ;
(PID.TID 0000.0001) abeps =   /* Adams-Bashforth stabilizing weight */
(PID.TID 0000.0001)                 1.000000000000000E-01
(PID.TID 0000.0001)     ;
(PID.TID 0000.0001) tauCD =   /* CD coupling time-scale ( s ) */
(PID.TID 0000.0001)                 1.200000000000000E+03
(PID.TID 0000.0001)     ;
(PID.TID 0000.0001) rCD =   /* Normalised CD coupling parameter */
(PID.TID 0000.0001)                 0.000000000000000E+00
(PID.TID 0000.0001)     ;
(PID.TID 0000.0001) startTime =   /* Run start time ( s ). */
(PID.TID 0000.0001)                 0.000000000000000E+00
(PID.TID 0000.0001)     ;
(PID.TID 0000.0001) endTime =   /* Integration ending time ( s ). */
(PID.TID 0000.0001)                 3.456000000000000E+06
(PID.TID 0000.0001)     ;
(PID.TID 0000.0001) pChkPtFreq =   /* Permanent restart/checkpoint file interval ( s ). */
(PID.TID 0000.0001)                 3.110400000000000E+09
(PID.TID 0000.0001)     ;
(PID.TID 0000.0001) chkPtFreq =   /* Rolling restart/checkpoint file interval ( s ). */
(PID.TID 0000.0001)                 0.000000000000000E+00
(PID.TID 0000.0001)     ;
(PID.TID 0000.0001) dumpFreq =   /* Model state write out interval ( s ). */
(PID.TID 0000.0001)                 3.110400000000000E+09
(PID.TID 0000.0001)     ;
(PID.TID 0000.0001) //
(PID.TID 0000.0001) // Gridding paramters ( PARM04 in namelist )
(PID.TID 0000.0001) //
(PID.TID 0000.0001) usingCartesianGrid =   /* Cartesian coordinates flag ( True / False ) */
(PID.TID 0000.0001)                   F
(PID.TID 0000.0001)     ;
(PID.TID 0000.0001) usingSphericalPolarGrid =   /* Spherical coordinates flag ( True / False ) */
(PID.TID 0000.0001)                   T
(PID.TID 0000.0001)     ;
(PID.TID 0000.0001) groundAtK1 =   /* Lower Boundary (ground) at the surface(k=1) ( T / F ) */
(PID.TID 0000.0001)                   T
(PID.TID 0000.0001)     ;
(PID.TID 0000.0001) Ro_SeaLevel =   /* r(1) ( units of r ) */
(PID.TID 0000.0001)                 5.302312256608400E+07
(PID.TID 0000.0001)     ;
(PID.TID 0000.0001) rkFac =   /* minus Vertical index orientation  */
(PID.TID 0000.0001)                 1.000000000000000E+00
(PID.TID 0000.0001)     ;
(PID.TID 0000.0001) horiVertRatio =   /* Ratio on units : Horiz - Vertical */
(PID.TID 0000.0001)                 1.015335000000000E+04
(PID.TID 0000.0001)     ;
(PID.TID 0000.0001) drC =   /* C spacing ( units of r ) */
(PID.TID 0000.0001)                 3.551650360010500E+06,      /* K =  1 */
(PID.TID 0000.0001)                 6.836924580405500E+06,      /* K =  2 */
(PID.TID 0000.0001)                 6.306109225519501E+06,      /* K =  3 */
(PID.TID 0000.0001)                 5.779053338153000E+06,      /* K =  4 */
(PID.TID 0000.0001)                 5.255519350233500E+06,      /* K =  5 */
(PID.TID 0000.0001)                 4.735252734850001E+06,      /* K =  6 */
(PID.TID 0000.0001)                 4.217983340545500E+06,      /* K =  7 */
(PID.TID 0000.0001)                 3.703426779226000E+06,      /* K =  8 */
(PID.TID 0000.0001)                 3.191285859157500E+06,      /* K =  9 */
(PID.TID 0000.0001)                 2.681252055355000E+06,      /* K = 10 */
(PID.TID 0000.0001)                 2.173007010517000E+06,      /* K = 11 */
(PID.TID 0000.0001)                 1.666224060479000E+06,      /* K = 12 */
(PID.TID 0000.0001)                 1.211001777568000E+06,      /* K = 13 */
(PID.TID 0000.0001)                 8.573828878235000E+05,      /* K = 14 */
(PID.TID 0000.0001)                 6.050043594899999E+05       /* K = 15 */
(PID.TID 0000.0001)     ;
(PID.TID 0000.0001) drF =   /* W spacing ( units of r ) */
(PID.TID 0000.0001)                 7.103300720021000E+06,      /* K =  1 */
(PID.TID 0000.0001)                 6.570548440790000E+06,      /* K =  2 */
(PID.TID 0000.0001)                 6.041670010249000E+06,      /* K =  3 */
(PID.TID 0000.0001)                 5.516436666057000E+06,      /* K =  4 */
(PID.TID 0000.0001)                 4.994602034410000E+06,      /* K =  5 */
(PID.TID 0000.0001)                 4.475903435290000E+06,      /* K =  6 */
(PID.TID 0000.0001)                 3.960063245801000E+06,      /* K =  7 */
(PID.TID 0000.0001)                 3.446790312651000E+06,      /* K =  8 */
(PID.TID 0000.0001)                 2.935781405664000E+06,      /* K =  9 */
(PID.TID 0000.0001)                 2.426722705046000E+06,      /* K = 10 */
(PID.TID 0000.0001)                 1.919291315988000E+06,      /* K = 11 */
(PID.TID 0000.0001)                 1.413156804970000E+06,      /* K = 12 */
(PID.TID 0000.0001)                 1.008846750166000E+06,      /* K = 13 */
(PID.TID 0000.0001)                 7.059190254810000E+05,      /* K = 14 */
(PID.TID 0000.0001)                 5.040896934990000E+05       /* K = 15 */
(PID.TID 0000.0001)     ;
(PID.TID 0000.0001) delX =   /* U spacing ( m - cartesian, degrees - spherical ) */
(PID.TID 0000.0001)    90 @  4.000000000000000E+00              /* I =  1: 90 */
(PID.TID 0000.0001)     ;
(PID.TID 0000.0001) delY =   /* V spacing ( m - cartesian, degrees - spherical ) */
(PID.TID 0000.0001)    40 @  4.000000000000000E+00              /* J =  1: 40 */
(PID.TID 0000.0001)     ;
(PID.TID 0000.0001) phiMin =    /* South edge (ignored - cartesian, degrees - spherical ) */
(PID.TID 0000.0001)                -8.000000000000000E+01
(PID.TID 0000.0001)     ;
(PID.TID 0000.0001) thetaMin =    /* West edge ( ignored - cartesian, degrees - spherical ) */
(PID.TID 0000.0001)                 0.000000000000000E+00
(PID.TID 0000.0001)     ;
(PID.TID 0000.0001) rSphere =    /* Radius ( ignored - cartesian, m - spherical ) */
(PID.TID 0000.0001)                 6.370000000000000E+06
(PID.TID 0000.0001)     ;
(PID.TID 0000.0001) xcoord =   /* P-point X coord ( m - cartesian, degrees - spherical ) */
(PID.TID 0000.0001)                 2.000000000000000E+00,      /* I =  1 */
(PID.TID 0000.0001)                 6.000000000000000E+00,      /* I =  2 */
(PID.TID 0000.0001)                 1.000000000000000E+01,      /* I =  3 */
(PID.TID 0000.0001)                 1.400000000000000E+01,      /* I =  4 */
(PID.TID 0000.0001)                 1.800000000000000E+01,      /* I =  5 */
(PID.TID 0000.0001)                 2.200000000000000E+01,      /* I =  6 */
(PID.TID 0000.0001)                 2.600000000000000E+01,      /* I =  7 */
(PID.TID 0000.0001)                 3.000000000000000E+01,      /* I =  8 */
(PID.TID 0000.0001)                 3.400000000000000E+01,      /* I =  9 */
(PID.TID 0000.0001)                 3.800000000000000E+01,      /* I = 10 */
(PID.TID 0000.0001)                 4.200000000000000E+01,      /* I = 11 */
(PID.TID 0000.0001)                 4.600000000000000E+01,      /* I = 12 */
(PID.TID 0000.0001)                 5.000000000000000E+01,      /* I = 13 */
(PID.TID 0000.0001)                 5.400000000000000E+01,      /* I = 14 */
(PID.TID 0000.0001)                 5.800000000000000E+01,      /* I = 15 */
(PID.TID 0000.0001)                 6.200000000000000E+01,      /* I = 16 */
(PID.TID 0000.0001)                 6.600000000000000E+01,      /* I = 17 */
(PID.TID 0000.0001)                 7.000000000000000E+01,      /* I = 18 */
(PID.TID 0000.0001)                 7.400000000000000E+01,      /* I = 19 */
(PID.TID 0000.0001)                 7.800000000000000E+01,      /* I = 20 */
(PID.TID 0000.0001)                 8.200000000000000E+01,      /* I = 21 */
(PID.TID 0000.0001)                 8.600000000000000E+01,      /* I = 22 */
(PID.TID 0000.0001)                 9.000000000000000E+01,      /* I = 23 */
(PID.TID 0000.0001)                 9.400000000000000E+01,      /* I = 24 */
(PID.TID 0000.0001)                 9.800000000000000E+01,      /* I = 25 */
(PID.TID 0000.0001)                 1.020000000000000E+02,      /* I = 26 */
(PID.TID 0000.0001)                 1.060000000000000E+02,      /* I = 27 */
(PID.TID 0000.0001)                 1.100000000000000E+02,      /* I = 28 */
(PID.TID 0000.0001)                 1.140000000000000E+02,      /* I = 29 */
(PID.TID 0000.0001)                 1.180000000000000E+02,      /* I = 30 */
(PID.TID 0000.0001)                 1.220000000000000E+02,      /* I = 31 */
(PID.TID 0000.0001)                 1.260000000000000E+02,      /* I = 32 */
(PID.TID 0000.0001)                 1.300000000000000E+02,      /* I = 33 */
(PID.TID 0000.0001)                 1.340000000000000E+02,      /* I = 34 */
(PID.TID 0000.0001)                 1.380000000000000E+02,      /* I = 35 */
(PID.TID 0000.0001)                 1.420000000000000E+02,      /* I = 36 */
(PID.TID 0000.0001)                 1.460000000000000E+02,      /* I = 37 */
(PID.TID 0000.0001)                 1.500000000000000E+02,      /* I = 38 */
(PID.TID 0000.0001)                 1.540000000000000E+02,      /* I = 39 */
(PID.TID 0000.0001)                 1.580000000000000E+02,      /* I = 40 */
(PID.TID 0000.0001)                 1.620000000000000E+02,      /* I = 41 */
(PID.TID 0000.0001)                 1.660000000000000E+02,      /* I = 42 */
(PID.TID 0000.0001)                 1.700000000000000E+02,      /* I = 43 */
(PID.TID 0000.0001)                 1.740000000000000E+02,      /* I = 44 */
(PID.TID 0000.0001)                 1.780000000000000E+02,      /* I = 45 */
(PID.TID 0000.0001)                 1.820000000000000E+02,      /* I = 46 */
(PID.TID 0000.0001)                 1.860000000000000E+02,      /* I = 47 */
(PID.TID 0000.0001)                 1.900000000000000E+02,      /* I = 48 */
(PID.TID 0000.0001)                 1.940000000000000E+02,      /* I = 49 */
(PID.TID 0000.0001)                 1.980000000000000E+02,      /* I = 50 */
(PID.TID 0000.0001)                 2.020000000000000E+02,      /* I = 51 */
(PID.TID 0000.0001)                 2.060000000000000E+02,      /* I = 52 */
(PID.TID 0000.0001)                 2.100000000000000E+02,      /* I = 53 */
(PID.TID 0000.0001)                 2.140000000000000E+02,      /* I = 54 */
(PID.TID 0000.0001)                 2.180000000000000E+02,      /* I = 55 */
(PID.TID 0000.0001)                 2.220000000000000E+02,      /* I = 56 */
(PID.TID 0000.0001)                 2.260000000000000E+02,      /* I = 57 */
(PID.TID 0000.0001)                 2.300000000000000E+02,      /* I = 58 */
(PID.TID 0000.0001)                 2.340000000000000E+02,      /* I = 59 */
(PID.TID 0000.0001)                 2.380000000000000E+02,      /* I = 60 */
(PID.TID 0000.0001)                 2.420000000000000E+02,      /* I = 61 */
(PID.TID 0000.0001)                 2.460000000000000E+02,      /* I = 62 */
(PID.TID 0000.0001)                 2.500000000000000E+02,      /* I = 63 */
(PID.TID 0000.0001)                 2.540000000000000E+02,      /* I = 64 */
(PID.TID 0000.0001)                 2.580000000000000E+02,      /* I = 65 */
(PID.TID 0000.0001)                 2.620000000000000E+02,      /* I = 66 */
(PID.TID 0000.0001)                 2.660000000000000E+02,      /* I = 67 */
(PID.TID 0000.0001)                 2.700000000000000E+02,      /* I = 68 */
(PID.TID 0000.0001)                 2.740000000000000E+02,      /* I = 69 */
(PID.TID 0000.0001)                 2.780000000000000E+02,      /* I = 70 */
(PID.TID 0000.0001)                 2.820000000000000E+02,      /* I = 71 */
(PID.TID 0000.0001)                 2.860000000000000E+02,      /* I = 72 */
(PID.TID 0000.0001)                 2.900000000000000E+02,      /* I = 73 */
(PID.TID 0000.0001)                 2.940000000000000E+02,      /* I = 74 */
(PID.TID 0000.0001)                 2.980000000000000E+02,      /* I = 75 */
(PID.TID 0000.0001)                 3.020000000000000E+02,      /* I = 76 */
(PID.TID 0000.0001)                 3.060000000000000E+02,      /* I = 77 */
(PID.TID 0000.0001)                 3.100000000000000E+02,      /* I = 78 */
(PID.TID 0000.0001)                 3.140000000000000E+02,      /* I = 79 */
(PID.TID 0000.0001)                 3.180000000000000E+02,      /* I = 80 */
(PID.TID 0000.0001)                 3.220000000000000E+02,      /* I = 81 */
(PID.TID 0000.0001)                 3.260000000000000E+02,      /* I = 82 */
(PID.TID 0000.0001)                 3.300000000000000E+02,      /* I = 83 */
(PID.TID 0000.0001)                 3.340000000000000E+02,      /* I = 84 */
(PID.TID 0000.0001)                 3.380000000000000E+02,      /* I = 85 */
(PID.TID 0000.0001)                 3.420000000000000E+02,      /* I = 86 */
(PID.TID 0000.0001)                 3.460000000000000E+02,      /* I = 87 */
(PID.TID 0000.0001)                 3.500000000000000E+02,      /* I = 88 */
(PID.TID 0000.0001)                 3.540000000000000E+02,      /* I = 89 */
(PID.TID 0000.0001)                 3.580000000000000E+02       /* I = 90 */
(PID.TID 0000.0001)     ;
(PID.TID 0000.0001) ycoord =   /* P-point Y coord ( m - cartesian, degrees - spherical ) */
(PID.TID 0000.0001)                -7.800000000000000E+01,      /* J =  1 */
(PID.TID 0000.0001)                -7.400000000000000E+01,      /* J =  2 */
(PID.TID 0000.0001)                -7.000000000000000E+01,      /* J =  3 */
(PID.TID 0000.0001)                -6.600000000000000E+01,      /* J =  4 */
(PID.TID 0000.0001)                -6.200000000000000E+01,      /* J =  5 */
(PID.TID 0000.0001)                -5.800000000000000E+01,      /* J =  6 */
(PID.TID 0000.0001)                -5.400000000000000E+01,      /* J =  7 */
(PID.TID 0000.0001)                -5.000000000000000E+01,      /* J =  8 */
(PID.TID 0000.0001)                -4.600000000000000E+01,      /* J =  9 */
(PID.TID 0000.0001)                -4.200000000000000E+01,      /* J = 10 */
(PID.TID 0000.0001)                -3.800000000000000E+01,      /* J = 11 */
(PID.TID 0000.0001)                -3.400000000000000E+01,      /* J = 12 */
(PID.TID 0000.0001)                -3.000000000000000E+01,      /* J = 13 */
(PID.TID 0000.0001)                -2.600000000000000E+01,      /* J = 14 */
(PID.TID 0000.0001)                -2.200000000000000E+01,      /* J = 15 */
(PID.TID 0000.0001)                -1.800000000000000E+01,      /* J = 16 */
(PID.TID 0000.0001)                -1.400000000000000E+01,      /* J = 17 */
(PID.TID 0000.0001)                -1.000000000000000E+01,      /* J = 18 */
(PID.TID 0000.0001)                -6.000000000000000E+00,      /* J = 19 */
(PID.TID 0000.0001)                -2.000000000000000E+00,      /* J = 20 */
(PID.TID 0000.0001)                 2.000000000000000E+00,      /* J = 21 */
(PID.TID 0000.0001)                 6.000000000000000E+00,      /* J = 22 */
(PID.TID 0000.0001)                 1.000000000000000E+01,      /* J = 23 */
(PID.TID 0000.0001)                 1.400000000000000E+01,      /* J = 24 */
(PID.TID 0000.0001)                 1.800000000000000E+01,      /* J = 25 */
(PID.TID 0000.0001)                 2.200000000000000E+01,      /* J = 26 */
(PID.TID 0000.0001)                 2.600000000000000E+01,      /* J = 27 */
(PID.TID 0000.0001)                 3.000000000000000E+01,      /* J = 28 */
(PID.TID 0000.0001)                 3.400000000000000E+01,      /* J = 29 */
(PID.TID 0000.0001)                 3.800000000000000E+01,      /* J = 30 */
(PID.TID 0000.0001)                 4.200000000000000E+01,      /* J = 31 */
(PID.TID 0000.0001)                 4.600000000000000E+01,      /* J = 32 */
(PID.TID 0000.0001)                 5.000000000000000E+01,      /* J = 33 */
(PID.TID 0000.0001)                 5.400000000000000E+01,      /* J = 34 */
(PID.TID 0000.0001)                 5.800000000000000E+01,      /* J = 35 */
(PID.TID 0000.0001)                 6.200000000000000E+01,      /* J = 36 */
(PID.TID 0000.0001)                 6.600000000000000E+01,      /* J = 37 */
(PID.TID 0000.0001)                 7.000000000000000E+01,      /* J = 38 */
(PID.TID 0000.0001)                 7.400000000000000E+01,      /* J = 39 */
(PID.TID 0000.0001)                 7.800000000000000E+01       /* J = 40 */
(PID.TID 0000.0001)     ;
(PID.TID 0000.0001) rcoord =   /* P-point R coordinate (  units of r ) */
(PID.TID 0000.0001)                 4.947147220607350E+07,      /* K =  1 */
(PID.TID 0000.0001)                 4.263454762566800E+07,      /* K =  2 */
(PID.TID 0000.0001)                 3.632843840014850E+07,      /* K =  3 */
(PID.TID 0000.0001)                 3.054938506199550E+07,      /* K =  4 */
(PID.TID 0000.0001)                 2.529386571176200E+07,      /* K =  5 */
(PID.TID 0000.0001)                 2.055861297691200E+07,      /* K =  6 */
(PID.TID 0000.0001)                 1.634062963636650E+07,      /* K =  7 */
(PID.TID 0000.0001)                 1.263720285714050E+07,      /* K =  8 */
(PID.TID 0000.0001)                 9.445916997983005E+06,      /* K =  9 */
(PID.TID 0000.0001)                 6.764664942628005E+06,      /* K = 10 */
(PID.TID 0000.0001)                 4.591657932111004E+06,      /* K = 11 */
(PID.TID 0000.0001)                 2.925433871632004E+06,      /* K = 12 */
(PID.TID 0000.0001)                 1.714432094064004E+06,      /* K = 13 */
(PID.TID 0000.0001)                 8.570492062405043E+05,      /* K = 14 */
(PID.TID 0000.0001)                 2.520448467505043E+05       /* K = 15 */
(PID.TID 0000.0001)     ;
(PID.TID 0000.0001) rF =   /* W-Interf. R coordinate (  units of r ) */
(PID.TID 0000.0001)                 5.302312256608400E+07,      /* K =  1 */
(PID.TID 0000.0001)                 4.591982184606300E+07,      /* K =  2 */
(PID.TID 0000.0001)                 3.934927340527300E+07,      /* K =  3 */
(PID.TID 0000.0001)                 3.330760339502400E+07,      /* K =  4 */
(PID.TID 0000.0001)                 2.779116672896700E+07,      /* K =  5 */
(PID.TID 0000.0001)                 2.279656469455700E+07,      /* K =  6 */
(PID.TID 0000.0001)                 1.832066125926699E+07,      /* K =  7 */
(PID.TID 0000.0001)                 1.436059801346599E+07,      /* K =  8 */
(PID.TID 0000.0001)                 1.091380770081500E+07,      /* K =  9 */
(PID.TID 0000.0001)                 7.978026295150995E+06,      /* K = 10 */
(PID.TID 0000.0001)                 5.551303590104995E+06,      /* K = 11 */
(PID.TID 0000.0001)                 3.632012274116995E+06,      /* K = 12 */
(PID.TID 0000.0001)                 2.218855469146995E+06,      /* K = 13 */
(PID.TID 0000.0001)                 1.210008718980995E+06,      /* K = 14 */
(PID.TID 0000.0001)                 5.040896934999955E+05,      /* K = 15 */
(PID.TID 0000.0001)                 9.955256246030331E-07       /* K = 16 */
(PID.TID 0000.0001)     ;
(PID.TID 0000.0001) dxF =  /* dxF(:,1,:,1) ( m - cartesian, degrees - spherical ) */
(PID.TID 0000.0001)    90 @  9.246038586187513E+04              /* I =  1: 90 */
(PID.TID 0000.0001)     ;
(PID.TID 0000.0001) dxF =  /* dxF(1,:,1,:) ( m - cartesian, degrees - spherical ) */
(PID.TID 0000.0001)                 9.246038586187513E+04,      /* J =  1 */
(PID.TID 0000.0001)                 1.225786591246834E+05,      /* J =  2 */
(PID.TID 0000.0001)                 1.520997414818001E+05,      /* J =  3 */
(PID.TID 0000.0001)                 1.808798091874300E+05,      /* J =  4 */
(PID.TID 0000.0001)                 2.087786486446736E+05,      /* J =  5 */
(PID.TID 0000.0001)                 2.356603395120766E+05,      /* J =  6 */
(PID.TID 0000.0001)                 2.613939168938713E+05,      /* J =  7 */
(PID.TID 0000.0001)                 2.858540093877838E+05,      /* J =  8 */
(PID.TID 0000.0001)                 3.089214498819035E+05,      /* J =  9 */
(PID.TID 0000.0001)                 3.304838561248741E+05,      /* J = 10 */
(PID.TID 0000.0001)                 3.504361782409254E+05,      /* J = 11 */
(PID.TID 0000.0001)                 3.686812105223083E+05,      /* J = 12 */
(PID.TID 0000.0001)                 3.851300650057322E+05,      /* J = 13 */
(PID.TID 0000.0001)                 3.997026045255871E+05,      /* J = 14 */
(PID.TID 0000.0001)                 4.123278331341585E+05,      /* J = 15 */
(PID.TID 0000.0001)                 4.229442419867491E+05,      /* J = 16 */
(PID.TID 0000.0001)                 4.315001090065869E+05,      /* J = 17 */
(PID.TID 0000.0001)                 4.379537508695839E+05,      /* J = 18 */
(PID.TID 0000.0001)                 4.422737260813013E+05,      /* J = 19 */
(PID.TID 0000.0001)     2 @  4.444389881567501E+05,             /* J = 20: 21 */
(PID.TID 0000.0001)                 4.422737260813013E+05,      /* J = 22 */
(PID.TID 0000.0001)                 4.379537508695839E+05,      /* J = 23 */
(PID.TID 0000.0001)                 4.315001090065869E+05,      /* J = 24 */
(PID.TID 0000.0001)                 4.229442419867491E+05,      /* J = 25 */
(PID.TID 0000.0001)                 4.123278331341585E+05,      /* J = 26 */
(PID.TID 0000.0001)                 3.997026045255871E+05,      /* J = 27 */
(PID.TID 0000.0001)                 3.851300650057322E+05,      /* J = 28 */
(PID.TID 0000.0001)                 3.686812105223083E+05,      /* J = 29 */
(PID.TID 0000.0001)                 3.504361782409254E+05,      /* J = 30 */
(PID.TID 0000.0001)                 3.304838561248741E+05,      /* J = 31 */
(PID.TID 0000.0001)                 3.089214498819035E+05,      /* J = 32 */
(PID.TID 0000.0001)                 2.858540093877838E+05,      /* J = 33 */
(PID.TID 0000.0001)                 2.613939168938713E+05,      /* J = 34 */
(PID.TID 0000.0001)                 2.356603395120766E+05,      /* J = 35 */
(PID.TID 0000.0001)                 2.087786486446736E+05,      /* J = 36 */
(PID.TID 0000.0001)                 1.808798091874300E+05,      /* J = 37 */
(PID.TID 0000.0001)                 1.520997414818001E+05,      /* J = 38 */
(PID.TID 0000.0001)                 1.225786591246834E+05,      /* J = 39 */
(PID.TID 0000.0001)                 9.246038586187513E+04       /* J = 40 */
(PID.TID 0000.0001)     ;
(PID.TID 0000.0001) dyF =  /* dyF(:,1,:,1) ( m - cartesian, degrees - spherical ) */
(PID.TID 0000.0001)    90 @  4.447098934081552E+05              /* I =  1: 90 */
(PID.TID 0000.0001)     ;
(PID.TID 0000.0001) dyF =  /* dyF(1,:,1,:) ( m - cartesian, degrees - spherical ) */
(PID.TID 0000.0001)    40 @  4.447098934081552E+05              /* J =  1: 40 */
(PID.TID 0000.0001)     ;
(PID.TID 0000.0001) dxG =  /* dxG(:,1,:,1) ( m - cartesian, degrees - spherical ) */
(PID.TID 0000.0001)    90 @  7.722306258078101E+04              /* I =  1: 90 */
(PID.TID 0000.0001)     ;
(PID.TID 0000.0001) dxG =  /* dxG(1,:,1,:) ( m - cartesian, degrees - spherical ) */
(PID.TID 0000.0001)                 7.722306258078101E+04,      /* J =  1 */
(PID.TID 0000.0001)                 1.075850604052271E+05,      /* J =  2 */
(PID.TID 0000.0001)                 1.374229146297914E+05,      /* J =  3 */
(PID.TID 0000.0001)                 1.665912582279823E+05,      /* J =  4 */
(PID.TID 0000.0001)                 1.949479859617814E+05,      /* J =  5 */
(PID.TID 0000.0001)                 2.223549467040776E+05,      /* J =  6 */
(PID.TID 0000.0001)                 2.486786164970726E+05,      /* J =  7 */
(PID.TID 0000.0001)                 2.737907490675810E+05,      /* J =  8 */
(PID.TID 0000.0001)                 2.975690006299820E+05,      /* J =  9 */
(PID.TID 0000.0001)                 3.198975259328452E+05,      /* J = 10 */
(PID.TID 0000.0001)                 3.406675426453503E+05,      /* J = 11 */
(PID.TID 0000.0001)                 3.597778613338689E+05,      /* J = 12 */
(PID.TID 0000.0001)                 3.771353784467131E+05,      /* J = 13 */
(PID.TID 0000.0001)                 3.926555299052806E+05,      /* J = 14 */
(PID.TID 0000.0001)                 4.062627030917454E+05,      /* J = 15 */
(PID.TID 0000.0001)                 4.178906052261313E+05,      /* J = 16 */
(PID.TID 0000.0001)                 4.274825863380723E+05,      /* J = 17 */
(PID.TID 0000.0001)                 4.349919152597734E+05,      /* J = 18 */
(PID.TID 0000.0001)                 4.403820072955634E+05,      /* J = 19 */
(PID.TID 0000.0001)                 4.436266024588540E+05,      /* J = 20 */
(PID.TID 0000.0001)                 4.447098934081552E+05,      /* J = 21 */
(PID.TID 0000.0001)                 4.436266024588540E+05,      /* J = 22 */
(PID.TID 0000.0001)                 4.403820072955634E+05,      /* J = 23 */
(PID.TID 0000.0001)                 4.349919152597734E+05,      /* J = 24 */
(PID.TID 0000.0001)                 4.274825863380723E+05,      /* J = 25 */
(PID.TID 0000.0001)                 4.178906052261313E+05,      /* J = 26 */
(PID.TID 0000.0001)                 4.062627030917454E+05,      /* J = 27 */
(PID.TID 0000.0001)                 3.926555299052806E+05,      /* J = 28 */
(PID.TID 0000.0001)                 3.771353784467131E+05,      /* J = 29 */
(PID.TID 0000.0001)                 3.597778613338689E+05,      /* J = 30 */
(PID.TID 0000.0001)                 3.406675426453503E+05,      /* J = 31 */
(PID.TID 0000.0001)                 3.198975259328452E+05,      /* J = 32 */
(PID.TID 0000.0001)                 2.975690006299820E+05,      /* J = 33 */
(PID.TID 0000.0001)                 2.737907490675810E+05,      /* J = 34 */
(PID.TID 0000.0001)                 2.486786164970726E+05,      /* J = 35 */
(PID.TID 0000.0001)                 2.223549467040776E+05,      /* J = 36 */
(PID.TID 0000.0001)                 1.949479859617814E+05,      /* J = 37 */
(PID.TID 0000.0001)                 1.665912582279823E+05,      /* J = 38 */
(PID.TID 0000.0001)                 1.374229146297914E+05,      /* J = 39 */
(PID.TID 0000.0001)                 1.075850604052271E+05       /* J = 40 */
(PID.TID 0000.0001)     ;
(PID.TID 0000.0001) dyG =  /* dyG(:,1,:,1) ( m - cartesian, degrees - spherical ) */
(PID.TID 0000.0001)    90 @  4.447098934081552E+05              /* I =  1: 90 */
(PID.TID 0000.0001)     ;
(PID.TID 0000.0001) dyG =  /* dyG(1,:,1,:) ( m - cartesian, degrees - spherical ) */
(PID.TID 0000.0001)    40 @  4.447098934081552E+05              /* J =  1: 40 */
(PID.TID 0000.0001)     ;
(PID.TID 0000.0001) dxC =  /* dxC(:,1,:,1) ( m - cartesian, degrees - spherical ) */
(PID.TID 0000.0001)    90 @  9.246038586187513E+04              /* I =  1: 90 */
(PID.TID 0000.0001)     ;
(PID.TID 0000.0001) dxC =  /* dxC(1,:,1,:) ( m - cartesian, degrees - spherical ) */
(PID.TID 0000.0001)                 9.246038586187513E+04,      /* J =  1 */
(PID.TID 0000.0001)                 1.225786591246834E+05,      /* J =  2 */
(PID.TID 0000.0001)                 1.520997414818001E+05,      /* J =  3 */
(PID.TID 0000.0001)                 1.808798091874300E+05,      /* J =  4 */
(PID.TID 0000.0001)                 2.087786486446736E+05,      /* J =  5 */
(PID.TID 0000.0001)                 2.356603395120766E+05,      /* J =  6 */
(PID.TID 0000.0001)                 2.613939168938713E+05,      /* J =  7 */
(PID.TID 0000.0001)                 2.858540093877838E+05,      /* J =  8 */
(PID.TID 0000.0001)                 3.089214498819035E+05,      /* J =  9 */
(PID.TID 0000.0001)                 3.304838561248741E+05,      /* J = 10 */
(PID.TID 0000.0001)                 3.504361782409254E+05,      /* J = 11 */
(PID.TID 0000.0001)                 3.686812105223083E+05,      /* J = 12 */
(PID.TID 0000.0001)                 3.851300650057322E+05,      /* J = 13 */
(PID.TID 0000.0001)                 3.997026045255871E+05,      /* J = 14 */
(PID.TID 0000.0001)                 4.123278331341585E+05,      /* J = 15 */
(PID.TID 0000.0001)                 4.229442419867491E+05,      /* J = 16 */
(PID.TID 0000.0001)                 4.315001090065869E+05,      /* J = 17 */
(PID.TID 0000.0001)                 4.379537508695839E+05,      /* J = 18 */
(PID.TID 0000.0001)                 4.422737260813013E+05,      /* J = 19 */
(PID.TID 0000.0001)     2 @  4.444389881567501E+05,             /* J = 20: 21 */
(PID.TID 0000.0001)                 4.422737260813013E+05,      /* J = 22 */
(PID.TID 0000.0001)                 4.379537508695839E+05,      /* J = 23 */
(PID.TID 0000.0001)                 4.315001090065869E+05,      /* J = 24 */
(PID.TID 0000.0001)                 4.229442419867491E+05,      /* J = 25 */
(PID.TID 0000.0001)                 4.123278331341585E+05,      /* J = 26 */
(PID.TID 0000.0001)                 3.997026045255871E+05,      /* J = 27 */
(PID.TID 0000.0001)                 3.851300650057322E+05,      /* J = 28 */
(PID.TID 0000.0001)                 3.686812105223083E+05,      /* J = 29 */
(PID.TID 0000.0001)                 3.504361782409254E+05,      /* J = 30 */
(PID.TID 0000.0001)                 3.304838561248741E+05,      /* J = 31 */
(PID.TID 0000.0001)                 3.089214498819035E+05,      /* J = 32 */
(PID.TID 0000.0001)                 2.858540093877838E+05,      /* J = 33 */
(PID.TID 0000.0001)                 2.613939168938713E+05,      /* J = 34 */
(PID.TID 0000.0001)                 2.356603395120766E+05,      /* J = 35 */
(PID.TID 0000.0001)                 2.087786486446736E+05,      /* J = 36 */
(PID.TID 0000.0001)                 1.808798091874300E+05,      /* J = 37 */
(PID.TID 0000.0001)                 1.520997414818001E+05,      /* J = 38 */
(PID.TID 0000.0001)                 1.225786591246834E+05,      /* J = 39 */
(PID.TID 0000.0001)                 9.246038586187513E+04       /* J = 40 */
(PID.TID 0000.0001)     ;
(PID.TID 0000.0001) dyC =  /* dyC(:,1,:,1) ( m - cartesian, degrees - spherical ) */
(PID.TID 0000.0001)    90 @  4.447098934081552E+05              /* I =  1: 90 */
(PID.TID 0000.0001)     ;
(PID.TID 0000.0001) dyC =  /* dyC(1,:,1,:) ( m - cartesian, degrees - spherical ) */
(PID.TID 0000.0001)    40 @  4.447098934081552E+05              /* J =  1: 40 */
(PID.TID 0000.0001)     ;
(PID.TID 0000.0001) dxV =  /* dxV(:,1,:,1) ( m - cartesian, degrees - spherical ) */
(PID.TID 0000.0001)    90 @  7.722306258078101E+04              /* I =  1: 90 */
(PID.TID 0000.0001)     ;
(PID.TID 0000.0001) dxV =  /* dxV(1,:,1,:) ( m - cartesian, degrees - spherical ) */
(PID.TID 0000.0001)                 7.722306258078101E+04,      /* J =  1 */
(PID.TID 0000.0001)                 1.075850604052271E+05,      /* J =  2 */
(PID.TID 0000.0001)                 1.374229146297914E+05,      /* J =  3 */
(PID.TID 0000.0001)                 1.665912582279823E+05,      /* J =  4 */
(PID.TID 0000.0001)                 1.949479859617814E+05,      /* J =  5 */
(PID.TID 0000.0001)                 2.223549467040776E+05,      /* J =  6 */
(PID.TID 0000.0001)                 2.486786164970726E+05,      /* J =  7 */
(PID.TID 0000.0001)                 2.737907490675810E+05,      /* J =  8 */
(PID.TID 0000.0001)                 2.975690006299820E+05,      /* J =  9 */
(PID.TID 0000.0001)                 3.198975259328452E+05,      /* J = 10 */
(PID.TID 0000.0001)                 3.406675426453503E+05,      /* J = 11 */
(PID.TID 0000.0001)                 3.597778613338689E+05,      /* J = 12 */
(PID.TID 0000.0001)                 3.771353784467131E+05,      /* J = 13 */
(PID.TID 0000.0001)                 3.926555299052806E+05,      /* J = 14 */
(PID.TID 0000.0001)                 4.062627030917454E+05,      /* J = 15 */
(PID.TID 0000.0001)                 4.178906052261313E+05,      /* J = 16 */
(PID.TID 0000.0001)                 4.274825863380723E+05,      /* J = 17 */
(PID.TID 0000.0001)                 4.349919152597734E+05,      /* J = 18 */
(PID.TID 0000.0001)                 4.403820072955634E+05,      /* J = 19 */
(PID.TID 0000.0001)                 4.436266024588540E+05,      /* J = 20 */
(PID.TID 0000.0001)                 4.447098934081552E+05,      /* J = 21 */
(PID.TID 0000.0001)                 4.436266024588540E+05,      /* J = 22 */
(PID.TID 0000.0001)                 4.403820072955634E+05,      /* J = 23 */
(PID.TID 0000.0001)                 4.349919152597734E+05,      /* J = 24 */
(PID.TID 0000.0001)                 4.274825863380723E+05,      /* J = 25 */
(PID.TID 0000.0001)                 4.178906052261313E+05,      /* J = 26 */
(PID.TID 0000.0001)                 4.062627030917454E+05,      /* J = 27 */
(PID.TID 0000.0001)                 3.926555299052806E+05,      /* J = 28 */
(PID.TID 0000.0001)                 3.771353784467131E+05,      /* J = 29 */
(PID.TID 0000.0001)                 3.597778613338689E+05,      /* J = 30 */
(PID.TID 0000.0001)                 3.406675426453503E+05,      /* J = 31 */
(PID.TID 0000.0001)                 3.198975259328452E+05,      /* J = 32 */
(PID.TID 0000.0001)                 2.975690006299820E+05,      /* J = 33 */
(PID.TID 0000.0001)                 2.737907490675810E+05,      /* J = 34 */
(PID.TID 0000.0001)                 2.486786164970726E+05,      /* J = 35 */
(PID.TID 0000.0001)                 2.223549467040776E+05,      /* J = 36 */
(PID.TID 0000.0001)                 1.949479859617814E+05,      /* J = 37 */
(PID.TID 0000.0001)                 1.665912582279823E+05,      /* J = 38 */
(PID.TID 0000.0001)                 1.374229146297914E+05,      /* J = 39 */
(PID.TID 0000.0001)                 1.075850604052271E+05       /* J = 40 */
(PID.TID 0000.0001)     ;
(PID.TID 0000.0001) dyU =  /* dyU(:,1,:,1) ( m - cartesian, degrees - spherical ) */
(PID.TID 0000.0001)    90 @  4.447098934081552E+05              /* I =  1: 90 */
(PID.TID 0000.0001)     ;
(PID.TID 0000.0001) dyU =  /* dyU(1,:,1,:) ( m - cartesian, degrees - spherical ) */
(PID.TID 0000.0001)    40 @  4.447098934081552E+05              /* J =  1: 40 */
(PID.TID 0000.0001)     ;
(PID.TID 0000.0001) rA =  /* rA(:,1,:,1) ( m - cartesian, degrees - spherical ) */
(PID.TID 0000.0001)    90 @  4.110969866729052E+10              /* I =  1: 90 */
(PID.TID 0000.0001)     ;
(PID.TID 0000.0001) rA =  /* rA(1,:,1,:) ( m - cartesian, degrees - spherical ) */
(PID.TID 0000.0001)                 4.110969866729052E+10,      /* J =  1 */
(PID.TID 0000.0001)                 5.450087291636662E+10,      /* J =  2 */
(PID.TID 0000.0001)                 6.762652439100241E+10,      /* J =  3 */
(PID.TID 0000.0001)                 8.042270623660014E+10,      /* J =  4 */
(PID.TID 0000.0001)                 9.282707674147511E+10,      /* J =  5 */
(PID.TID 0000.0001)                 1.047792030594104E+11,      /* J =  6 */
(PID.TID 0000.0001)                 1.162208556324094E+11,      /* J =  7 */
(PID.TID 0000.0001)                 1.270962918792466E+11,      /* J =  8 */
(PID.TID 0000.0001)                 1.373525277677230E+11,      /* J =  9 */
(PID.TID 0000.0001)                 1.469395959475424E+11,      /* J = 10 */
(PID.TID 0000.0001)                 1.558107891862222E+11,      /* J = 11 */
(PID.TID 0000.0001)                 1.639228879220324E+11,      /* J = 12 */
(PID.TID 0000.0001)                 1.712363708253575E+11,      /* J = 13 */
(PID.TID 0000.0001)                 1.777156073426414E+11,      /* J = 14 */
(PID.TID 0000.0001)                 1.833290312848624E+11,      /* J = 15 */
(PID.TID 0000.0001)                 1.880492946148330E+11,      /* J = 16 */
(PID.TID 0000.0001)                 1.918534006840893E+11,      /* J = 17 */
(PID.TID 0000.0001)                 1.947228162702492E+11,      /* J = 18 */
(PID.TID 0000.0001)                 1.966435618690094E+11,      /* J = 19 */
(PID.TID 0000.0001)     2 @  1.976062798008856E+11,             /* J = 20: 21 */
(PID.TID 0000.0001)                 1.966435618690094E+11,      /* J = 22 */
(PID.TID 0000.0001)                 1.947228162702492E+11,      /* J = 23 */
(PID.TID 0000.0001)                 1.918534006840893E+11,      /* J = 24 */
(PID.TID 0000.0001)                 1.880492946148330E+11,      /* J = 25 */
(PID.TID 0000.0001)                 1.833290312848624E+11,      /* J = 26 */
(PID.TID 0000.0001)                 1.777156073426414E+11,      /* J = 27 */
(PID.TID 0000.0001)                 1.712363708253575E+11,      /* J = 28 */
(PID.TID 0000.0001)                 1.639228879220324E+11,      /* J = 29 */
(PID.TID 0000.0001)                 1.558107891862222E+11,      /* J = 30 */
(PID.TID 0000.0001)                 1.469395959475424E+11,      /* J = 31 */
(PID.TID 0000.0001)                 1.373525277677230E+11,      /* J = 32 */
(PID.TID 0000.0001)                 1.270962918792466E+11,      /* J = 33 */
(PID.TID 0000.0001)                 1.162208556324094E+11,      /* J = 34 */
(PID.TID 0000.0001)                 1.047792030594104E+11,      /* J = 35 */
(PID.TID 0000.0001)                 9.282707674147511E+10,      /* J = 36 */
(PID.TID 0000.0001)                 8.042270623660014E+10,      /* J = 37 */
(PID.TID 0000.0001)                 6.762652439100241E+10,      /* J = 38 */
(PID.TID 0000.0001)                 5.450087291636662E+10,      /* J = 39 */
(PID.TID 0000.0001)                 4.110969866729052E+10       /* J = 40 */
(PID.TID 0000.0001)     ;
(PID.TID 0000.0001) rAw =  /* rAw(:,1,:,1) ( m - cartesian, degrees - spherical ) */
(PID.TID 0000.0001)    90 @  4.110969866729052E+10              /* I =  1: 90 */
(PID.TID 0000.0001)     ;
(PID.TID 0000.0001) rAw =  /* rAw(1,:,1,:) ( m - cartesian, degrees - spherical ) */
(PID.TID 0000.0001)                 4.110969866729052E+10,      /* J =  1 */
(PID.TID 0000.0001)                 5.450087291636662E+10,      /* J =  2 */
(PID.TID 0000.0001)                 6.762652439100241E+10,      /* J =  3 */
(PID.TID 0000.0001)                 8.042270623660014E+10,      /* J =  4 */
(PID.TID 0000.0001)                 9.282707674147511E+10,      /* J =  5 */
(PID.TID 0000.0001)                 1.047792030594104E+11,      /* J =  6 */
(PID.TID 0000.0001)                 1.162208556324094E+11,      /* J =  7 */
(PID.TID 0000.0001)                 1.270962918792466E+11,      /* J =  8 */
(PID.TID 0000.0001)                 1.373525277677230E+11,      /* J =  9 */
(PID.TID 0000.0001)                 1.469395959475424E+11,      /* J = 10 */
(PID.TID 0000.0001)                 1.558107891862222E+11,      /* J = 11 */
(PID.TID 0000.0001)                 1.639228879220324E+11,      /* J = 12 */
(PID.TID 0000.0001)                 1.712363708253575E+11,      /* J = 13 */
(PID.TID 0000.0001)                 1.777156073426414E+11,      /* J = 14 */
(PID.TID 0000.0001)                 1.833290312848624E+11,      /* J = 15 */
(PID.TID 0000.0001)                 1.880492946148330E+11,      /* J = 16 */
(PID.TID 0000.0001)                 1.918534006840893E+11,      /* J = 17 */
(PID.TID 0000.0001)                 1.947228162702492E+11,      /* J = 18 */
(PID.TID 0000.0001)                 1.966435618690094E+11,      /* J = 19 */
(PID.TID 0000.0001)     2 @  1.976062798008856E+11,             /* J = 20: 21 */
(PID.TID 0000.0001)                 1.966435618690094E+11,      /* J = 22 */
(PID.TID 0000.0001)                 1.947228162702492E+11,      /* J = 23 */
(PID.TID 0000.0001)                 1.918534006840893E+11,      /* J = 24 */
(PID.TID 0000.0001)                 1.880492946148330E+11,      /* J = 25 */
(PID.TID 0000.0001)                 1.833290312848624E+11,      /* J = 26 */
(PID.TID 0000.0001)                 1.777156073426414E+11,      /* J = 27 */
(PID.TID 0000.0001)                 1.712363708253575E+11,      /* J = 28 */
(PID.TID 0000.0001)                 1.639228879220324E+11,      /* J = 29 */
(PID.TID 0000.0001)                 1.558107891862222E+11,      /* J = 30 */
(PID.TID 0000.0001)                 1.469395959475424E+11,      /* J = 31 */
(PID.TID 0000.0001)                 1.373525277677230E+11,      /* J = 32 */
(PID.TID 0000.0001)                 1.270962918792466E+11,      /* J = 33 */
(PID.TID 0000.0001)                 1.162208556324094E+11,      /* J = 34 */
(PID.TID 0000.0001)                 1.047792030594104E+11,      /* J = 35 */
(PID.TID 0000.0001)                 9.282707674147511E+10,      /* J = 36 */
(PID.TID 0000.0001)                 8.042270623660014E+10,      /* J = 37 */
(PID.TID 0000.0001)                 6.762652439100241E+10,      /* J = 38 */
(PID.TID 0000.0001)                 5.450087291636662E+10,      /* J = 39 */
(PID.TID 0000.0001)                 4.110969866729052E+10       /* J = 40 */
(PID.TID 0000.0001)     ;
(PID.TID 0000.0001) rAs =  /* rAs(:,1,:,1) ( m - cartesian, degrees - spherical ) */
(PID.TID 0000.0001)    90 @  3.433488626798226E+10              /* I =  1: 90 */
(PID.TID 0000.0001)     ;
(PID.TID 0000.0001) rAs =  /* rAs(1,:,1,:) ( m - cartesian, degrees - spherical ) */
(PID.TID 0000.0001)                 3.433488626798226E+10,      /* J =  1 */
(PID.TID 0000.0001)                 4.783442523123644E+10,      /* J =  2 */
(PID.TID 0000.0001)                 6.110091968306396E+10,      /* J =  3 */
(PID.TID 0000.0001)                 7.406973659603816E+10,      /* J =  4 */
(PID.TID 0000.0001)                 8.667769319778082E+10,      /* J =  5 */
(PID.TID 0000.0001)                 9.886336479107460E+10,      /* J =  6 */
(PID.TID 0000.0001)                 1.105673840088176E+11,      /* J =  7 */
(PID.TID 0000.0001)                 1.217327300458637E+11,      /* J =  8 */
(PID.TID 0000.0001)                 1.323050064586577E+11,      /* J =  9 */
(PID.TID 0000.0001)                 1.422327061792379E+11,      /* J = 10 */
(PID.TID 0000.0001)                 1.514674624524945E+11,      /* J = 11 */
(PID.TID 0000.0001)                 1.599642844741386E+11,      /* J = 12 */
(PID.TID 0000.0001)                 1.676817765813786E+11,      /* J = 13 */
(PID.TID 0000.0001)                 1.745823399284268E+11,      /* J = 14 */
(PID.TID 0000.0001)                 1.806323556642997E+11,      /* J = 15 */
(PID.TID 0000.0001)                 1.858023487204767E+11,      /* J = 16 */
(PID.TID 0000.0001)                 1.900671314104744E+11,      /* J = 17 */
(PID.TID 0000.0001)                 1.934059261417216E+11,      /* J = 18 */
(PID.TID 0000.0001)                 1.958024666419019E+11,      /* J = 19 */
(PID.TID 0000.0001)                 1.972450772065981E+11,      /* J = 20 */
(PID.TID 0000.0001)                 1.977267295821496E+11,      /* J = 21 */
(PID.TID 0000.0001)                 1.972450772065981E+11,      /* J = 22 */
(PID.TID 0000.0001)                 1.958024666419019E+11,      /* J = 23 */
(PID.TID 0000.0001)                 1.934059261417216E+11,      /* J = 24 */
(PID.TID 0000.0001)                 1.900671314104744E+11,      /* J = 25 */
(PID.TID 0000.0001)                 1.858023487204767E+11,      /* J = 26 */
(PID.TID 0000.0001)                 1.806323556642997E+11,      /* J = 27 */
(PID.TID 0000.0001)                 1.745823399284268E+11,      /* J = 28 */
(PID.TID 0000.0001)                 1.676817765813786E+11,      /* J = 29 */
(PID.TID 0000.0001)                 1.599642844741386E+11,      /* J = 30 */
(PID.TID 0000.0001)                 1.514674624524945E+11,      /* J = 31 */
(PID.TID 0000.0001)                 1.422327061792379E+11,      /* J = 32 */
(PID.TID 0000.0001)                 1.323050064586577E+11,      /* J = 33 */
(PID.TID 0000.0001)                 1.217327300458637E+11,      /* J = 34 */
(PID.TID 0000.0001)                 1.105673840088176E+11,      /* J = 35 */
(PID.TID 0000.0001)                 9.886336479107460E+10,      /* J = 36 */
(PID.TID 0000.0001)                 8.667769319778082E+10,      /* J = 37 */
(PID.TID 0000.0001)                 7.406973659603816E+10,      /* J = 38 */
(PID.TID 0000.0001)                 6.110091968306396E+10,      /* J = 39 */
(PID.TID 0000.0001)                 4.783442523123644E+10       /* J = 40 */
(PID.TID 0000.0001)     ;
(PID.TID 0000.0001) 
(PID.TID 0000.0001)  MDSREADFIELD: opening global file: lev_t.bin
(PID.TID 0000.0001) // =======================================================
(PID.TID 0000.0001) // Field Initial Temperature at iteration          1
(PID.TID 0000.0001) // CMIN =         -8.538625820175458E-01
(PID.TID 0000.0001) // CMAX =          2.012045717433744E+00
(PID.TID 0000.0001) // CINT =          1.061447518315292E-01
(PID.TID 0000.0001) // SYMBOLS (CMIN->CMAX): -abcdefghijklmnopqrstuvwxyz+
(PID.TID 0000.0001) //                  0.0: .
(PID.TID 0000.0001) // RANGE I (Lo:Hi:Step):(   1:  90:   1)
(PID.TID 0000.0001) // RANGE J (Lo:Hi:Step):(  40:   1:  -1)
(PID.TID 0000.0001) // RANGE K (Lo:Hi:Step):(   1:   1:   1)
(PID.TID 0000.0001) // =======================================================
(PID.TID 0000.0001) K =   1
(PID.TID 0000.0001)                I=10      I=20      I=30      I=40      I=50      I=60      I=70      I=80      I=90
(PID.TID 0000.0001) |--J--|123456789|123456789|123456789|123456789|123456789|123456789|123456789|123456789|123456789|
(PID.TID 0000.0001)     40 ..........................................................................................
(PID.TID 0000.0001)     39 ..........................................................................................
(PID.TID 0000.0001)     38 ..........................................................................................
(PID.TID 0000.0001)     37 ..........................................................................................
(PID.TID 0000.0001)     36 ..........................................................................................
(PID.TID 0000.0001)     35 ..........................................................................................
(PID.TID 0000.0001)     34 ..........................................................................................
(PID.TID 0000.0001)     33 .......................................rrr.rrrrrrsss......................................
(PID.TID 0000.0001)     32 ......................................rrrr.rrrrssssss.....................................
(PID.TID 0000.0001)     31 ....................................rrrrrr.rrrrssssss......................yy.............
(PID.TID 0000.0001)     30 ....................................rrrr.rr.rrsssssssssss................yyyy.............
(PID.TID 0000.0001)     29 ...................................rrrr.rrr...rssrsrrssss...............yy.yyy.....++.....
(PID.TID 0000.0001)     28 ...................................rrrrrrrrrrrrrrrrrrr..................yyyxxx.....++.....
(PID.TID 0000.0001)     27 .....................................rrrrrrrr.r...rrr...................yyxxxx..zzzz+.....
(PID.TID 0000.0001)     26 ...............................tss..rrrrrrrrrrr....rrrrrr...............yyyxxx..zzzz......
(PID.TID 0000.0001)     25 ...............................stt..rrr..rq.....qrrrrqqqq.................www...zz........
(PID.TID 0000.0001)     24 ...............................tt...rrrrrqqqqqqqqqqqqqq.........................zzzz......
(PID.TID 0000.0001)     23 ....................................rrrr...qqqqq.qrrqrr.........................yzzz......
(PID.TID 0000.0001)     22 ...........................................qppppp..r.rr...................................
(PID.TID 0000.0001)     21 ...........................................pppppp.......................................yz
(PID.TID 0000.0001)     20 ............................................ppppppp...............................llp...zz
(PID.TID 0000.0001)     19 zz................qqq.......................pppp.pppp.............................lll.....
(PID.TID 0000.0001)     18 zz................qqq....oo.o.....................qpq.............................lll....z
(PID.TID 0000.0001)     17 zz................qqq.ooooooo.....................qp..............................lll....z
(PID.TID 0000.0001)     16 ++.................qq.oooooo...................nno................................llm....+
(PID.TID 0000.0001)     15 +......................noooo..................nnno................................llm....+
(PID.TID 0000.0001)     14 +...........nnn........nn.o...................nnnooo..............................mmm....+
(PID.TID 0000.0001)     13 .oo.........nnn...........oo..................nnnnnnoo....................................
(PID.TID 0000.0001)     12 nmm.......................nn..mmm.............ooooooooo...................................
(PID.TID 0000.0001)     11 oon.ll........ii...........mmmmmmmm...........n.noooooooo....................ggfgg........
(PID.TID 0000.0001)     10 on..l.hi......ii..............lmmmm.............mnnoooooo...................hhgggg........
(PID.TID 0000.0001)      9 .....ggg......................................nmmmmnnnnnn...................hhgggg........
(PID.TID 0000.0001)      8 .....fe......................................mmmmmm............................ff.........
(PID.TID 0000.0001)      7 .......bb...cc.............................llmmmm.................iii.....................
(PID.TID 0000.0001)      6 -aaaaabbbbbbccc............................lllm.............hhi.i.iii....................-
(PID.TID 0000.0001)      5 ---aaaaaaaaabbb...........................................hhhhhhhh.h.................-----
(PID.TID 0000.0001)      4 ..-aaaaa..................................................hhhhhhh....................----a
(PID.TID 0000.0001)      3 ..........................................................................................
(PID.TID 0000.0001)      2 ..........................................................................................
(PID.TID 0000.0001)      1 ..........................................................................................
(PID.TID 0000.0001) // =======================================================
(PID.TID 0000.0001) // END OF FIELD                                          =
(PID.TID 0000.0001) // =======================================================
(PID.TID 0000.0001) 
(PID.TID 0000.0001)  MDSREADFIELD: opening global file: lev_s.bin
(PID.TID 0000.0001) // =======================================================
(PID.TID 0000.0001) // Field Initial Salinity at iteration          1
(PID.TID 0000.0001) // CMIN =          3.464784170881562E+01
(PID.TID 0000.0001) // CMAX =          3.490372370636981E+01
(PID.TID 0000.0001) // CINT =          9.477111020525586E-03
(PID.TID 0000.0001) // SYMBOLS (CMIN->CMAX): -abcdefghijklmnopqrstuvwxyz+
(PID.TID 0000.0001) //                  0.0: .
(PID.TID 0000.0001) // RANGE I (Lo:Hi:Step):(   1:  90:   1)
(PID.TID 0000.0001) // RANGE J (Lo:Hi:Step):(  40:   1:  -1)
(PID.TID 0000.0001) // RANGE K (Lo:Hi:Step):(   1:   1:   1)
(PID.TID 0000.0001) // =======================================================
(PID.TID 0000.0001) K =   1
(PID.TID 0000.0001)                I=10      I=20      I=30      I=40      I=50      I=60      I=70      I=80      I=90
(PID.TID 0000.0001) |--J--|123456789|123456789|123456789|123456789|123456789|123456789|123456789|123456789|123456789|
(PID.TID 0000.0001)     40 ..........................................................................................
(PID.TID 0000.0001)     39 ..........................................................................................
(PID.TID 0000.0001)     38 ..........................................................................................
(PID.TID 0000.0001)     37 ..........................................................................................
(PID.TID 0000.0001)     36 ..........................................................................................
(PID.TID 0000.0001)     35 ..........................................................................................
(PID.TID 0000.0001)     34 ..........................................................................................
(PID.TID 0000.0001)     33 .......................................ddd.ddeeeeddd......................................
(PID.TID 0000.0001)     32 ......................................dddd.dddddddddd.....................................
(PID.TID 0000.0001)     31 ....................................edddde.eeedddddde......................+z.............
(PID.TID 0000.0001)     30 ....................................eefe.ee.eddddddddddee................+++z.............
(PID.TID 0000.0001)     29 ...................................ddee.dee...dddddeddddd...............++.zyy.....yz.....
(PID.TID 0000.0001)     28 ...................................cceebdeeeeeeddddded..................zzzyxx.....zz.....
(PID.TID 0000.0001)     27 .....................................deddeedd.e...dde...................zyyxxx..zzyzz.....
(PID.TID 0000.0001)     26 ...............................ddd..feeeeeeedef....eeeeee...............yzywww..z+zz......
(PID.TID 0000.0001)     25 ...............................ddc..edd..fe.....eeffffeee.................wwv...++........
(PID.TID 0000.0001)     24 ...............................dd...ddeffffeffefeeffeee.........................yyyz......
(PID.TID 0000.0001)     23 ....................................eded...effff.dffeee.........................yyzz......
(PID.TID 0000.0001)     22 ...........................................efffff..e.ee...................................
(PID.TID 0000.0001)     21 ...........................................fffgff.......................................yx
(PID.TID 0000.0001)     20 ............................................fghgffg...............................hin...xx
(PID.TID 0000.0001)     19 xy................ggf.......................fggg.ffff.............................iii.....
(PID.TID 0000.0001)     18 yy................cdd....gh.h.....................fff.............................ihh....y
(PID.TID 0000.0001)     17 yy................ddf.gggghhh.....................ff..............................ijj....y
(PID.TID 0000.0001)     16 yy.................fh.gggggi...................gff................................hii....y
(PID.TID 0000.0001)     15 y......................fgggh..................gggg................................gii....y
(PID.TID 0000.0001)     14 y...........ggg........gg.g...................gggggg..............................ijj....y
(PID.TID 0000.0001)     13 .ii.........ggg...........gg..................gggggfgg....................................
(PID.TID 0000.0001)     12 hhh.......................gg..ggg.............gggggfggg...................................
(PID.TID 0000.0001)     11 ggg.gf........dd...........hggggggg...........f.fggffffgg....................ccbcc........
(PID.TID 0000.0001)     10 gg..f.de......dd..............hgggg.............gfgggfggg...................edcccb........
(PID.TID 0000.0001)      9 .....ccd......................................fffffgggffg...................ccccbb........
(PID.TID 0000.0001)      8 .....cc......................................ffffff............................bb.........
(PID.TID 0000.0001)      7 .......bb...bb.............................efffff.................fff.....................
(PID.TID 0000.0001)      6 ---aaaaaaaabbbb............................efff.............fff.f.fff....................-
(PID.TID 0000.0001)      5 ---aaabaaaaaaaa...........................................ffgfffgf.f.................-----
(PID.TID 0000.0001)      4 ..-aabba..................................................fffffff....................-----
(PID.TID 0000.0001)      3 ..........................................................................................
(PID.TID 0000.0001)      2 ..........................................................................................
(PID.TID 0000.0001)      1 ..........................................................................................
(PID.TID 0000.0001) // =======================================================
(PID.TID 0000.0001) // END OF FIELD                                          =
(PID.TID 0000.0001) // =======================================================
(PID.TID 0000.0001) 
(PID.TID 0000.0001) Start initial hydrostatic pressure computation
(PID.TID 0000.0001) Pressure is predetermined for buoyancyRelation OCEANICP
(PID.TID 0000.0001) 
(PID.TID 0000.0001)  MDSREADFIELD: opening global file: trenberth_taux.bin
(PID.TID 0000.0001)  MDSREADFIELD: opening global file: trenberth_tauy.bin
(PID.TID 0000.0001)  MDSREADFIELD: opening global file: shi_qnet.bin
(PID.TID 0000.0001)  MDSREADFIELD: opening global file: shi_empmr.bin
(PID.TID 0000.0001)  MDSREADFIELD: opening global file: lev_sst.bin
(PID.TID 0000.0001)  MDSREADFIELD: opening global file: deltageopotjmd95.bin
(PID.TID 0000.0001) // =======================================================
(PID.TID 0000.0001) // Model current state
(PID.TID 0000.0001) // =======================================================
(PID.TID 0000.0001) 
(PID.TID 0000.0001) // =======================================================
(PID.TID 0000.0001) // Begin MONITOR dynamic field statistics
(PID.TID 0000.0001) // =======================================================
(PID.TID 0000.0001) %MON time_tsnumber                =                     0
(PID.TID 0000.0001) %MON time_secondsf                =   0.0000000000000E+00
(PID.TID 0000.0001) %MON dynstat_eta_max              =   0.0000000000000E+00
(PID.TID 0000.0001) %MON dynstat_eta_min              =   0.0000000000000E+00
(PID.TID 0000.0001) %MON dynstat_eta_mean             =   0.0000000000000E+00
(PID.TID 0000.0001) %MON dynstat_eta_sd               =   0.0000000000000E+00
(PID.TID 0000.0001) %MON dynstat_eta_del2             =   0.0000000000000E+00
(PID.TID 0000.0001) %MON dynstat_uvel_max             =   0.0000000000000E+00
(PID.TID 0000.0001) %MON dynstat_uvel_min             =   0.0000000000000E+00
(PID.TID 0000.0001) %MON dynstat_uvel_mean            =   0.0000000000000E+00
(PID.TID 0000.0001) %MON dynstat_uvel_sd              =   0.0000000000000E+00
(PID.TID 0000.0001) %MON dynstat_uvel_del2            =   0.0000000000000E+00
(PID.TID 0000.0001) %MON dynstat_vvel_max             =   0.0000000000000E+00
(PID.TID 0000.0001) %MON dynstat_vvel_min             =   0.0000000000000E+00
(PID.TID 0000.0001) %MON dynstat_vvel_mean            =   0.0000000000000E+00
(PID.TID 0000.0001) %MON dynstat_vvel_sd              =   0.0000000000000E+00
(PID.TID 0000.0001) %MON dynstat_vvel_del2            =   0.0000000000000E+00
(PID.TID 0000.0001) %MON dynstat_wvel_max             =   0.0000000000000E+00
(PID.TID 0000.0001) %MON dynstat_wvel_min             =   0.0000000000000E+00
(PID.TID 0000.0001) %MON dynstat_wvel_mean            =   0.0000000000000E+00
(PID.TID 0000.0001) %MON dynstat_wvel_sd              =   0.0000000000000E+00
(PID.TID 0000.0001) %MON dynstat_wvel_del2            =   0.0000000000000E+00
(PID.TID 0000.0001) %MON dynstat_theta_max            =   2.9733511003948E+01
(PID.TID 0000.0001) %MON dynstat_theta_min            =  -2.6263839329562E+00
(PID.TID 0000.0001) %MON dynstat_theta_mean           =   3.6018664655652E+00
(PID.TID 0000.0001) %MON dynstat_theta_sd             =   4.4018845380979E+00
(PID.TID 0000.0001) %MON dynstat_theta_del2           =   1.5429255071065E-01
(PID.TID 0000.0001) %MON dynstat_salt_max             =   3.7475629659304E+01
(PID.TID 0000.0001) %MON dynstat_salt_min             =   2.9752769471420E+01
(PID.TID 0000.0001) %MON dynstat_salt_mean            =   3.4718001015836E+01
(PID.TID 0000.0001) %MON dynstat_salt_sd              =   2.9462524950603E-01
(PID.TID 0000.0001) %MON dynstat_salt_del2            =   2.6846692931047E-02
(PID.TID 0000.0001) %MON advcfl_uvel_max              =   0.0000000000000E+00
(PID.TID 0000.0001) %MON advcfl_vvel_max              =   0.0000000000000E+00
(PID.TID 0000.0001) %MON advcfl_wvel_max              =   0.0000000000000E+00
(PID.TID 0000.0001) %MON advcfl_W_hf_max              =   0.0000000000000E+00
(PID.TID 0000.0001) %MON ke_max                       =   0.0000000000000E+00
(PID.TID 0000.0001) %MON ke_mean                      =   0.0000000000000E+00
(PID.TID 0000.0001) %MON ke_volint                    =   0.0000000000000E+00
(PID.TID 0000.0001) %MON ke_volmean                   =   0.0000000000000E+00
(PID.TID 0000.0001) %MON ke_vol                       =   1.3442141716555E+22
(PID.TID 0000.0001) %MON surfExpan_theta_mean         =   0.0000000000000E+00
(PID.TID 0000.0001) %MON surfExpan_salt_mean          =   0.0000000000000E+00
(PID.TID 0000.0001) // =======================================================
(PID.TID 0000.0001) // End MONITOR dynamic field statistics
(PID.TID 0000.0001) // =======================================================
 S/R EXTERNAL_FIELDS_LOAD: Reading new data  0. 0
(PID.TID 0000.0001)  MDSREADFIELD: opening global file: trenberth_taux.bin
(PID.TID 0000.0001)  MDSREADFIELD: opening global file: trenberth_taux.bin
(PID.TID 0000.0001)  MDSREADFIELD: opening global file: trenberth_tauy.bin
(PID.TID 0000.0001)  MDSREADFIELD: opening global file: trenberth_tauy.bin
(PID.TID 0000.0001)  MDSREADFIELD: opening global file: shi_qnet.bin
(PID.TID 0000.0001)  MDSREADFIELD: opening global file: shi_qnet.bin
(PID.TID 0000.0001)  MDSREADFIELD: opening global file: shi_empmr.bin
(PID.TID 0000.0001)  MDSREADFIELD: opening global file: shi_empmr.bin
(PID.TID 0000.0001)  MDSREADFIELD: opening global file: lev_sst.bin
(PID.TID 0000.0001)  MDSREADFIELD: opening global file: lev_sst.bin
(PID.TID 0000.0001)  MDSREADFIELD: opening global file: deltageopotjmd95.bin
(PID.TID 0000.0001)  MDSREADFIELD: opening global file: deltageopotjmd95.bin
time,SST,SSS,fu,fv,Q,E-P,i0,i1,a,b =   0.0000E+00  1.1337E-01  0.0000E+00 -4.0176E-02 -6.3320E-02  1.7257E+02 -2.0964E-09    12     1  5.3333E-01  4.6667E-01
time,fu0,fu1,fu =   0.0000E+00 -4.5368E-02 -3.5633E-02 -4.0176E-02  5.3333E-01  4.6667E-01
 cg2d: Sum(rhs),rhsMax =  -2.88657986402541E-15  1.71163423876591E+02
(PID.TID 0000.0001)                    cg2d_init_res =    9.36692222671518E+00
(PID.TID 0000.0001)                       cg2d_iters =   127
(PID.TID 0000.0001)                         cg2d_res =    9.83833320418810E-10
(PID.TID 0000.0001) // =======================================================
(PID.TID 0000.0001) // Begin MONITOR dynamic field statistics
(PID.TID 0000.0001) // =======================================================
(PID.TID 0000.0001) %MON time_tsnumber                =                     1
(PID.TID 0000.0001) %MON time_secondsf                =   1.7280000000000E+05
(PID.TID 0000.0001) %MON dynstat_eta_max              =   4.1657164209668E+04
(PID.TID 0000.0001) %MON dynstat_eta_min              =  -8.8276374837878E+04
(PID.TID 0000.0001) %MON dynstat_eta_mean             =   5.5395183361188E-14
(PID.TID 0000.0001) %MON dynstat_eta_sd               =   3.6901405583843E+04
(PID.TID 0000.0001) %MON dynstat_eta_del2             =   2.3562066921668E+04
(PID.TID 0000.0001) %MON dynstat_uvel_max             =   3.5125732101053E-02
(PID.TID 0000.0001) %MON dynstat_uvel_min             =  -3.5357448065302E-02
(PID.TID 0000.0001) %MON dynstat_uvel_mean            =  -8.4137049181950E-04
(PID.TID 0000.0001) %MON dynstat_uvel_sd              =   2.2142813775980E-03
(PID.TID 0000.0001) %MON dynstat_uvel_del2            =   7.7406251853897E-04
(PID.TID 0000.0001) %MON dynstat_vvel_max             =   3.5008028165360E-02
(PID.TID 0000.0001) %MON dynstat_vvel_min             =  -2.4496078954845E-02
(PID.TID 0000.0001) %MON dynstat_vvel_mean            =   1.0871907853492E-03
(PID.TID 0000.0001) %MON dynstat_vvel_sd              =   2.2888132791081E-03
(PID.TID 0000.0001) %MON dynstat_vvel_del2            =   7.6102756433688E-04
(PID.TID 0000.0001) %MON dynstat_wvel_max             =   5.0250185969979E-01
(PID.TID 0000.0001) %MON dynstat_wvel_min             =  -6.2689460745385E-01
(PID.TID 0000.0001) %MON dynstat_wvel_mean            =  -6.6718508621412E-03
(PID.TID 0000.0001) %MON dynstat_wvel_sd              =   1.5353628628495E-01
(PID.TID 0000.0001) %MON dynstat_wvel_del2            =   6.1610670018752E-02
(PID.TID 0000.0001) %MON dynstat_theta_max            =   2.9713265304180E+01
(PID.TID 0000.0001) %MON dynstat_theta_min            =  -2.6183664565810E+00
(PID.TID 0000.0001) %MON dynstat_theta_mean           =   3.6019910573989E+00
(PID.TID 0000.0001) %MON dynstat_theta_sd             =   4.4015315967483E+00
(PID.TID 0000.0001) %MON dynstat_theta_del2           =   1.5479567598383E-01
(PID.TID 0000.0001) %MON dynstat_salt_max             =   3.7478618521905E+01
(PID.TID 0000.0001) %MON dynstat_salt_min             =   2.9762213911218E+01
(PID.TID 0000.0001) %MON dynstat_salt_mean            =   3.4718001015835E+01
(PID.TID 0000.0001) %MON dynstat_salt_sd              =   2.9451022507207E-01
(PID.TID 0000.0001) %MON dynstat_salt_del2            =   2.6959492538962E-02
(PID.TID 0000.0001) %MON advcfl_uvel_max              =   2.1969227685393E-02
(PID.TID 0000.0001) %MON advcfl_vvel_max              =   1.3602996822520E-02
(PID.TID 0000.0001) %MON advcfl_wvel_max              =   4.1333629934457E-02
(PID.TID 0000.0001) %MON advcfl_W_hf_max              =   4.1333629934456E-02
(PID.TID 0000.0001) %MON ke_max                       =   5.7559084782333E-04
(PID.TID 0000.0001) %MON ke_mean                      =   8.3891499748743E-06
(PID.TID 0000.0001) %MON ke_volint                    =   7.2868557859839E+16
(PID.TID 0000.0001) %MON ke_volmean                   =   5.4209038556776E-06
(PID.TID 0000.0001) %MON ke_vol                       =   1.3442141716555E+22
(PID.TID 0000.0001) %MON surfExpan_theta_mean         =   6.7340147194929E-02
(PID.TID 0000.0001) %MON surfExpan_salt_mean          =  -2.2622016045718E-04
(PID.TID 0000.0001) // =======================================================
(PID.TID 0000.0001) // End MONITOR dynamic field statistics
(PID.TID 0000.0001) // =======================================================
time,SST,SSS,fu,fv,Q,E-P,i0,i1,a,b =   1.7280E+05  2.3410E-01  0.0000E+00 -3.9527E-02 -6.2453E-02  1.6404E+02 -2.0964E-09    12     1  6.0000E-01  4.0000E-01
time,fu0,fu1,fu =   1.7280E+05 -4.5368E-02 -3.5633E-02 -3.9527E-02  6.0000E-01  4.0000E-01
 cg2d: Sum(rhs),rhsMax =  -1.06858966120171E-15  1.71267580222182E+02
(PID.TID 0000.0001)                    cg2d_init_res =    1.01794299770443E-01
(PID.TID 0000.0001)                       cg2d_iters =   123
(PID.TID 0000.0001)                         cg2d_res =    9.57753869579672E-10
(PID.TID 0000.0001) // =======================================================
(PID.TID 0000.0001) // Begin MONITOR dynamic field statistics
(PID.TID 0000.0001) // =======================================================
(PID.TID 0000.0001) %MON time_tsnumber                =                     2
(PID.TID 0000.0001) %MON time_secondsf                =   3.4560000000000E+05
(PID.TID 0000.0001) %MON dynstat_eta_max              =   4.9059591382222E+04
(PID.TID 0000.0001) %MON dynstat_eta_min              =  -8.8162810556078E+04
(PID.TID 0000.0001) %MON dynstat_eta_mean             =  -1.1428054489703E-12
(PID.TID 0000.0001) %MON dynstat_eta_sd               =   3.9058934818513E+04
(PID.TID 0000.0001) %MON dynstat_eta_del2             =   2.3927719000611E+04
(PID.TID 0000.0001) %MON dynstat_uvel_max             =   6.3817590058470E-02
(PID.TID 0000.0001) %MON dynstat_uvel_min             =  -4.0729484374134E-02
(PID.TID 0000.0001) %MON dynstat_uvel_mean            =  -1.1793409450841E-03
(PID.TID 0000.0001) %MON dynstat_uvel_sd              =   2.2711799033506E-03
(PID.TID 0000.0001) %MON dynstat_uvel_del2            =   8.3258030366506E-04
(PID.TID 0000.0001) %MON dynstat_vvel_max             =   5.2440355891037E-02
(PID.TID 0000.0001) %MON dynstat_vvel_min             =  -3.0683550168839E-02
(PID.TID 0000.0001) %MON dynstat_vvel_mean            =   1.5436292774138E-03
(PID.TID 0000.0001) %MON dynstat_vvel_sd              =   2.9935050531913E-03
(PID.TID 0000.0001) %MON dynstat_vvel_del2            =   9.0430577451971E-04
(PID.TID 0000.0001) %MON dynstat_wvel_max             =   6.3530543090538E-01
(PID.TID 0000.0001) %MON dynstat_wvel_min             =  -7.8988081941650E-01
(PID.TID 0000.0001) %MON dynstat_wvel_mean            =  -3.4606453771529E-03
(PID.TID 0000.0001) %MON dynstat_wvel_sd              =   8.9539158838508E-02
(PID.TID 0000.0001) %MON dynstat_wvel_del2            =   4.6873933759365E-02
(PID.TID 0000.0001) %MON dynstat_theta_max            =   2.9688317749418E+01
(PID.TID 0000.0001) %MON dynstat_theta_min            =  -2.6127583359466E+00
(PID.TID 0000.0001) %MON dynstat_theta_mean           =   3.6019450086208E+00
(PID.TID 0000.0001) %MON dynstat_theta_sd             =   4.4012662190689E+00
(PID.TID 0000.0001) %MON dynstat_theta_del2           =   1.5406689430964E-01
(PID.TID 0000.0001) %MON dynstat_salt_max             =   3.7481694673612E+01
(PID.TID 0000.0001) %MON dynstat_salt_min             =   2.9765580136599E+01
(PID.TID 0000.0001) %MON dynstat_salt_mean            =   3.4718001573791E+01
(PID.TID 0000.0001) %MON dynstat_salt_sd              =   2.9441685774606E-01
(PID.TID 0000.0001) %MON dynstat_salt_del2            =   2.7040206794652E-02
(PID.TID 0000.0001) %MON advcfl_uvel_max              =   3.3710606642677E-02
(PID.TID 0000.0001) %MON advcfl_vvel_max              =   2.0376640214870E-02
(PID.TID 0000.0001) %MON advcfl_wvel_max              =   5.3538692458109E-02
(PID.TID 0000.0001) %MON advcfl_W_hf_max              =   5.3538692458109E-02
(PID.TID 0000.0001) %MON ke_max                       =   1.7223383282242E-03
(PID.TID 0000.0001) %MON ke_mean                      =   1.5636730161382E-05
(PID.TID 0000.0001) %MON ke_volint                    =   1.0822104496378E+17
(PID.TID 0000.0001) %MON ke_volmean                   =   8.0508781447001E-06
(PID.TID 0000.0001) %MON ke_vol                       =   1.3442141716555E+22
(PID.TID 0000.0001) %MON surfExpan_theta_mean         =   3.7294389976102E-02
(PID.TID 0000.0001) %MON surfExpan_salt_mean          =  -9.2827255706379E-05
(PID.TID 0000.0001) // =======================================================
(PID.TID 0000.0001) // End MONITOR dynamic field statistics
(PID.TID 0000.0001) // =======================================================
time,SST,SSS,fu,fv,Q,E-P,i0,i1,a,b =   3.4560E+05  3.5483E-01  0.0000E+00 -3.8878E-02 -6.1587E-02  1.5550E+02 -2.0964E-09    12     1  6.6667E-01  3.3333E-01
time,fu0,fu1,fu =   3.4560E+05 -4.5368E-02 -3.5633E-02 -3.8878E-02  6.6667E-01  3.3333E-01
 cg2d: Sum(rhs),rhsMax =  -1.13797860024079E-15  1.74083954891776E+02
(PID.TID 0000.0001)                    cg2d_init_res =    1.20008485872494E-01
(PID.TID 0000.0001)                       cg2d_iters =   118
(PID.TID 0000.0001)                         cg2d_res =    9.92347563857146E-10
(PID.TID 0000.0001) // =======================================================
(PID.TID 0000.0001) // Begin MONITOR dynamic field statistics
(PID.TID 0000.0001) // =======================================================
(PID.TID 0000.0001) %MON time_tsnumber                =                     3
(PID.TID 0000.0001) %MON time_secondsf                =   5.1840000000000E+05
(PID.TID 0000.0001) %MON dynstat_eta_max              =   5.1584750643846E+04
(PID.TID 0000.0001) %MON dynstat_eta_min              =  -9.1530872878422E+04
(PID.TID 0000.0001) %MON dynstat_eta_mean             =  -5.6807961606445E-12
(PID.TID 0000.0001) %MON dynstat_eta_sd               =   3.9855036950320E+04
(PID.TID 0000.0001) %MON dynstat_eta_del2             =   2.4103070175555E+04
(PID.TID 0000.0001) %MON dynstat_uvel_max             =   7.2155088009588E-02
(PID.TID 0000.0001) %MON dynstat_uvel_min             =  -5.2003352760148E-02
(PID.TID 0000.0001) %MON dynstat_uvel_mean            =  -1.1589308073153E-03
(PID.TID 0000.0001) %MON dynstat_uvel_sd              =   2.6995648189323E-03
(PID.TID 0000.0001) %MON dynstat_uvel_del2            =   1.1016923705230E-03
(PID.TID 0000.0001) %MON dynstat_vvel_max             =   5.4220559997333E-02
(PID.TID 0000.0001) %MON dynstat_vvel_min             =  -4.5474764587056E-02
(PID.TID 0000.0001) %MON dynstat_vvel_mean            =   1.5193906384125E-03
(PID.TID 0000.0001) %MON dynstat_vvel_sd              =   4.1638385750020E-03
(PID.TID 0000.0001) %MON dynstat_vvel_del2            =   1.2392346474441E-03
(PID.TID 0000.0001) %MON dynstat_wvel_max             =   8.9453760352411E-01
(PID.TID 0000.0001) %MON dynstat_wvel_min             =  -1.0789457277203E+00
(PID.TID 0000.0001) %MON dynstat_wvel_mean            =  -1.4004426914588E-03
(PID.TID 0000.0001) %MON dynstat_wvel_sd              =   1.2117963793933E-01
(PID.TID 0000.0001) %MON dynstat_wvel_del2            =   6.1789931280133E-02
(PID.TID 0000.0001) %MON dynstat_theta_max            =   2.9674928577836E+01
(PID.TID 0000.0001) %MON dynstat_theta_min            =  -2.6038654830590E+00
(PID.TID 0000.0001) %MON dynstat_theta_mean           =   3.6021588021168E+00
(PID.TID 0000.0001) %MON dynstat_theta_sd             =   4.4012808816414E+00
(PID.TID 0000.0001) %MON dynstat_theta_del2           =   1.5212358883879E-01
(PID.TID 0000.0001) %MON dynstat_salt_max             =   3.7435170789026E+01
(PID.TID 0000.0001) %MON dynstat_salt_min             =   2.9770529636624E+01
(PID.TID 0000.0001) %MON dynstat_salt_mean            =   3.4718001215684E+01
(PID.TID 0000.0001) %MON dynstat_salt_sd              =   2.9442239088274E-01
(PID.TID 0000.0001) %MON dynstat_salt_del2            =   2.6912900281271E-02
(PID.TID 0000.0001) %MON advcfl_uvel_max              =   4.2068212740257E-02
(PID.TID 0000.0001) %MON advcfl_vvel_max              =   2.1068370428494E-02
(PID.TID 0000.0001) %MON advcfl_wvel_max              =   6.7902478682620E-02
(PID.TID 0000.0001) %MON advcfl_W_hf_max              =   6.7902478682620E-02
(PID.TID 0000.0001) %MON ke_max                       =   2.0416202791519E-03
(PID.TID 0000.0001) %MON ke_mean                      =   2.9045483918206E-05
(PID.TID 0000.0001) %MON ke_volint                    =   1.7091562421493E+17
(PID.TID 0000.0001) %MON ke_volmean                   =   1.2714910154862E-05
(PID.TID 0000.0001) %MON ke_vol                       =   1.3442141716555E+22
(PID.TID 0000.0001) %MON surfExpan_theta_mean         =   1.7195302386075E-02
(PID.TID 0000.0001) %MON surfExpan_salt_mean          =  -2.9996878480725E-04
(PID.TID 0000.0001) // =======================================================
(PID.TID 0000.0001) // End MONITOR dynamic field statistics
(PID.TID 0000.0001) // =======================================================
time,SST,SSS,fu,fv,Q,E-P,i0,i1,a,b =   5.1840E+05  4.7556E-01  0.0000E+00 -3.8229E-02 -6.0721E-02  1.4696E+02 -2.0964E-09    12     1  7.3333E-01  2.6667E-01
time,fu0,fu1,fu =   5.1840E+05 -4.5368E-02 -3.5633E-02 -3.8229E-02  7.3333E-01  2.6667E-01
 cg2d: Sum(rhs),rhsMax =   4.71844785465692E-16  1.72906958481208E+02
(PID.TID 0000.0001)                    cg2d_init_res =    5.70938754444388E-02
(PID.TID 0000.0001)                       cg2d_iters =   118
(PID.TID 0000.0001)                         cg2d_res =    8.98257380385562E-10
(PID.TID 0000.0001) // =======================================================
(PID.TID 0000.0001) // Begin MONITOR dynamic field statistics
(PID.TID 0000.0001) // =======================================================
(PID.TID 0000.0001) %MON time_tsnumber                =                     4
(PID.TID 0000.0001) %MON time_secondsf                =   6.9120000000000E+05
(PID.TID 0000.0001) %MON dynstat_eta_max              =   5.1162651647453E+04
(PID.TID 0000.0001) %MON dynstat_eta_min              =  -9.2933474067320E+04
(PID.TID 0000.0001) %MON dynstat_eta_mean             =  -1.3534922301565E-12
(PID.TID 0000.0001) %MON dynstat_eta_sd               =   4.0223840343035E+04
(PID.TID 0000.0001) %MON dynstat_eta_del2             =   2.3960180431717E+04
(PID.TID 0000.0001) %MON dynstat_uvel_max             =   6.1630747036713E-02
(PID.TID 0000.0001) %MON dynstat_uvel_min             =  -7.8246488144578E-02
(PID.TID 0000.0001) %MON dynstat_uvel_mean            =  -8.8490728759288E-04
(PID.TID 0000.0001) %MON dynstat_uvel_sd              =   3.1000998692412E-03
(PID.TID 0000.0001) %MON dynstat_uvel_del2            =   1.3416645542997E-03
(PID.TID 0000.0001) %MON dynstat_vvel_max             =   5.0831870933266E-02
(PID.TID 0000.0001) %MON dynstat_vvel_min             =  -5.9436019689171E-02
(PID.TID 0000.0001) %MON dynstat_vvel_mean            =   1.2018593562530E-03
(PID.TID 0000.0001) %MON dynstat_vvel_sd              =   5.2702743441085E-03
(PID.TID 0000.0001) %MON dynstat_vvel_del2            =   1.5549719246177E-03
(PID.TID 0000.0001) %MON dynstat_wvel_max             =   1.1542803201650E+00
(PID.TID 0000.0001) %MON dynstat_wvel_min             =  -1.3277612296262E+00
(PID.TID 0000.0001) %MON dynstat_wvel_mean            =  -9.6886406582435E-04
(PID.TID 0000.0001) %MON dynstat_wvel_sd              =   1.4926773302987E-01
(PID.TID 0000.0001) %MON dynstat_wvel_del2            =   7.3872783647829E-02
(PID.TID 0000.0001) %MON dynstat_theta_max            =   2.9664885641117E+01
(PID.TID 0000.0001) %MON dynstat_theta_min            =  -2.5955183336014E+00
(PID.TID 0000.0001) %MON dynstat_theta_mean           =   3.6023465308403E+00
(PID.TID 0000.0001) %MON dynstat_theta_sd             =   4.4013279457077E+00
(PID.TID 0000.0001) %MON dynstat_theta_del2           =   1.4997250247807E-01
(PID.TID 0000.0001) %MON dynstat_salt_max             =   3.7435124460946E+01
(PID.TID 0000.0001) %MON dynstat_salt_min             =   2.9775136316061E+01
(PID.TID 0000.0001) %MON dynstat_salt_mean            =   3.4718001763336E+01
(PID.TID 0000.0001) %MON dynstat_salt_sd              =   2.9441631982412E-01
(PID.TID 0000.0001) %MON dynstat_salt_del2            =   2.6758691962621E-02
(PID.TID 0000.0001) %MON advcfl_uvel_max              =   4.9511944035227E-02
(PID.TID 0000.0001) %MON advcfl_vvel_max              =   2.3094930772908E-02
(PID.TID 0000.0001) %MON advcfl_wvel_max              =   8.2189007309145E-02
(PID.TID 0000.0001) %MON advcfl_W_hf_max              =   8.2189007309145E-02
(PID.TID 0000.0001) %MON ke_max                       =   2.4154668041111E-03
(PID.TID 0000.0001) %MON ke_mean                      =   4.6210440697578E-05
(PID.TID 0000.0001) %MON ke_volint                    =   2.3933386302635E+17
(PID.TID 0000.0001) %MON ke_volmean                   =   1.7804741838987E-05
(PID.TID 0000.0001) %MON ke_vol                       =   1.3442141716555E+22
(PID.TID 0000.0001) %MON surfExpan_theta_mean         =   9.8914453152606E-03
(PID.TID 0000.0001) %MON surfExpan_salt_mean          =  -2.3690663991720E-04
(PID.TID 0000.0001) // =======================================================
(PID.TID 0000.0001) // End MONITOR dynamic field statistics
(PID.TID 0000.0001) // =======================================================
time,SST,SSS,fu,fv,Q,E-P,i0,i1,a,b =   6.9120E+05  5.9629E-01  0.0000E+00 -3.7580E-02 -5.9855E-02  1.3842E+02 -2.0964E-09    12     1  8.0000E-01  2.0000E-01
time,fu0,fu1,fu =   6.9120E+05 -4.5368E-02 -3.5633E-02 -3.7580E-02  8.0000E-01  2.0000E-01
 cg2d: Sum(rhs),rhsMax =  -3.60822483003176E-15  1.72949317673379E+02
(PID.TID 0000.0001)                    cg2d_init_res =    4.88387340037983E-03
(PID.TID 0000.0001)                       cg2d_iters =   113
(PID.TID 0000.0001)                         cg2d_res =    8.42051568442045E-10
(PID.TID 0000.0001) // =======================================================
(PID.TID 0000.0001) // Begin MONITOR dynamic field statistics
(PID.TID 0000.0001) // =======================================================
(PID.TID 0000.0001) %MON time_tsnumber                =                     5
(PID.TID 0000.0001) %MON time_secondsf                =   8.6400000000000E+05
(PID.TID 0000.0001) %MON dynstat_eta_max              =   5.8881416968525E+04
(PID.TID 0000.0001) %MON dynstat_eta_min              =  -9.4335023513711E+04
(PID.TID 0000.0001) %MON dynstat_eta_mean             =   3.0211266497196E-12
(PID.TID 0000.0001) %MON dynstat_eta_sd               =   4.0649752571123E+04
(PID.TID 0000.0001) %MON dynstat_eta_del2             =   2.3955372078010E+04
(PID.TID 0000.0001) %MON dynstat_uvel_max             =   5.9542233382844E-02
(PID.TID 0000.0001) %MON dynstat_uvel_min             =  -9.1899907685226E-02
(PID.TID 0000.0001) %MON dynstat_uvel_mean            =  -4.7161278074620E-04
(PID.TID 0000.0001) %MON dynstat_uvel_sd              =   3.5762713404496E-03
(PID.TID 0000.0001) %MON dynstat_uvel_del2            =   1.5492948389306E-03
(PID.TID 0000.0001) %MON dynstat_vvel_max             =   6.0693704700667E-02
(PID.TID 0000.0001) %MON dynstat_vvel_min             =  -7.2177301832169E-02
(PID.TID 0000.0001) %MON dynstat_vvel_mean            =   7.4596197988439E-04
(PID.TID 0000.0001) %MON dynstat_vvel_sd              =   6.3120000306947E-03
(PID.TID 0000.0001) %MON dynstat_vvel_del2            =   1.8427603879136E-03
(PID.TID 0000.0001) %MON dynstat_wvel_max             =   1.4030604246704E+00
(PID.TID 0000.0001) %MON dynstat_wvel_min             =  -1.5219802683593E+00
(PID.TID 0000.0001) %MON dynstat_wvel_mean            =  -6.8209040436743E-04
(PID.TID 0000.0001) %MON dynstat_wvel_sd              =   1.7371085667810E-01
(PID.TID 0000.0001) %MON dynstat_wvel_del2            =   8.3526074959257E-02
(PID.TID 0000.0001) %MON dynstat_theta_max            =   2.9661584581264E+01
(PID.TID 0000.0001) %MON dynstat_theta_min            =  -2.5873156369091E+00
(PID.TID 0000.0001) %MON dynstat_theta_mean           =   3.6024987102323E+00
(PID.TID 0000.0001) %MON dynstat_theta_sd             =   4.4013890135314E+00
(PID.TID 0000.0001) %MON dynstat_theta_del2           =   1.4774114569053E-01
(PID.TID 0000.0001) %MON dynstat_salt_max             =   3.7435035213700E+01
(PID.TID 0000.0001) %MON dynstat_salt_min             =   2.9777821973459E+01
(PID.TID 0000.0001) %MON dynstat_salt_mean            =   3.4718001593977E+01
(PID.TID 0000.0001) %MON dynstat_salt_sd              =   2.9441814740208E-01
(PID.TID 0000.0001) %MON dynstat_salt_del2            =   2.6634272067054E-02
(PID.TID 0000.0001) %MON advcfl_uvel_max              =   5.3935896590563E-02
(PID.TID 0000.0001) %MON advcfl_vvel_max              =   2.8045784322482E-02
(PID.TID 0000.0001) %MON advcfl_wvel_max              =   9.5632085451537E-02
(PID.TID 0000.0001) %MON advcfl_W_hf_max              =   9.5632085451537E-02
(PID.TID 0000.0001) %MON ke_max                       =   3.6365775553104E-03
(PID.TID 0000.0001) %MON ke_mean                      =   6.6954900151241E-05
(PID.TID 0000.0001) %MON ke_volint                    =   3.2262168721192E+17
(PID.TID 0000.0001) %MON ke_volmean                   =   2.4000765206528E-05
(PID.TID 0000.0001) %MON ke_vol                       =   1.3442141716555E+22
(PID.TID 0000.0001) %MON surfExpan_theta_mean         =   5.9596725627793E-03
(PID.TID 0000.0001) %MON surfExpan_salt_mean          =  -1.1299826257689E-04
(PID.TID 0000.0001) // =======================================================
(PID.TID 0000.0001) // End MONITOR dynamic field statistics
(PID.TID 0000.0001) // =======================================================
time,SST,SSS,fu,fv,Q,E-P,i0,i1,a,b =   8.6400E+05  7.1702E-01  0.0000E+00 -3.6931E-02 -5.8989E-02  1.2989E+02 -2.0964E-09    12     1  8.6667E-01  1.3333E-01
time,fu0,fu1,fu =   8.6400E+05 -4.5368E-02 -3.5633E-02 -3.6931E-02  8.6667E-01  1.3333E-01
 cg2d: Sum(rhs),rhsMax =   3.53883589099269E-15  1.72918947977844E+02
(PID.TID 0000.0001)                    cg2d_init_res =    3.71456365245234E-03
(PID.TID 0000.0001)                       cg2d_iters =   111
(PID.TID 0000.0001)                         cg2d_res =    8.09859177149984E-10
(PID.TID 0000.0001) // =======================================================
(PID.TID 0000.0001) // Begin MONITOR dynamic field statistics
(PID.TID 0000.0001) // =======================================================
(PID.TID 0000.0001) %MON time_tsnumber                =                     6
(PID.TID 0000.0001) %MON time_secondsf                =   1.0368000000000E+06
(PID.TID 0000.0001) %MON dynstat_eta_max              =   6.2244324073010E+04
(PID.TID 0000.0001) %MON dynstat_eta_min              =  -9.5050345628823E+04
(PID.TID 0000.0001) %MON dynstat_eta_mean             =  -5.1492206895121E-12
(PID.TID 0000.0001) %MON dynstat_eta_sd               =   4.0792043842031E+04
(PID.TID 0000.0001) %MON dynstat_eta_del2             =   2.3952991676629E+04
(PID.TID 0000.0001) %MON dynstat_uvel_max             =   7.3968961265098E-02
(PID.TID 0000.0001) %MON dynstat_uvel_min             =  -9.0318419460010E-02
(PID.TID 0000.0001) %MON dynstat_uvel_mean            =  -3.9820502920341E-05
(PID.TID 0000.0001) %MON dynstat_uvel_sd              =   4.2128478575411E-03
(PID.TID 0000.0001) %MON dynstat_uvel_del2            =   1.7349021075985E-03
(PID.TID 0000.0001) %MON dynstat_vvel_max             =   6.9117720525318E-02
(PID.TID 0000.0001) %MON dynstat_vvel_min             =  -8.3438453652955E-02
(PID.TID 0000.0001) %MON dynstat_vvel_mean            =   2.8100986514703E-04
(PID.TID 0000.0001) %MON dynstat_vvel_sd              =   7.2908124247163E-03
(PID.TID 0000.0001) %MON dynstat_vvel_del2            =   2.1073249549426E-03
(PID.TID 0000.0001) %MON dynstat_wvel_max             =   1.6186863460645E+00
(PID.TID 0000.0001) %MON dynstat_wvel_min             =  -1.6533847473020E+00
(PID.TID 0000.0001) %MON dynstat_wvel_mean            =  -3.9051555873647E-04
(PID.TID 0000.0001) %MON dynstat_wvel_sd              =   1.9506760759875E-01
(PID.TID 0000.0001) %MON dynstat_wvel_del2            =   9.1352904414931E-02
(PID.TID 0000.0001) %MON dynstat_theta_max            =   2.9706290281551E+01
(PID.TID 0000.0001) %MON dynstat_theta_min            =  -2.5961456544946E+00
(PID.TID 0000.0001) %MON dynstat_theta_mean           =   3.6026391073037E+00
(PID.TID 0000.0001) %MON dynstat_theta_sd             =   4.4014689080942E+00
(PID.TID 0000.0001) %MON dynstat_theta_del2           =   1.4563139153713E-01
(PID.TID 0000.0001) %MON dynstat_salt_max             =   3.7434853102558E+01
(PID.TID 0000.0001) %MON dynstat_salt_min             =   2.9778881048801E+01
(PID.TID 0000.0001) %MON dynstat_salt_mean            =   3.4718001262331E+01
(PID.TID 0000.0001) %MON dynstat_salt_sd              =   2.9441943839497E-01
(PID.TID 0000.0001) %MON dynstat_salt_del2            =   2.6516131933830E-02
(PID.TID 0000.0001) %MON advcfl_uvel_max              =   5.3875431415348E-02
(PID.TID 0000.0001) %MON advcfl_vvel_max              =   3.2421506705716E-02
(PID.TID 0000.0001) %MON advcfl_wvel_max              =   1.0549853733095E-01
(PID.TID 0000.0001) %MON advcfl_W_hf_max              =   1.0549853733095E-01
(PID.TID 0000.0001) %MON ke_max                       =   3.8292985327321E-03
(PID.TID 0000.0001) %MON ke_mean                      =   9.1380524167234E-05
(PID.TID 0000.0001) %MON ke_volint                    =   4.2880806366294E+17
(PID.TID 0000.0001) %MON ke_volmean                   =   3.1900278445571E-05
(PID.TID 0000.0001) %MON ke_vol                       =   1.3442141716555E+22
(PID.TID 0000.0001) %MON surfExpan_theta_mean         =   2.1244259629795E-03
(PID.TID 0000.0001) %MON surfExpan_salt_mean          =  -5.6944617775468E-05
(PID.TID 0000.0001) // =======================================================
(PID.TID 0000.0001) // End MONITOR dynamic field statistics
(PID.TID 0000.0001) // =======================================================
time,SST,SSS,fu,fv,Q,E-P,i0,i1,a,b =   1.0368E+06  8.3775E-01  0.0000E+00 -3.6282E-02 -5.8123E-02  1.2135E+02 -2.0964E-09    12     1  9.3333E-01  6.6667E-02
time,fu0,fu1,fu =   1.0368E+06 -4.5368E-02 -3.5633E-02 -3.6282E-02  9.3333E-01  6.6667E-02
 cg2d: Sum(rhs),rhsMax =   4.10782519111308E-15  1.72939349742170E+02
(PID.TID 0000.0001)                    cg2d_init_res =    3.65012559054540E-03
(PID.TID 0000.0001)                       cg2d_iters =   110
(PID.TID 0000.0001)                         cg2d_res =    9.80845586424596E-10
(PID.TID 0000.0001) // =======================================================
(PID.TID 0000.0001) // Begin MONITOR dynamic field statistics
(PID.TID 0000.0001) // =======================================================
(PID.TID 0000.0001) %MON time_tsnumber                =                     7
(PID.TID 0000.0001) %MON time_secondsf                =   1.2096000000000E+06
(PID.TID 0000.0001) %MON dynstat_eta_max              =   6.1109250679963E+04
(PID.TID 0000.0001) %MON dynstat_eta_min              =  -9.5039069850254E+04
(PID.TID 0000.0001) %MON dynstat_eta_mean             =   1.0914124074418E-12
(PID.TID 0000.0001) %MON dynstat_eta_sd               =   4.0653474933680E+04
(PID.TID 0000.0001) %MON dynstat_eta_del2             =   2.3955432011365E+04
(PID.TID 0000.0001) %MON dynstat_uvel_max             =   8.8182332731728E-02
(PID.TID 0000.0001) %MON dynstat_uvel_min             =  -7.5629732500959E-02
(PID.TID 0000.0001) %MON dynstat_uvel_mean            =   3.1561091008037E-04
(PID.TID 0000.0001) %MON dynstat_uvel_sd              =   4.9827210527094E-03
(PID.TID 0000.0001) %MON dynstat_uvel_del2            =   1.8989761810630E-03
(PID.TID 0000.0001) %MON dynstat_vvel_max             =   7.6046995162209E-02
(PID.TID 0000.0001) %MON dynstat_vvel_min             =  -9.4858475713763E-02
(PID.TID 0000.0001) %MON dynstat_vvel_mean            =  -9.4576921156093E-05
(PID.TID 0000.0001) %MON dynstat_vvel_sd              =   8.1821149057065E-03
(PID.TID 0000.0001) %MON dynstat_vvel_del2            =   2.3429559434652E-03
(PID.TID 0000.0001) %MON dynstat_wvel_max             =   1.7924328452151E+00
(PID.TID 0000.0001) %MON dynstat_wvel_min             =  -1.7238688711736E+00
(PID.TID 0000.0001) %MON dynstat_wvel_mean            =  -8.3551401166881E-05
(PID.TID 0000.0001) %MON dynstat_wvel_sd              =   2.1270487095159E-01
(PID.TID 0000.0001) %MON dynstat_wvel_del2            =   9.7137759928604E-02
(PID.TID 0000.0001) %MON dynstat_theta_max            =   2.9752543880735E+01
(PID.TID 0000.0001) %MON dynstat_theta_min            =  -2.6766354775565E+00
(PID.TID 0000.0001) %MON dynstat_theta_mean           =   3.6027764469208E+00
(PID.TID 0000.0001) %MON dynstat_theta_sd             =   4.4015745511566E+00
(PID.TID 0000.0001) %MON dynstat_theta_del2           =   1.4394079135416E-01
(PID.TID 0000.0001) %MON dynstat_salt_max             =   3.7434626153430E+01
(PID.TID 0000.0001) %MON dynstat_salt_min             =   2.9778931330819E+01
(PID.TID 0000.0001) %MON dynstat_salt_mean            =   3.4718001110915E+01
(PID.TID 0000.0001) %MON dynstat_salt_sd              =   2.9442001315522E-01
(PID.TID 0000.0001) %MON dynstat_salt_del2            =   2.6437587758929E-02
(PID.TID 0000.0001) %MON advcfl_uvel_max              =   5.8294803785466E-02
(PID.TID 0000.0001) %MON advcfl_vvel_max              =   3.6858960968278E-02
(PID.TID 0000.0001) %MON advcfl_wvel_max              =   1.1179256453005E-01
(PID.TID 0000.0001) %MON advcfl_W_hf_max              =   1.1179256453005E-01
(PID.TID 0000.0001) %MON ke_max                       =   5.0505337729501E-03
(PID.TID 0000.0001) %MON ke_mean                      =   1.1892341406099E-04
(PID.TID 0000.0001) %MON ke_volint                    =   5.5517355818037E+17
(PID.TID 0000.0001) %MON ke_volmean                   =   4.1300974940371E-05
(PID.TID 0000.0001) %MON ke_vol                       =   1.3442141716555E+22
(PID.TID 0000.0001) %MON surfExpan_theta_mean         =  -1.6216446337023E-03
(PID.TID 0000.0001) %MON surfExpan_salt_mean          =  -5.2040561704713E-05
(PID.TID 0000.0001) // =======================================================
(PID.TID 0000.0001) // End MONITOR dynamic field statistics
(PID.TID 0000.0001) // =======================================================
 S/R EXTERNAL_FIELDS_LOAD: Reading new data  1209600. 7
(PID.TID 0000.0001)  MDSREADFIELD: opening global file: trenberth_taux.bin
(PID.TID 0000.0001)  MDSREADFIELD: opening global file: trenberth_taux.bin
(PID.TID 0000.0001)  MDSREADFIELD: opening global file: trenberth_tauy.bin
(PID.TID 0000.0001)  MDSREADFIELD: opening global file: trenberth_tauy.bin
(PID.TID 0000.0001)  MDSREADFIELD: opening global file: shi_qnet.bin
(PID.TID 0000.0001)  MDSREADFIELD: opening global file: shi_qnet.bin
(PID.TID 0000.0001)  MDSREADFIELD: opening global file: shi_empmr.bin
(PID.TID 0000.0001)  MDSREADFIELD: opening global file: shi_empmr.bin
(PID.TID 0000.0001)  MDSREADFIELD: opening global file: lev_sst.bin
(PID.TID 0000.0001)  MDSREADFIELD: opening global file: lev_sst.bin
(PID.TID 0000.0001)  MDSREADFIELD: opening global file: deltageopotjmd95.bin
(PID.TID 0000.0001)  MDSREADFIELD: opening global file: deltageopotjmd95.bin
time,SST,SSS,fu,fv,Q,E-P,i0,i1,a,b =   1.2096E+06  9.5848E-01  0.0000E+00 -3.5633E-02 -5.7257E-02  1.1281E+02 -2.0964E-09     1     2  0.0000E+00  1.0000E+00
time,fu0,fu1,fu =   1.2096E+06 -3.5633E-02 -1.4435E-02 -3.5633E-02  0.0000E+00  1.0000E+00
 cg2d: Sum(rhs),rhsMax =   3.19189119579733E-15  1.72951962045865E+02
(PID.TID 0000.0001)                    cg2d_init_res =    3.90172128986058E-03
(PID.TID 0000.0001)                       cg2d_iters =   109
(PID.TID 0000.0001)                         cg2d_res =    9.59289920725507E-10
(PID.TID 0000.0001) // =======================================================
(PID.TID 0000.0001) // Begin MONITOR dynamic field statistics
(PID.TID 0000.0001) // =======================================================
(PID.TID 0000.0001) %MON time_tsnumber                =                     8
(PID.TID 0000.0001) %MON time_secondsf                =   1.3824000000000E+06
(PID.TID 0000.0001) %MON dynstat_eta_max              =   5.6514989831335E+04
(PID.TID 0000.0001) %MON dynstat_eta_min              =  -9.4419302642249E+04
(PID.TID 0000.0001) %MON dynstat_eta_mean             =   7.3665744391774E-12
(PID.TID 0000.0001) %MON dynstat_eta_sd               =   4.0354525778471E+04
(PID.TID 0000.0001) %MON dynstat_eta_del2             =   2.3957698764231E+04
(PID.TID 0000.0001) %MON dynstat_uvel_max             =   1.0171398795349E-01
(PID.TID 0000.0001) %MON dynstat_uvel_min             =  -6.5373976691194E-02
(PID.TID 0000.0001) %MON dynstat_uvel_mean            =   5.4080895966687E-04
(PID.TID 0000.0001) %MON dynstat_uvel_sd              =   5.8248399066468E-03
(PID.TID 0000.0001) %MON dynstat_uvel_del2            =   2.0391241669247E-03
(PID.TID 0000.0001) %MON dynstat_vvel_max             =   8.1479850845681E-02
(PID.TID 0000.0001) %MON dynstat_vvel_min             =  -1.0475008603540E-01
(PID.TID 0000.0001) %MON dynstat_vvel_mean            =  -3.2789985870451E-04
(PID.TID 0000.0001) %MON dynstat_vvel_sd              =   8.9604401825701E-03
(PID.TID 0000.0001) %MON dynstat_vvel_del2            =   2.5435329042378E-03
(PID.TID 0000.0001) %MON dynstat_wvel_max             =   1.9178194228735E+00
(PID.TID 0000.0001) %MON dynstat_wvel_min             =  -1.7395775508589E+00
(PID.TID 0000.0001) %MON dynstat_wvel_mean            =   1.7921693001231E-04
(PID.TID 0000.0001) %MON dynstat_wvel_sd              =   2.2625338812863E-01
(PID.TID 0000.0001) %MON dynstat_wvel_del2            =   1.0079171545835E-01
(PID.TID 0000.0001) %MON dynstat_theta_max            =   2.9804755588407E+01
(PID.TID 0000.0001) %MON dynstat_theta_min            =  -2.7604625876004E+00
(PID.TID 0000.0001) %MON dynstat_theta_mean           =   3.6029089311796E+00
(PID.TID 0000.0001) %MON dynstat_theta_sd             =   4.4017030902470E+00
(PID.TID 0000.0001) %MON dynstat_theta_del2           =   1.4262502466445E-01
(PID.TID 0000.0001) %MON dynstat_salt_max             =   3.7434369393852E+01
(PID.TID 0000.0001) %MON dynstat_salt_min             =   2.9778295919794E+01
(PID.TID 0000.0001) %MON dynstat_salt_mean            =   3.4718001096307E+01
(PID.TID 0000.0001) %MON dynstat_salt_sd              =   2.9442252707936E-01
(PID.TID 0000.0001) %MON dynstat_salt_del2            =   2.6381997383729E-02
(PID.TID 0000.0001) %MON advcfl_uvel_max              =   6.7240191842336E-02
(PID.TID 0000.0001) %MON advcfl_vvel_max              =   4.0702523454553E-02
(PID.TID 0000.0001) %MON advcfl_wvel_max              =   1.1933374770297E-01
(PID.TID 0000.0001) %MON advcfl_W_hf_max              =   1.1933374770297E-01
(PID.TID 0000.0001) %MON ke_max                       =   6.3506355195381E-03
(PID.TID 0000.0001) %MON ke_mean                      =   1.4861119398249E-04
(PID.TID 0000.0001) %MON ke_volint                    =   6.9273822808860E+17
(PID.TID 0000.0001) %MON ke_volmean                   =   5.1534810649662E-05
(PID.TID 0000.0001) %MON ke_vol                       =   1.3442141716555E+22
(PID.TID 0000.0001) %MON surfExpan_theta_mean         =  -4.3260682061603E-03
(PID.TID 0000.0001) %MON surfExpan_salt_mean          =  -5.5410459980045E-05
(PID.TID 0000.0001) // =======================================================
(PID.TID 0000.0001) // End MONITOR dynamic field statistics
(PID.TID 0000.0001) // =======================================================
time,SST,SSS,fu,fv,Q,E-P,i0,i1,a,b =   1.3824E+06  8.5911E-01  0.0000E+00 -3.4220E-02 -5.4615E-02  1.1534E+02 -2.0964E-09     1     2  6.6667E-02  9.3333E-01
time,fu0,fu1,fu =   1.3824E+06 -3.5633E-02 -1.4435E-02 -3.4220E-02  6.6667E-02  9.3333E-01
 cg2d: Sum(rhs),rhsMax =  -2.35922392732846E-16  1.72966331648466E+02
(PID.TID 0000.0001)                    cg2d_init_res =    3.93719058274058E-03
(PID.TID 0000.0001)                       cg2d_iters =   108
(PID.TID 0000.0001)                         cg2d_res =    9.28109999923173E-10
(PID.TID 0000.0001) // =======================================================
(PID.TID 0000.0001) // Begin MONITOR dynamic field statistics
(PID.TID 0000.0001) // =======================================================
(PID.TID 0000.0001) %MON time_tsnumber                =                     9
(PID.TID 0000.0001) %MON time_secondsf                =   1.5552000000000E+06
(PID.TID 0000.0001) %MON dynstat_eta_max              =   5.2378855855024E+04
(PID.TID 0000.0001) %MON dynstat_eta_min              =  -9.3570962612878E+04
(PID.TID 0000.0001) %MON dynstat_eta_mean             =  -1.2956669507939E-12
(PID.TID 0000.0001) %MON dynstat_eta_sd               =   4.0033329402193E+04
(PID.TID 0000.0001) %MON dynstat_eta_del2             =   2.3959183367908E+04
(PID.TID 0000.0001) %MON dynstat_uvel_max             =   1.1447422984748E-01
(PID.TID 0000.0001) %MON dynstat_uvel_min             =  -6.6935328284197E-02
(PID.TID 0000.0001) %MON dynstat_uvel_mean            =   6.2401924785869E-04
(PID.TID 0000.0001) %MON dynstat_uvel_sd              =   6.7057888129545E-03
(PID.TID 0000.0001) %MON dynstat_uvel_del2            =   2.1568872664205E-03
(PID.TID 0000.0001) %MON dynstat_vvel_max             =   8.4918323492845E-02
(PID.TID 0000.0001) %MON dynstat_vvel_min             =  -1.1294331713084E-01
(PID.TID 0000.0001) %MON dynstat_vvel_mean            =  -4.1343294210915E-04
(PID.TID 0000.0001) %MON dynstat_vvel_sd              =   9.6108696650450E-03
(PID.TID 0000.0001) %MON dynstat_vvel_del2            =   2.7073300239221E-03
(PID.TID 0000.0001) %MON dynstat_wvel_max             =   1.9915491397802E+00
(PID.TID 0000.0001) %MON dynstat_wvel_min             =  -1.7059097959329E+00
(PID.TID 0000.0001) %MON dynstat_wvel_mean            =   3.5941584998867E-04
(PID.TID 0000.0001) %MON dynstat_wvel_sd              =   2.3565705468831E-01
(PID.TID 0000.0001) %MON dynstat_wvel_del2            =   1.0246403934776E-01
(PID.TID 0000.0001) %MON dynstat_theta_max            =   2.9845494120338E+01
(PID.TID 0000.0001) %MON dynstat_theta_min            =  -2.8334054721775E+00
(PID.TID 0000.0001) %MON dynstat_theta_mean           =   3.6030340854521E+00
(PID.TID 0000.0001) %MON dynstat_theta_sd             =   4.4018517462702E+00
(PID.TID 0000.0001) %MON dynstat_theta_del2           =   1.4178564730145E-01
(PID.TID 0000.0001) %MON dynstat_salt_max             =   3.7434095813404E+01
(PID.TID 0000.0001) %MON dynstat_salt_min             =   2.9777152586886E+01
(PID.TID 0000.0001) %MON dynstat_salt_mean            =   3.4718001104385E+01
(PID.TID 0000.0001) %MON dynstat_salt_sd              =   2.9442157545941E-01
(PID.TID 0000.0001) %MON dynstat_salt_del2            =   2.6367853969261E-02
(PID.TID 0000.0001) %MON advcfl_uvel_max              =   7.5675620736328E-02
(PID.TID 0000.0001) %MON advcfl_vvel_max              =   4.3886150250982E-02
(PID.TID 0000.0001) %MON advcfl_wvel_max              =   1.2739520161771E-01
(PID.TID 0000.0001) %MON advcfl_W_hf_max              =   1.2739520161771E-01
(PID.TID 0000.0001) %MON ke_max                       =   7.7148944821647E-03
(PID.TID 0000.0001) %MON ke_mean                      =   1.7961807123562E-04
(PID.TID 0000.0001) %MON ke_volint                    =   8.3369233910864E+17
(PID.TID 0000.0001) %MON ke_volmean                   =   6.2020796736719E-05
(PID.TID 0000.0001) %MON ke_vol                       =   1.3442141716555E+22
(PID.TID 0000.0001) %MON surfExpan_theta_mean         =  -5.4509931503828E-03
(PID.TID 0000.0001) %MON surfExpan_salt_mean          =  -5.3720855886065E-05
(PID.TID 0000.0001) // =======================================================
(PID.TID 0000.0001) // End MONITOR dynamic field statistics
(PID.TID 0000.0001) // =======================================================
time,SST,SSS,fu,fv,Q,E-P,i0,i1,a,b =   1.5552E+06  7.5973E-01  0.0000E+00 -3.2807E-02 -5.1974E-02  1.1787E+02 -2.0964E-09     1     2  1.3333E-01  8.6667E-01
time,fu0,fu1,fu =   1.5552E+06 -3.5633E-02 -1.4435E-02 -3.2807E-02  1.3333E-01  8.6667E-01
 cg2d: Sum(rhs),rhsMax =  -1.36002320516582E-15  1.72979028113551E+02
(PID.TID 0000.0001)                    cg2d_init_res =    3.62496388586840E-03
(PID.TID 0000.0001)                       cg2d_iters =   108
(PID.TID 0000.0001)                         cg2d_res =    8.85436474728325E-10
(PID.TID 0000.0001) // =======================================================
(PID.TID 0000.0001) // Begin MONITOR dynamic field statistics
(PID.TID 0000.0001) // =======================================================
(PID.TID 0000.0001) %MON time_tsnumber                =                    10
(PID.TID 0000.0001) %MON time_secondsf                =   1.7280000000000E+06
(PID.TID 0000.0001) %MON dynstat_eta_max              =   5.1468636178976E+04
(PID.TID 0000.0001) %MON dynstat_eta_min              =  -9.2855324786781E+04
(PID.TID 0000.0001) %MON dynstat_eta_mean             =  -4.5255650948775E-12
(PID.TID 0000.0001) %MON dynstat_eta_sd               =   3.9772968381935E+04
(PID.TID 0000.0001) %MON dynstat_eta_del2             =   2.3960660597413E+04
(PID.TID 0000.0001) %MON dynstat_uvel_max             =   1.2629732536015E-01
(PID.TID 0000.0001) %MON dynstat_uvel_min             =  -6.6694238312642E-02
(PID.TID 0000.0001) %MON dynstat_uvel_mean            =   5.8789903496698E-04
(PID.TID 0000.0001) %MON dynstat_uvel_sd              =   7.6221481810760E-03
(PID.TID 0000.0001) %MON dynstat_uvel_del2            =   2.2630722543016E-03
(PID.TID 0000.0001) %MON dynstat_vvel_max             =   8.6866870038638E-02
(PID.TID 0000.0001) %MON dynstat_vvel_min             =  -1.1933388658390E-01
(PID.TID 0000.0001) %MON dynstat_vvel_mean            =  -3.8120538127357E-04
(PID.TID 0000.0001) %MON dynstat_vvel_sd              =   1.0129532441786E-02
(PID.TID 0000.0001) %MON dynstat_vvel_del2            =   2.8359622571697E-03
(PID.TID 0000.0001) %MON dynstat_wvel_max             =   2.0214959120874E+00
(PID.TID 0000.0001) %MON dynstat_wvel_min             =  -1.6347925372050E+00
(PID.TID 0000.0001) %MON dynstat_wvel_mean            =   4.4538622461660E-04
(PID.TID 0000.0001) %MON dynstat_wvel_sd              =   2.4120836188950E-01
(PID.TID 0000.0001) %MON dynstat_wvel_del2            =   1.0250644240393E-01
(PID.TID 0000.0001) %MON dynstat_theta_max            =   2.9880808452119E+01
(PID.TID 0000.0001) %MON dynstat_theta_min            =  -2.9013521854445E+00
(PID.TID 0000.0001) %MON dynstat_theta_mean           =   3.6031509124200E+00
(PID.TID 0000.0001) %MON dynstat_theta_sd             =   4.4020172421855E+00
(PID.TID 0000.0001) %MON dynstat_theta_del2           =   1.4123524472744E-01
(PID.TID 0000.0001) %MON dynstat_salt_max             =   3.7433815990059E+01
(PID.TID 0000.0001) %MON dynstat_salt_min             =   2.9775802788561E+01
(PID.TID 0000.0001) %MON dynstat_salt_mean            =   3.4718001098389E+01
(PID.TID 0000.0001) %MON dynstat_salt_sd              =   2.9442385003173E-01
(PID.TID 0000.0001) %MON dynstat_salt_del2            =   2.6379552820315E-02
(PID.TID 0000.0001) %MON advcfl_uvel_max              =   8.3491529112727E-02
(PID.TID 0000.0001) %MON advcfl_vvel_max              =   4.6369320555620E-02
(PID.TID 0000.0001) %MON advcfl_wvel_max              =   1.3317605925249E-01
(PID.TID 0000.0001) %MON advcfl_W_hf_max              =   1.3317605925249E-01
(PID.TID 0000.0001) %MON ke_max                       =   9.1172910084238E-03
(PID.TID 0000.0001) %MON ke_mean                      =   2.1144414142616E-04
(PID.TID 0000.0001) %MON ke_volint                    =   9.7489046214977E+17
(PID.TID 0000.0001) %MON ke_volmean                   =   7.2524935587392E-05
(PID.TID 0000.0001) %MON ke_vol                       =   1.3442141716555E+22
(PID.TID 0000.0001) %MON surfExpan_theta_mean         =  -5.0937806666523E-03
(PID.TID 0000.0001) %MON surfExpan_salt_mean          =  -5.2868153207237E-05
(PID.TID 0000.0001) // =======================================================
(PID.TID 0000.0001) // End MONITOR dynamic field statistics
(PID.TID 0000.0001) // =======================================================
time,SST,SSS,fu,fv,Q,E-P,i0,i1,a,b =   1.7280E+06  6.6036E-01  0.0000E+00 -3.1393E-02 -4.9332E-02  1.2039E+02 -2.0964E-09     1     2  2.0000E-01  8.0000E-01
time,fu0,fu1,fu =   1.7280E+06 -3.5633E-02 -1.4435E-02 -3.1393E-02  2.0000E-01  8.0000E-01
 cg2d: Sum(rhs),rhsMax =   8.46545056276682E-16  1.72989031369155E+02
(PID.TID 0000.0001)                    cg2d_init_res =    3.14782667035798E-03
(PID.TID 0000.0001)                       cg2d_iters =   107
(PID.TID 0000.0001)                         cg2d_res =    9.40106249801274E-10
(PID.TID 0000.0001) // =======================================================
(PID.TID 0000.0001) // Begin MONITOR dynamic field statistics
(PID.TID 0000.0001) // =======================================================
(PID.TID 0000.0001) %MON time_tsnumber                =                    11
(PID.TID 0000.0001) %MON time_secondsf                =   1.9008000000000E+06
(PID.TID 0000.0001) %MON dynstat_eta_max              =   4.7586423552430E+04
(PID.TID 0000.0001) %MON dynstat_eta_min              =  -9.2586004507114E+04
(PID.TID 0000.0001) %MON dynstat_eta_mean             =   9.9481282217379E-13
(PID.TID 0000.0001) %MON dynstat_eta_sd               =   3.9598919179654E+04
(PID.TID 0000.0001) %MON dynstat_eta_del2             =   2.3961808628759E+04
(PID.TID 0000.0001) %MON dynstat_uvel_max             =   1.3711594311028E-01
(PID.TID 0000.0001) %MON dynstat_uvel_min             =  -6.4751324376211E-02
(PID.TID 0000.0001) %MON dynstat_uvel_mean            =   4.7720559094168E-04
(PID.TID 0000.0001) %MON dynstat_uvel_sd              =   8.5761081581170E-03
(PID.TID 0000.0001) %MON dynstat_uvel_del2            =   2.3661044005809E-03
(PID.TID 0000.0001) %MON dynstat_vvel_max             =   8.9467345349183E-02
(PID.TID 0000.0001) %MON dynstat_vvel_min             =  -1.2387565800876E-01
(PID.TID 0000.0001) %MON dynstat_vvel_mean            =  -2.7949045358538E-04
(PID.TID 0000.0001) %MON dynstat_vvel_sd              =   1.0518721744144E-02
(PID.TID 0000.0001) %MON dynstat_vvel_del2            =   2.9312631703704E-03
(PID.TID 0000.0001) %MON dynstat_wvel_max             =   2.1371199793264E+00
(PID.TID 0000.0001) %MON dynstat_wvel_min             =  -1.5547912526921E+00
(PID.TID 0000.0001) %MON dynstat_wvel_mean            =   4.4830576125062E-04
(PID.TID 0000.0001) %MON dynstat_wvel_sd              =   2.4341233680688E-01
(PID.TID 0000.0001) %MON dynstat_wvel_del2            =   1.0139470035488E-01
(PID.TID 0000.0001) %MON dynstat_theta_max            =   2.9910890704478E+01
(PID.TID 0000.0001) %MON dynstat_theta_min            =  -2.9643097103705E+00
(PID.TID 0000.0001) %MON dynstat_theta_mean           =   3.6032595708583E+00
(PID.TID 0000.0001) %MON dynstat_theta_sd             =   4.4021926965958E+00
(PID.TID 0000.0001) %MON dynstat_theta_del2           =   1.4114955227689E-01
(PID.TID 0000.0001) %MON dynstat_salt_max             =   3.7433547961106E+01
(PID.TID 0000.0001) %MON dynstat_salt_min             =   2.9774382851137E+01
(PID.TID 0000.0001) %MON dynstat_salt_mean            =   3.4718001096468E+01
(PID.TID 0000.0001) %MON dynstat_salt_sd              =   2.9442146341679E-01
(PID.TID 0000.0001) %MON dynstat_salt_del2            =   2.6410098508351E-02
(PID.TID 0000.0001) %MON advcfl_uvel_max              =   9.0643406132042E-02
(PID.TID 0000.0001) %MON advcfl_vvel_max              =   4.8134107248806E-02
(PID.TID 0000.0001) %MON advcfl_wvel_max              =   1.3649306255422E-01
(PID.TID 0000.0001) %MON advcfl_W_hf_max              =   1.3649306255422E-01
(PID.TID 0000.0001) %MON ke_max                       =   1.0550412625329E-02
(PID.TID 0000.0001) %MON ke_mean                      =   2.4375783542360E-04
(PID.TID 0000.0001) %MON ke_volint                    =   1.1162564315984E+18
(PID.TID 0000.0001) %MON ke_volmean                   =   8.3041561020270E-05
(PID.TID 0000.0001) %MON ke_vol                       =   1.3442141716555E+22
(PID.TID 0000.0001) %MON surfExpan_theta_mean         =  -3.7594933836759E-03
(PID.TID 0000.0001) %MON surfExpan_salt_mean          =  -5.6680744371722E-05
(PID.TID 0000.0001) // =======================================================
(PID.TID 0000.0001) // End MONITOR dynamic field statistics
(PID.TID 0000.0001) // =======================================================
time,SST,SSS,fu,fv,Q,E-P,i0,i1,a,b =   1.9008E+06  5.6099E-01  0.0000E+00 -2.9980E-02 -4.6691E-02  1.2292E+02 -2.0964E-09     1     2  2.6667E-01  7.3333E-01
time,fu0,fu1,fu =   1.9008E+06 -3.5633E-02 -1.4435E-02 -2.9980E-02  2.6667E-01  7.3333E-01
 cg2d: Sum(rhs),rhsMax =  -2.84494650060196E-15  1.72995458550318E+02
(PID.TID 0000.0001)                    cg2d_init_res =    2.75429988824661E-03
(PID.TID 0000.0001)                       cg2d_iters =   102
(PID.TID 0000.0001)                         cg2d_res =    9.21189062125941E-10
(PID.TID 0000.0001) // =======================================================
(PID.TID 0000.0001) // Begin MONITOR dynamic field statistics
(PID.TID 0000.0001) // =======================================================
(PID.TID 0000.0001) %MON time_tsnumber                =                    12
(PID.TID 0000.0001) %MON time_secondsf                =   2.0736000000000E+06
(PID.TID 0000.0001) %MON dynstat_eta_max              =   4.2962143506521E+04
(PID.TID 0000.0001) %MON dynstat_eta_min              =  -9.2538107463880E+04
(PID.TID 0000.0001) %MON dynstat_eta_mean             =   4.1492874984550E-12
(PID.TID 0000.0001) %MON dynstat_eta_sd               =   3.9506892723349E+04
(PID.TID 0000.0001) %MON dynstat_eta_del2             =   2.3962644310405E+04
(PID.TID 0000.0001) %MON dynstat_uvel_max             =   1.4842248714899E-01
(PID.TID 0000.0001) %MON dynstat_uvel_min             =  -6.9031481854252E-02
(PID.TID 0000.0001) %MON dynstat_uvel_mean            =   3.4408927628673E-04
(PID.TID 0000.0001) %MON dynstat_uvel_sd              =   9.5582557927039E-03
(PID.TID 0000.0001) %MON dynstat_uvel_del2            =   2.4632108283149E-03
(PID.TID 0000.0001) %MON dynstat_vvel_max             =   9.0789805420833E-02
(PID.TID 0000.0001) %MON dynstat_vvel_min             =  -1.2719126726236E-01
(PID.TID 0000.0001) %MON dynstat_vvel_mean            =  -1.5774603178067E-04
(PID.TID 0000.0001) %MON dynstat_vvel_sd              =   1.0783135694314E-02
(PID.TID 0000.0001) %MON dynstat_vvel_del2            =   2.9985978761069E-03
(PID.TID 0000.0001) %MON dynstat_wvel_max             =   2.2826160401333E+00
(PID.TID 0000.0001) %MON dynstat_wvel_min             =  -1.4727476970952E+00
(PID.TID 0000.0001) %MON dynstat_wvel_mean            =   3.9191896992802E-04
(PID.TID 0000.0001) %MON dynstat_wvel_sd              =   2.4283062421066E-01
(PID.TID 0000.0001) %MON dynstat_wvel_del2            =   9.9657653945163E-02
(PID.TID 0000.0001) %MON dynstat_theta_max            =   2.9935987503901E+01
(PID.TID 0000.0001) %MON dynstat_theta_min            =  -3.0223745962608E+00
(PID.TID 0000.0001) %MON dynstat_theta_mean           =   3.6033617767054E+00
(PID.TID 0000.0001) %MON dynstat_theta_sd             =   4.4023806695729E+00
(PID.TID 0000.0001) %MON dynstat_theta_del2           =   1.4124432314712E-01
(PID.TID 0000.0001) %MON dynstat_salt_max             =   3.7433313458767E+01
(PID.TID 0000.0001) %MON dynstat_salt_min             =   2.9773018333844E+01
(PID.TID 0000.0001) %MON dynstat_salt_mean            =   3.4718001107209E+01
(PID.TID 0000.0001) %MON dynstat_salt_sd              =   2.9441709370734E-01
(PID.TID 0000.0001) %MON dynstat_salt_del2            =   2.6441583891309E-02
(PID.TID 0000.0001) %MON advcfl_uvel_max              =   9.7112062229406E-02
(PID.TID 0000.0001) %MON advcfl_vvel_max              =   4.9422446652799E-02
(PID.TID 0000.0001) %MON advcfl_wvel_max              =   1.3719978336617E-01
(PID.TID 0000.0001) %MON advcfl_W_hf_max              =   1.3719978336617E-01
(PID.TID 0000.0001) %MON ke_max                       =   1.1973109275864E-02
(PID.TID 0000.0001) %MON ke_mean                      =   2.7616284214066E-04
(PID.TID 0000.0001) %MON ke_volint                    =   1.2576304601291E+18
(PID.TID 0000.0001) %MON ke_volmean                   =   9.3558785991685E-05
(PID.TID 0000.0001) %MON ke_vol                       =   1.3442141716555E+22
(PID.TID 0000.0001) %MON surfExpan_theta_mean         =  -2.0661320374360E-03
(PID.TID 0000.0001) %MON surfExpan_salt_mean          =  -6.1874371067411E-05
(PID.TID 0000.0001) // =======================================================
(PID.TID 0000.0001) // End MONITOR dynamic field statistics
(PID.TID 0000.0001) // =======================================================
time,SST,SSS,fu,fv,Q,E-P,i0,i1,a,b =   2.0736E+06  4.6162E-01  0.0000E+00 -2.8567E-02 -4.4050E-02  1.2545E+02 -2.0964E-09     1     2  3.3333E-01  6.6667E-01
time,fu0,fu1,fu =   2.0736E+06 -3.5633E-02 -1.4435E-02 -2.8567E-02  3.3333E-01  6.6667E-01
 cg2d: Sum(rhs),rhsMax =   7.63278329429795E-16  1.72998449229546E+02
(PID.TID 0000.0001)                    cg2d_init_res =    2.59294806635863E-03
(PID.TID 0000.0001)                       cg2d_iters =   101
(PID.TID 0000.0001)                         cg2d_res =    8.09582692804628E-10
(PID.TID 0000.0001) // =======================================================
(PID.TID 0000.0001) // Begin MONITOR dynamic field statistics
(PID.TID 0000.0001) // =======================================================
(PID.TID 0000.0001) %MON time_tsnumber                =                    13
(PID.TID 0000.0001) %MON time_secondsf                =   2.2464000000000E+06
(PID.TID 0000.0001) %MON dynstat_eta_max              =   4.2952571760501E+04
(PID.TID 0000.0001) %MON dynstat_eta_min              =  -9.2453087138619E+04
(PID.TID 0000.0001) %MON dynstat_eta_mean             =   5.3215830082130E-12
(PID.TID 0000.0001) %MON dynstat_eta_sd               =   3.9485248615077E+04
(PID.TID 0000.0001) %MON dynstat_eta_del2             =   2.3963283220049E+04
(PID.TID 0000.0001) %MON dynstat_uvel_max             =   1.5901314438036E-01
(PID.TID 0000.0001) %MON dynstat_uvel_min             =  -7.3977658584194E-02
(PID.TID 0000.0001) %MON dynstat_uvel_mean            =   2.3446736239923E-04
(PID.TID 0000.0001) %MON dynstat_uvel_sd              =   1.0546900515355E-02
(PID.TID 0000.0001) %MON dynstat_uvel_del2            =   2.5585368718492E-03
(PID.TID 0000.0001) %MON dynstat_vvel_max             =   9.1002249672122E-02
(PID.TID 0000.0001) %MON dynstat_vvel_min             =  -1.3058822459682E-01
(PID.TID 0000.0001) %MON dynstat_vvel_mean            =  -5.4363561298654E-05
(PID.TID 0000.0001) %MON dynstat_vvel_sd              =   1.0928756725084E-02
(PID.TID 0000.0001) %MON dynstat_vvel_del2            =   3.0416832993828E-03
(PID.TID 0000.0001) %MON dynstat_wvel_max             =   2.4169871305931E+00
(PID.TID 0000.0001) %MON dynstat_wvel_min             =  -1.4406584279512E+00
(PID.TID 0000.0001) %MON dynstat_wvel_mean            =   3.0466224405676E-04
(PID.TID 0000.0001) %MON dynstat_wvel_sd              =   2.3998084657293E-01
(PID.TID 0000.0001) %MON dynstat_wvel_del2            =   9.7633472976072E-02
(PID.TID 0000.0001) %MON dynstat_theta_max            =   2.9956271577959E+01
(PID.TID 0000.0001) %MON dynstat_theta_min            =  -3.0756264118569E+00
(PID.TID 0000.0001) %MON dynstat_theta_mean           =   3.6034589855022E+00
(PID.TID 0000.0001) %MON dynstat_theta_sd             =   4.4025853513499E+00
(PID.TID 0000.0001) %MON dynstat_theta_del2           =   1.4163073278983E-01
(PID.TID 0000.0001) %MON dynstat_salt_max             =   3.7433137207308E+01
(PID.TID 0000.0001) %MON dynstat_salt_min             =   2.9771765794077E+01
(PID.TID 0000.0001) %MON dynstat_salt_mean            =   3.4718001121910E+01
(PID.TID 0000.0001) %MON dynstat_salt_sd              =   2.9441789214217E-01
(PID.TID 0000.0001) %MON dynstat_salt_del2            =   2.6500636684648E-02
(PID.TID 0000.0001) %MON advcfl_uvel_max              =   1.0287447924364E-01
(PID.TID 0000.0001) %MON advcfl_vvel_max              =   5.0742395311678E-02
(PID.TID 0000.0001) %MON advcfl_wvel_max              =   1.3519868269078E-01
(PID.TID 0000.0001) %MON advcfl_W_hf_max              =   1.3519868269078E-01
(PID.TID 0000.0001) %MON ke_max                       =   1.3354236445911E-02
(PID.TID 0000.0001) %MON ke_mean                      =   3.0814596931446E-04
(PID.TID 0000.0001) %MON ke_volint                    =   1.3971615414039E+18
(PID.TID 0000.0001) %MON ke_volmean                   =   1.0393890875910E-04
(PID.TID 0000.0001) %MON ke_vol                       =   1.3442141716555E+22
(PID.TID 0000.0001) %MON surfExpan_theta_mean         =  -5.3877923508490E-04
(PID.TID 0000.0001) %MON surfExpan_salt_mean          =  -6.0923127471151E-05
(PID.TID 0000.0001) // =======================================================
(PID.TID 0000.0001) // End MONITOR dynamic field statistics
(PID.TID 0000.0001) // =======================================================
time,SST,SSS,fu,fv,Q,E-P,i0,i1,a,b =   2.2464E+06  3.6224E-01  0.0000E+00 -2.7154E-02 -4.1408E-02  1.2798E+02 -2.0964E-09     1     2  4.0000E-01  6.0000E-01
time,fu0,fu1,fu =   2.2464E+06 -3.5633E-02 -1.4435E-02 -2.7154E-02  4.0000E-01  6.0000E-01
 cg2d: Sum(rhs),rhsMax =   1.49880108324396E-15  1.72998728121524E+02
(PID.TID 0000.0001)                    cg2d_init_res =    2.57873517221373E-03
(PID.TID 0000.0001)                       cg2d_iters =   107
(PID.TID 0000.0001)                         cg2d_res =    8.06244911520518E-10
(PID.TID 0000.0001) // =======================================================
(PID.TID 0000.0001) // Begin MONITOR dynamic field statistics
(PID.TID 0000.0001) // =======================================================
(PID.TID 0000.0001) %MON time_tsnumber                =                    14
(PID.TID 0000.0001) %MON time_secondsf                =   2.4192000000000E+06
(PID.TID 0000.0001) %MON dynstat_eta_max              =   4.3131058955085E+04
(PID.TID 0000.0001) %MON dynstat_eta_min              =  -9.2540313612864E+04
(PID.TID 0000.0001) %MON dynstat_eta_mean             =  -6.1455515763067E-14
(PID.TID 0000.0001) %MON dynstat_eta_sd               =   3.9519038234123E+04
(PID.TID 0000.0001) %MON dynstat_eta_del2             =   2.3964163153177E+04
(PID.TID 0000.0001) %MON dynstat_uvel_max             =   1.6828735249343E-01
(PID.TID 0000.0001) %MON dynstat_uvel_min             =  -7.9848863575960E-02
(PID.TID 0000.0001) %MON dynstat_uvel_mean            =   1.7839200155746E-04
(PID.TID 0000.0001) %MON dynstat_uvel_sd              =   1.1516821412911E-02
(PID.TID 0000.0001) %MON dynstat_uvel_del2            =   2.6526032159612E-03
(PID.TID 0000.0001) %MON dynstat_vvel_max             =   9.0202133463852E-02
(PID.TID 0000.0001) %MON dynstat_vvel_min             =  -1.3248235093594E-01
(PID.TID 0000.0001) %MON dynstat_vvel_mean            =   9.3561961333079E-06
(PID.TID 0000.0001) %MON dynstat_vvel_sd              =   1.0963920870115E-02
(PID.TID 0000.0001) %MON dynstat_vvel_del2            =   3.0632152169262E-03
(PID.TID 0000.0001) %MON dynstat_wvel_max             =   2.5415624429330E+00
(PID.TID 0000.0001) %MON dynstat_wvel_min             =  -1.5093491168849E+00
(PID.TID 0000.0001) %MON dynstat_wvel_mean            =   2.1207442857956E-04
(PID.TID 0000.0001) %MON dynstat_wvel_sd              =   2.3535037958379E-01
(PID.TID 0000.0001) %MON dynstat_wvel_del2            =   9.5539615358487E-02
(PID.TID 0000.0001) %MON dynstat_theta_max            =   2.9971848401949E+01
(PID.TID 0000.0001) %MON dynstat_theta_min            =  -3.1241367645918E+00
(PID.TID 0000.0001) %MON dynstat_theta_mean           =   3.6035544070769E+00
(PID.TID 0000.0001) %MON dynstat_theta_sd             =   4.4027940154043E+00
(PID.TID 0000.0001) %MON dynstat_theta_del2           =   1.4211649038740E-01
(PID.TID 0000.0001) %MON dynstat_salt_max             =   3.7433044280318E+01
(PID.TID 0000.0001) %MON dynstat_salt_min             =   2.9770620964531E+01
(PID.TID 0000.0001) %MON dynstat_salt_mean            =   3.4718001120456E+01
(PID.TID 0000.0001) %MON dynstat_salt_sd              =   2.9440981220197E-01
(PID.TID 0000.0001) %MON dynstat_salt_del2            =   2.6562593942446E-02
(PID.TID 0000.0001) %MON advcfl_uvel_max              =   1.0789429746549E-01
(PID.TID 0000.0001) %MON advcfl_vvel_max              =   5.1478392050791E-02
(PID.TID 0000.0001) %MON advcfl_wvel_max              =   1.3045308097265E-01
(PID.TID 0000.0001) %MON advcfl_W_hf_max              =   1.3045308097265E-01
(PID.TID 0000.0001) %MON ke_max                       =   1.4665385398132E-02
(PID.TID 0000.0001) %MON ke_mean                      =   3.3919002439728E-04
(PID.TID 0000.0001) %MON ke_volint                    =   1.5319112456553E+18
(PID.TID 0000.0001) %MON ke_volmean                   =   1.1396333098978E-04
(PID.TID 0000.0001) %MON ke_vol                       =   1.3442141716555E+22
(PID.TID 0000.0001) %MON surfExpan_theta_mean         =   4.9313257221601E-04
(PID.TID 0000.0001) %MON surfExpan_salt_mean          =  -4.8154466908438E-05
(PID.TID 0000.0001) // =======================================================
(PID.TID 0000.0001) // End MONITOR dynamic field statistics
(PID.TID 0000.0001) // =======================================================
time,SST,SSS,fu,fv,Q,E-P,i0,i1,a,b =   2.4192E+06  2.6287E-01  0.0000E+00 -2.5740E-02 -3.8767E-02  1.3050E+02 -2.0964E-09     1     2  4.6667E-01  5.3333E-01
time,fu0,fu1,fu =   2.4192E+06 -3.5633E-02 -1.4435E-02 -2.5740E-02  4.6667E-01  5.3333E-01
 cg2d: Sum(rhs),rhsMax =  -5.82867087928207E-16  1.72997244859074E+02
(PID.TID 0000.0001)                    cg2d_init_res =    2.54552917476765E-03
(PID.TID 0000.0001)                       cg2d_iters =   106
(PID.TID 0000.0001)                         cg2d_res =    9.62821907140263E-10
(PID.TID 0000.0001) // =======================================================
(PID.TID 0000.0001) // Begin MONITOR dynamic field statistics
(PID.TID 0000.0001) // =======================================================
(PID.TID 0000.0001) %MON time_tsnumber                =                    15
(PID.TID 0000.0001) %MON time_secondsf                =   2.5920000000000E+06
(PID.TID 0000.0001) %MON dynstat_eta_max              =   4.4323453853838E+04
(PID.TID 0000.0001) %MON dynstat_eta_min              =  -9.2723844790188E+04
(PID.TID 0000.0001) %MON dynstat_eta_mean             =   5.2735610723520E-12
(PID.TID 0000.0001) %MON dynstat_eta_sd               =   3.9585869180878E+04
(PID.TID 0000.0001) %MON dynstat_eta_del2             =   2.3965634068754E+04
(PID.TID 0000.0001) %MON dynstat_uvel_max             =   1.7613883285047E-01
(PID.TID 0000.0001) %MON dynstat_uvel_min             =  -8.4368267610273E-02
(PID.TID 0000.0001) %MON dynstat_uvel_mean            =   1.8617665020473E-04
(PID.TID 0000.0001) %MON dynstat_uvel_sd              =   1.2446976465452E-02
(PID.TID 0000.0001) %MON dynstat_uvel_del2            =   2.7466089035278E-03
(PID.TID 0000.0001) %MON dynstat_vvel_max             =   8.8500681462351E-02
(PID.TID 0000.0001) %MON dynstat_vvel_min             =  -1.3287875609844E-01
(PID.TID 0000.0001) %MON dynstat_vvel_mean            =   2.9457440526038E-05
(PID.TID 0000.0001) %MON dynstat_vvel_sd              =   1.0900937208812E-02
(PID.TID 0000.0001) %MON dynstat_vvel_del2            =   3.0693524637139E-03
(PID.TID 0000.0001) %MON dynstat_wvel_max             =   2.6567135312495E+00
(PID.TID 0000.0001) %MON dynstat_wvel_min             =  -1.5539770281269E+00
(PID.TID 0000.0001) %MON dynstat_wvel_mean            =   1.3170400015703E-04
(PID.TID 0000.0001) %MON dynstat_wvel_sd              =   2.2944844673551E-01
(PID.TID 0000.0001) %MON dynstat_wvel_del2            =   9.3604658766462E-02
(PID.TID 0000.0001) %MON dynstat_theta_max            =   2.9982766704473E+01
(PID.TID 0000.0001) %MON dynstat_theta_min            =  -3.1679743857502E+00
(PID.TID 0000.0001) %MON dynstat_theta_mean           =   3.6036486864801E+00
(PID.TID 0000.0001) %MON dynstat_theta_sd             =   4.4030320173346E+00
(PID.TID 0000.0001) %MON dynstat_theta_del2           =   1.4261092815761E-01
(PID.TID 0000.0001) %MON dynstat_salt_max             =   3.7433057279905E+01
(PID.TID 0000.0001) %MON dynstat_salt_min             =   2.9769538333849E+01
(PID.TID 0000.0001) %MON dynstat_salt_mean            =   3.4718001088144E+01
(PID.TID 0000.0001) %MON dynstat_salt_sd              =   2.9440922586446E-01
(PID.TID 0000.0001) %MON dynstat_salt_del2            =   2.6604912374079E-02
(PID.TID 0000.0001) %MON advcfl_uvel_max              =   1.1212053557501E-01
(PID.TID 0000.0001) %MON advcfl_vvel_max              =   5.1632422381789E-02
(PID.TID 0000.0001) %MON advcfl_wvel_max              =   1.2299761315149E-01
(PID.TID 0000.0001) %MON advcfl_W_hf_max              =   1.2299761315149E-01
(PID.TID 0000.0001) %MON ke_max                       =   1.5883258363301E-02
(PID.TID 0000.0001) %MON ke_mean                      =   3.6890214645019E-04
(PID.TID 0000.0001) %MON ke_volint                    =   1.6593208323031E+18
(PID.TID 0000.0001) %MON ke_volmean                   =   1.2344170053344E-04
(PID.TID 0000.0001) %MON ke_vol                       =   1.3442141716555E+22
(PID.TID 0000.0001) %MON surfExpan_theta_mean         =   9.2201023489904E-04
(PID.TID 0000.0001) %MON surfExpan_salt_mean          =  -2.2509952420581E-05
(PID.TID 0000.0001) // =======================================================
(PID.TID 0000.0001) // End MONITOR dynamic field statistics
(PID.TID 0000.0001) // =======================================================
time,SST,SSS,fu,fv,Q,E-P,i0,i1,a,b =   2.5920E+06  1.6350E-01  0.0000E+00 -2.4327E-02 -3.6125E-02  1.3303E+02 -2.0964E-09     1     2  5.3333E-01  4.6667E-01
time,fu0,fu1,fu =   2.5920E+06 -3.5633E-02 -1.4435E-02 -2.4327E-02  5.3333E-01  4.6667E-01
 cg2d: Sum(rhs),rhsMax =   1.60982338570648E-15  1.72994810470252E+02
(PID.TID 0000.0001)                    cg2d_init_res =    2.44372913359029E-03
(PID.TID 0000.0001)                       cg2d_iters =   105
(PID.TID 0000.0001)                         cg2d_res =    9.70227533082715E-10
(PID.TID 0000.0001) // =======================================================
(PID.TID 0000.0001) // Begin MONITOR dynamic field statistics
(PID.TID 0000.0001) // =======================================================
(PID.TID 0000.0001) %MON time_tsnumber                =                    16
(PID.TID 0000.0001) %MON time_secondsf                =   2.7648000000000E+06
(PID.TID 0000.0001) %MON dynstat_eta_max              =   4.6810448496381E+04
(PID.TID 0000.0001) %MON dynstat_eta_min              =  -9.2838934666560E+04
(PID.TID 0000.0001) %MON dynstat_eta_mean             =   5.1418776756744E-12
(PID.TID 0000.0001) %MON dynstat_eta_sd               =   3.9657092398333E+04
(PID.TID 0000.0001) %MON dynstat_eta_del2             =   2.3966706000937E+04
(PID.TID 0000.0001) %MON dynstat_uvel_max             =   1.8325721996756E-01
(PID.TID 0000.0001) %MON dynstat_uvel_min             =  -8.7594793800460E-02
(PID.TID 0000.0001) %MON dynstat_uvel_mean            =   2.5021250607569E-04
(PID.TID 0000.0001) %MON dynstat_uvel_sd              =   1.3322669503388E-02
(PID.TID 0000.0001) %MON dynstat_uvel_del2            =   2.8442096703407E-03
(PID.TID 0000.0001) %MON dynstat_vvel_max             =   8.9074725248083E-02
(PID.TID 0000.0001) %MON dynstat_vvel_min             =  -1.3178558912223E-01
(PID.TID 0000.0001) %MON dynstat_vvel_mean            =   1.5430899817265E-05
(PID.TID 0000.0001) %MON dynstat_vvel_sd              =   1.0756659590114E-02
(PID.TID 0000.0001) %MON dynstat_vvel_del2            =   3.0666183448266E-03
(PID.TID 0000.0001) %MON dynstat_wvel_max             =   2.7620265776619E+00
(PID.TID 0000.0001) %MON dynstat_wvel_min             =  -1.5761132690390E+00
(PID.TID 0000.0001) %MON dynstat_wvel_mean            =   7.0572307965162E-05
(PID.TID 0000.0001) %MON dynstat_wvel_sd              =   2.2282304853366E-01
(PID.TID 0000.0001) %MON dynstat_wvel_del2            =   9.1829980152817E-02
(PID.TID 0000.0001) %MON dynstat_theta_max            =   2.9989033086066E+01
(PID.TID 0000.0001) %MON dynstat_theta_min            =  -3.2072065708338E+00
(PID.TID 0000.0001) %MON dynstat_theta_mean           =   3.6037436343130E+00
(PID.TID 0000.0001) %MON dynstat_theta_sd             =   4.4032905389704E+00
(PID.TID 0000.0001) %MON dynstat_theta_del2           =   1.4297650879829E-01
(PID.TID 0000.0001) %MON dynstat_salt_max             =   3.7433193885576E+01
(PID.TID 0000.0001) %MON dynstat_salt_min             =   2.9768451913894E+01
(PID.TID 0000.0001) %MON dynstat_salt_mean            =   3.4718001021100E+01
(PID.TID 0000.0001) %MON dynstat_salt_sd              =   2.9441202938539E-01
(PID.TID 0000.0001) %MON dynstat_salt_del2            =   2.6648902438619E-02
(PID.TID 0000.0001) %MON advcfl_uvel_max              =   1.1549183507278E-01
(PID.TID 0000.0001) %MON advcfl_vvel_max              =   5.1207652759416E-02
(PID.TID 0000.0001) %MON advcfl_wvel_max              =   1.1294531191164E-01
(PID.TID 0000.0001) %MON advcfl_W_hf_max              =   1.1294531191164E-01
(PID.TID 0000.0001) %MON ke_max                       =   1.6991166126033E-02
(PID.TID 0000.0001) %MON ke_mean                      =   3.9703183554613E-04
(PID.TID 0000.0001) %MON ke_volint                    =   1.7780253909158E+18
(PID.TID 0000.0001) %MON ke_volmean                   =   1.3227247773515E-04
(PID.TID 0000.0001) %MON ke_vol                       =   1.3442141716555E+22
(PID.TID 0000.0001) %MON surfExpan_theta_mean         =   8.3205854327918E-04
(PID.TID 0000.0001) %MON surfExpan_salt_mean          =   1.2259690033222E-05
(PID.TID 0000.0001) // =======================================================
(PID.TID 0000.0001) // End MONITOR dynamic field statistics
(PID.TID 0000.0001) // =======================================================
time,SST,SSS,fu,fv,Q,E-P,i0,i1,a,b =   2.7648E+06  6.4124E-02  0.0000E+00 -2.2914E-02 -3.3484E-02  1.3556E+02 -2.0964E-09     1     2  6.0000E-01  4.0000E-01
time,fu0,fu1,fu =   2.7648E+06 -3.5633E-02 -1.4435E-02 -2.2914E-02  6.0000E-01  4.0000E-01
 cg2d: Sum(rhs),rhsMax =   1.67921232474555E-15  1.72991925347430E+02
(PID.TID 0000.0001)                    cg2d_init_res =    2.30627074670192E-03
(PID.TID 0000.0001)                       cg2d_iters =   105
(PID.TID 0000.0001)                         cg2d_res =    8.90779380041220E-10
(PID.TID 0000.0001) // =======================================================
(PID.TID 0000.0001) // Begin MONITOR dynamic field statistics
(PID.TID 0000.0001) // =======================================================
(PID.TID 0000.0001) %MON time_tsnumber                =                    17
(PID.TID 0000.0001) %MON time_secondsf                =   2.9376000000000E+06
(PID.TID 0000.0001) %MON dynstat_eta_max              =   4.8380522935645E+04
(PID.TID 0000.0001) %MON dynstat_eta_min              =  -9.2885115646019E+04
(PID.TID 0000.0001) %MON dynstat_eta_mean             =  -9.5026733903237E-12
(PID.TID 0000.0001) %MON dynstat_eta_sd               =   3.9706604696451E+04
(PID.TID 0000.0001) %MON dynstat_eta_del2             =   2.3967258548804E+04
(PID.TID 0000.0001) %MON dynstat_uvel_max             =   1.9076506107961E-01
(PID.TID 0000.0001) %MON dynstat_uvel_min             =  -9.1161217245647E-02
(PID.TID 0000.0001) %MON dynstat_uvel_mean            =   3.5089426510446E-04
(PID.TID 0000.0001) %MON dynstat_uvel_sd              =   1.4133487582667E-02
(PID.TID 0000.0001) %MON dynstat_uvel_del2            =   2.9452137544784E-03
(PID.TID 0000.0001) %MON dynstat_vvel_max             =   9.2140265540451E-02
(PID.TID 0000.0001) %MON dynstat_vvel_min             =  -1.2922178312744E-01
(PID.TID 0000.0001) %MON dynstat_vvel_mean            =  -1.5867772179593E-05
(PID.TID 0000.0001) %MON dynstat_vvel_sd              =   1.0551839594637E-02
(PID.TID 0000.0001) %MON dynstat_vvel_del2            =   3.0589653940757E-03
(PID.TID 0000.0001) %MON dynstat_wvel_max             =   2.8566329652264E+00
(PID.TID 0000.0001) %MON dynstat_wvel_min             =  -1.5800735953291E+00
(PID.TID 0000.0001) %MON dynstat_wvel_mean            =   2.7271336691949E-05
(PID.TID 0000.0001) %MON dynstat_wvel_sd              =   2.1604671242865E-01
(PID.TID 0000.0001) %MON dynstat_wvel_del2            =   9.0342947550847E-02
(PID.TID 0000.0001) %MON dynstat_theta_max            =   2.9990628111108E+01
(PID.TID 0000.0001) %MON dynstat_theta_min            =  -3.2418974483975E+00
(PID.TID 0000.0001) %MON dynstat_theta_mean           =   3.6038393896756E+00
(PID.TID 0000.0001) %MON dynstat_theta_sd             =   4.4035653143745E+00
(PID.TID 0000.0001) %MON dynstat_theta_del2           =   1.4327021392068E-01
(PID.TID 0000.0001) %MON dynstat_salt_max             =   3.7433465092887E+01
(PID.TID 0000.0001) %MON dynstat_salt_min             =   2.9767293743574E+01
(PID.TID 0000.0001) %MON dynstat_salt_mean            =   3.4718000930676E+01
(PID.TID 0000.0001) %MON dynstat_salt_sd              =   2.9441348706820E-01
(PID.TID 0000.0001) %MON dynstat_salt_del2            =   2.6686976541983E-02
(PID.TID 0000.0001) %MON advcfl_uvel_max              =   1.1878702371383E-01
(PID.TID 0000.0001) %MON advcfl_vvel_max              =   5.0211439986851E-02
(PID.TID 0000.0001) %MON advcfl_wvel_max              =   1.0049013112871E-01
(PID.TID 0000.0001) %MON advcfl_W_hf_max              =   1.0049013112871E-01
(PID.TID 0000.0001) %MON ke_max                       =   1.7978748299184E-02
(PID.TID 0000.0001) %MON ke_mean                      =   4.2338691916875E-04
(PID.TID 0000.0001) %MON ke_volint                    =   1.8876093086815E+18
(PID.TID 0000.0001) %MON ke_volmean                   =   1.4042474394960E-04
(PID.TID 0000.0001) %MON ke_vol                       =   1.3442141716555E+22
(PID.TID 0000.0001) %MON surfExpan_theta_mean         =   4.2994336587382E-04
(PID.TID 0000.0001) %MON surfExpan_salt_mean          =   5.0372208002454E-05
(PID.TID 0000.0001) // =======================================================
(PID.TID 0000.0001) // End MONITOR dynamic field statistics
(PID.TID 0000.0001) // =======================================================
time,SST,SSS,fu,fv,Q,E-P,i0,i1,a,b =   2.9376E+06 -3.5249E-02  0.0000E+00 -2.1501E-02 -3.0843E-02  1.3808E+02 -2.0964E-09     1     2  6.6667E-01  3.3333E-01
time,fu0,fu1,fu =   2.9376E+06 -3.5633E-02 -1.4435E-02 -2.1501E-02  6.6667E-01  3.3333E-01
 cg2d: Sum(rhs),rhsMax =  -1.08246744900953E-15  1.72988727584881E+02
(PID.TID 0000.0001)                    cg2d_init_res =    2.20927520003094E-03
(PID.TID 0000.0001)                       cg2d_iters =    99
(PID.TID 0000.0001)                         cg2d_res =    9.15560326911537E-10
(PID.TID 0000.0001) // =======================================================
(PID.TID 0000.0001) // Begin MONITOR dynamic field statistics
(PID.TID 0000.0001) // =======================================================
(PID.TID 0000.0001) %MON time_tsnumber                =                    18
(PID.TID 0000.0001) %MON time_secondsf                =   3.1104000000000E+06
(PID.TID 0000.0001) %MON dynstat_eta_max              =   4.8796891060908E+04
(PID.TID 0000.0001) %MON dynstat_eta_min              =  -9.2824827347484E+04
(PID.TID 0000.0001) %MON dynstat_eta_mean             =  -5.5248691328349E-12
(PID.TID 0000.0001) %MON dynstat_eta_sd               =   3.9720509361442E+04
(PID.TID 0000.0001) %MON dynstat_eta_del2             =   2.3967089737142E+04
(PID.TID 0000.0001) %MON dynstat_uvel_max             =   1.9674073921912E-01
(PID.TID 0000.0001) %MON dynstat_uvel_min             =  -9.5053378852188E-02
(PID.TID 0000.0001) %MON dynstat_uvel_mean            =   4.6420257636357E-04
(PID.TID 0000.0001) %MON dynstat_uvel_sd              =   1.4870449155970E-02
(PID.TID 0000.0001) %MON dynstat_uvel_del2            =   3.0454892124308E-03
(PID.TID 0000.0001) %MON dynstat_vvel_max             =   9.4734763805640E-02
(PID.TID 0000.0001) %MON dynstat_vvel_min             =  -1.2522569706549E-01
(PID.TID 0000.0001) %MON dynstat_vvel_mean            =  -4.6484677131648E-05
(PID.TID 0000.0001) %MON dynstat_vvel_sd              =   1.0309925018320E-02
(PID.TID 0000.0001) %MON dynstat_vvel_del2            =   3.0529024693210E-03
(PID.TID 0000.0001) %MON dynstat_wvel_max             =   2.9395586318746E+00
(PID.TID 0000.0001) %MON dynstat_wvel_min             =  -1.6431154694357E+00
(PID.TID 0000.0001) %MON dynstat_wvel_mean            =  -4.7518732570249E-06
(PID.TID 0000.0001) %MON dynstat_wvel_sd              =   2.0966233161222E-01
(PID.TID 0000.0001) %MON dynstat_wvel_del2            =   8.9253996633223E-02
(PID.TID 0000.0001) %MON dynstat_theta_max            =   2.9987521456142E+01
(PID.TID 0000.0001) %MON dynstat_theta_min            =  -3.2721053647531E+00
(PID.TID 0000.0001) %MON dynstat_theta_mean           =   3.6039359385049E+00
(PID.TID 0000.0001) %MON dynstat_theta_sd             =   4.4038590570366E+00
(PID.TID 0000.0001) %MON dynstat_theta_del2           =   1.4349722147948E-01
(PID.TID 0000.0001) %MON dynstat_salt_max             =   3.7433874311430E+01
(PID.TID 0000.0001) %MON dynstat_salt_min             =   2.9766008770877E+01
(PID.TID 0000.0001) %MON dynstat_salt_mean            =   3.4718000830240E+01
(PID.TID 0000.0001) %MON dynstat_salt_sd              =   2.9441391891824E-01
(PID.TID 0000.0001) %MON dynstat_salt_del2            =   2.6708193194351E-02
(PID.TID 0000.0001) %MON advcfl_uvel_max              =   1.2370092966481E-01
(PID.TID 0000.0001) %MON advcfl_vvel_max              =   4.8658689122204E-02
(PID.TID 0000.0001) %MON advcfl_wvel_max              =   9.8325993939871E-02
(PID.TID 0000.0001) %MON advcfl_W_hf_max              =   9.8325993939871E-02
(PID.TID 0000.0001) %MON ke_max                       =   1.8840482717915E-02
(PID.TID 0000.0001) %MON ke_mean                      =   4.4773784250927E-04
(PID.TID 0000.0001) %MON ke_volint                    =   1.9878867770420E+18
(PID.TID 0000.0001) %MON ke_volmean                   =   1.4788467633797E-04
(PID.TID 0000.0001) %MON ke_vol                       =   1.3442141716555E+22
(PID.TID 0000.0001) %MON surfExpan_theta_mean         =  -4.2644453843427E-05
(PID.TID 0000.0001) %MON surfExpan_salt_mean          =   8.4699746310065E-05
(PID.TID 0000.0001) // =======================================================
(PID.TID 0000.0001) // End MONITOR dynamic field statistics
(PID.TID 0000.0001) // =======================================================
time,SST,SSS,fu,fv,Q,E-P,i0,i1,a,b =   3.1104E+06 -1.3462E-01  0.0000E+00 -2.0088E-02 -2.8201E-02  1.4061E+02 -2.0964E-09     1     2  7.3333E-01  2.6667E-01
time,fu0,fu1,fu =   3.1104E+06 -3.5633E-02 -1.4435E-02 -2.0088E-02  7.3333E-01  2.6667E-01
 cg2d: Sum(rhs),rhsMax =   3.88578058618805E-16  1.72985068540924E+02
(PID.TID 0000.0001)                    cg2d_init_res =    2.18114599997212E-03
(PID.TID 0000.0001)                       cg2d_iters =    99
(PID.TID 0000.0001)                         cg2d_res =    9.76380736991593E-10
(PID.TID 0000.0001) // =======================================================
(PID.TID 0000.0001) // Begin MONITOR dynamic field statistics
(PID.TID 0000.0001) // =======================================================
(PID.TID 0000.0001) %MON time_tsnumber                =                    19
(PID.TID 0000.0001) %MON time_secondsf                =   3.2832000000000E+06
(PID.TID 0000.0001) %MON dynstat_eta_max              =   4.8175394339667E+04
(PID.TID 0000.0001) %MON dynstat_eta_min              =  -9.2707131882436E+04
(PID.TID 0000.0001) %MON dynstat_eta_mean             =   3.0815596609272E-12
(PID.TID 0000.0001) %MON dynstat_eta_sd               =   3.9700601440927E+04
(PID.TID 0000.0001) %MON dynstat_eta_del2             =   2.3966211334454E+04
(PID.TID 0000.0001) %MON dynstat_uvel_max             =   2.0110680715645E-01
(PID.TID 0000.0001) %MON dynstat_uvel_min             =  -9.8431910536502E-02
(PID.TID 0000.0001) %MON dynstat_uvel_mean            =   5.6869121805251E-04
(PID.TID 0000.0001) %MON dynstat_uvel_sd              =   1.5524563405300E-02
(PID.TID 0000.0001) %MON dynstat_uvel_del2            =   3.1430253699512E-03
(PID.TID 0000.0001) %MON dynstat_vvel_max             =   9.6881070745460E-02
(PID.TID 0000.0001) %MON dynstat_vvel_min             =  -1.1986165671724E-01
(PID.TID 0000.0001) %MON dynstat_vvel_mean            =  -6.2371205737855E-05
(PID.TID 0000.0001) %MON dynstat_vvel_sd              =   1.0055798678747E-02
(PID.TID 0000.0001) %MON dynstat_vvel_del2            =   3.0509754314862E-03
(PID.TID 0000.0001) %MON dynstat_wvel_max             =   3.0100037440779E+00
(PID.TID 0000.0001) %MON dynstat_wvel_min             =  -1.7733445463984E+00
(PID.TID 0000.0001) %MON dynstat_wvel_mean            =  -3.2970812258265E-05
(PID.TID 0000.0001) %MON dynstat_wvel_sd              =   2.0413071698841E-01
(PID.TID 0000.0001) %MON dynstat_wvel_del2            =   8.8685081910135E-02
(PID.TID 0000.0001) %MON dynstat_theta_max            =   2.9979684449859E+01
(PID.TID 0000.0001) %MON dynstat_theta_min            =  -3.2978819270165E+00
(PID.TID 0000.0001) %MON dynstat_theta_mean           =   3.6040337669160E+00
(PID.TID 0000.0001) %MON dynstat_theta_sd             =   4.4041722801914E+00
(PID.TID 0000.0001) %MON dynstat_theta_del2           =   1.4382212692654E-01
(PID.TID 0000.0001) %MON dynstat_salt_max             =   3.7434417230006E+01
(PID.TID 0000.0001) %MON dynstat_salt_min             =   2.9764564702183E+01
(PID.TID 0000.0001) %MON dynstat_salt_mean            =   3.4718000739593E+01
(PID.TID 0000.0001) %MON dynstat_salt_sd              =   2.9441597093655E-01
(PID.TID 0000.0001) %MON dynstat_salt_del2            =   2.6750973769123E-02
(PID.TID 0000.0001) %MON advcfl_uvel_max              =   1.2741642574328E-01
(PID.TID 0000.0001) %MON advcfl_vvel_max              =   4.6574395100606E-02
(PID.TID 0000.0001) %MON advcfl_wvel_max              =   9.7962469690370E-02
(PID.TID 0000.0001) %MON advcfl_W_hf_max              =   9.7962469690370E-02
(PID.TID 0000.0001) %MON ke_max                       =   1.9573873233745E-02
(PID.TID 0000.0001) %MON ke_mean                      =   4.6978530634070E-04
(PID.TID 0000.0001) %MON ke_volint                    =   2.0783949847094E+18
(PID.TID 0000.0001) %MON ke_volmean                   =   1.5461784502314E-04
(PID.TID 0000.0001) %MON ke_vol                       =   1.3442141716555E+22
(PID.TID 0000.0001) %MON surfExpan_theta_mean         =  -3.7817274868710E-04
(PID.TID 0000.0001) %MON surfExpan_salt_mean          =   1.0974222154241E-04
(PID.TID 0000.0001) // =======================================================
(PID.TID 0000.0001) // End MONITOR dynamic field statistics
(PID.TID 0000.0001) // =======================================================
time,SST,SSS,fu,fv,Q,E-P,i0,i1,a,b =   3.2832E+06 -2.3399E-01  0.0000E+00 -1.8674E-02 -2.5560E-02  1.4314E+02 -2.0964E-09     1     2  8.0000E-01  2.0000E-01
time,fu0,fu1,fu =   3.2832E+06 -3.5633E-02 -1.4435E-02 -1.8674E-02  8.0000E-01  2.0000E-01
 cg2d: Sum(rhs),rhsMax =   2.22044604925031E-16  1.72980641407882E+02
(PID.TID 0000.0001)                    cg2d_init_res =    2.20336654840750E-03
(PID.TID 0000.0001)                       cg2d_iters =   103
(PID.TID 0000.0001)                         cg2d_res =    8.80492940141316E-10
(PID.TID 0000.0001) // =======================================================
(PID.TID 0000.0001) // Begin MONITOR dynamic field statistics
(PID.TID 0000.0001) // =======================================================
(PID.TID 0000.0001) %MON time_tsnumber                =                    20
(PID.TID 0000.0001) %MON time_secondsf                =   3.4560000000000E+06
(PID.TID 0000.0001) %MON dynstat_eta_max              =   4.6875387007067E+04
(PID.TID 0000.0001) %MON dynstat_eta_min              =  -9.2592574454625E+04
(PID.TID 0000.0001) %MON dynstat_eta_mean             =  -2.4207959594924E-12
(PID.TID 0000.0001) %MON dynstat_eta_sd               =   3.9660480884299E+04
(PID.TID 0000.0001) %MON dynstat_eta_del2             =   2.3964912263460E+04
(PID.TID 0000.0001) %MON dynstat_uvel_max             =   2.0380711146692E-01
(PID.TID 0000.0001) %MON dynstat_uvel_min             =  -1.0117106153701E-01
(PID.TID 0000.0001) %MON dynstat_uvel_mean            =   6.5022011438727E-04
(PID.TID 0000.0001) %MON dynstat_uvel_sd              =   1.6087006362540E-02
(PID.TID 0000.0001) %MON dynstat_uvel_del2            =   3.2336271603155E-03
(PID.TID 0000.0001) %MON dynstat_vvel_max             =   9.8605674787935E-02
(PID.TID 0000.0001) %MON dynstat_vvel_min             =  -1.1322352375357E-01
(PID.TID 0000.0001) %MON dynstat_vvel_mean            =  -5.6309284943409E-05
(PID.TID 0000.0001) %MON dynstat_vvel_sd              =   9.8146435078070E-03
(PID.TID 0000.0001) %MON dynstat_vvel_del2            =   3.0580744118150E-03
(PID.TID 0000.0001) %MON dynstat_wvel_max             =   3.0674883173399E+00
(PID.TID 0000.0001) %MON dynstat_wvel_min             =  -1.8904369218662E+00
(PID.TID 0000.0001) %MON dynstat_wvel_mean            =  -6.2448691780742E-05
(PID.TID 0000.0001) %MON dynstat_wvel_sd              =   1.9978837952060E-01
(PID.TID 0000.0001) %MON dynstat_wvel_del2            =   8.8511645180963E-02
(PID.TID 0000.0001) %MON dynstat_theta_max            =   2.9967099364551E+01
(PID.TID 0000.0001) %MON dynstat_theta_min            =  -3.3192742220078E+00
(PID.TID 0000.0001) %MON dynstat_theta_mean           =   3.6041328121575E+00
(PID.TID 0000.0001) %MON dynstat_theta_sd             =   4.4045044889141E+00
(PID.TID 0000.0001) %MON dynstat_theta_del2           =   1.4393753121528E-01
(PID.TID 0000.0001) %MON dynstat_salt_max             =   3.7435286475255E+01
(PID.TID 0000.0001) %MON dynstat_salt_min             =   2.9762956143225E+01
(PID.TID 0000.0001) %MON dynstat_salt_mean            =   3.4718000673347E+01
(PID.TID 0000.0001) %MON dynstat_salt_sd              =   2.9441588426311E-01
(PID.TID 0000.0001) %MON dynstat_salt_del2            =   2.6780194708839E-02
(PID.TID 0000.0001) %MON advcfl_uvel_max              =   1.2983544458210E-01
(PID.TID 0000.0001) %MON advcfl_vvel_max              =   4.3995029556627E-02
(PID.TID 0000.0001) %MON advcfl_wvel_max              =   9.7200806557501E-02
(PID.TID 0000.0001) %MON advcfl_W_hf_max              =   9.7200806557501E-02
(PID.TID 0000.0001) %MON ke_max                       =   2.0296913521669E-02
(PID.TID 0000.0001) %MON ke_mean                      =   4.8919875468418E-04
(PID.TID 0000.0001) %MON ke_volint                    =   2.1583525237990E+18
(PID.TID 0000.0001) %MON ke_volmean                   =   1.6056611880090E-04
(PID.TID 0000.0001) %MON ke_vol                       =   1.3442141716555E+22
(PID.TID 0000.0001) %MON surfExpan_theta_mean         =  -4.5433864216703E-04
(PID.TID 0000.0001) %MON surfExpan_salt_mean          =   1.2204417114085E-04
(PID.TID 0000.0001) // =======================================================
(PID.TID 0000.0001) // End MONITOR dynamic field statistics
(PID.TID 0000.0001) // =======================================================
(PID.TID 0000.0001)   Seconds in section "ALL                    [THE_MODEL_MAIN]":
(PID.TID 0000.0001)           User time:  32.0199988
(PID.TID 0000.0001)         System time:  0.479999989
(PID.TID 0000.0001)     Wall clock time:  32.617368
(PID.TID 0000.0001)          No. starts: 1
(PID.TID 0000.0001)           No. stops: 1
(PID.TID 0000.0001)   Seconds in section "INITIALISE_FIXED       [THE_MODEL_MAIN]":
(PID.TID 0000.0001)           User time:  0.399999987
(PID.TID 0000.0001)         System time:  0.0700000003
(PID.TID 0000.0001)     Wall clock time:  0.49032104
(PID.TID 0000.0001)          No. starts: 1
(PID.TID 0000.0001)           No. stops: 1
(PID.TID 0000.0001)   Seconds in section "THE_MAIN_LOOP          [THE_MODEL_MAIN]":
(PID.TID 0000.0001)           User time:  31.2700005
(PID.TID 0000.0001)         System time:  0.360000007
(PID.TID 0000.0001)     Wall clock time:  31.723141
(PID.TID 0000.0001)          No. starts: 1
(PID.TID 0000.0001)           No. stops: 1
(PID.TID 0000.0001)   Seconds in section "INITIALISE_VARIA    [THE_MAIN_LOOP]":
(PID.TID 0000.0001)           User time:  0.240000039
(PID.TID 0000.0001)         System time:  0.100000001
(PID.TID 0000.0001)     Wall clock time:  0.40824008
(PID.TID 0000.0001)          No. starts: 1
(PID.TID 0000.0001)           No. stops: 1
(PID.TID 0000.0001)   Seconds in section "WRITE_STATE         [THE_MAIN_LOOP]":
(PID.TID 0000.0001)           User time:  0.189999998
(PID.TID 0000.0001)         System time:  0.100000009
(PID.TID 0000.0001)     Wall clock time:  0.282667994
(PID.TID 0000.0001)          No. starts: 1
(PID.TID 0000.0001)           No. stops: 1
(PID.TID 0000.0001)   Seconds in section "MONITOR             [THE_MAIN_LOOP]":
(PID.TID 0000.0001)           User time:  0.139999986
(PID.TID 0000.0001)         System time:  0.
(PID.TID 0000.0001)     Wall clock time:  0.142186046
(PID.TID 0000.0001)          No. starts: 1
(PID.TID 0000.0001)           No. stops: 1
(PID.TID 0000.0001)   Seconds in section "MAIN LOOP           [THE_MAIN_LOOP]":
(PID.TID 0000.0001)           User time:  30.7000005
(PID.TID 0000.0001)         System time:  0.159999996
(PID.TID 0000.0001)     Wall clock time:  30.889671
(PID.TID 0000.0001)          No. starts: 1
(PID.TID 0000.0001)           No. stops: 1
(PID.TID 0000.0001)   Seconds in section "FORWARD_STEP        [THE_MAIN_LOOP]":
(PID.TID 0000.0001)           User time:  30.7000005
(PID.TID 0000.0001)         System time:  0.159999996
(PID.TID 0000.0001)     Wall clock time:  30.8881867
(PID.TID 0000.0001)          No. starts: 20
(PID.TID 0000.0001)           No. stops: 20
(PID.TID 0000.0001)   Seconds in section "UPDATE_ETAH        [FORWARD_STEP]":
(PID.TID 0000.0001)           User time:  0.00999832153
(PID.TID 0000.0001)         System time:  0.
(PID.TID 0000.0001)     Wall clock time:  0.00444710255
(PID.TID 0000.0001)          No. starts: 20
(PID.TID 0000.0001)           No. stops: 20
(PID.TID 0000.0001)   Seconds in section "CALC_SURF_DR      [FORWARD_STEP]":
(PID.TID 0000.0001)           User time:  0.0699996948
(PID.TID 0000.0001)         System time:  0.
(PID.TID 0000.0001)     Wall clock time:  0.0841376781
(PID.TID 0000.0001)          No. starts: 20
(PID.TID 0000.0001)           No. stops: 20
(PID.TID 0000.0001)   Seconds in section "EXTERNAL_FIELDS_LOAD[FORWARD_STEP]":
(PID.TID 0000.0001)           User time:  0.110001802
(PID.TID 0000.0001)         System time:  0.0199999809
(PID.TID 0000.0001)     Wall clock time:  0.153903127
(PID.TID 0000.0001)          No. starts: 20
(PID.TID 0000.0001)           No. stops: 20
(PID.TID 0000.0001)   Seconds in section "THERMODYNAMICS      [FORWARD_STEP]":
(PID.TID 0000.0001)           User time:  9.58000088
(PID.TID 0000.0001)         System time:  0.0499999821
(PID.TID 0000.0001)     Wall clock time:  9.6377579
(PID.TID 0000.0001)          No. starts: 20
(PID.TID 0000.0001)           No. stops: 20
(PID.TID 0000.0001)   Seconds in section "BLOCKING_EXCHANGES  [FORWARD_STEP]":
(PID.TID 0000.0001)           User time:  0.150001049
(PID.TID 0000.0001)         System time:  0.
(PID.TID 0000.0001)     Wall clock time:  0.158928156
(PID.TID 0000.0001)          No. starts: 40
(PID.TID 0000.0001)           No. stops: 40
(PID.TID 0000.0001)   Seconds in section "DYNAMICS            [FORWARD_STEP]":
(PID.TID 0000.0001)           User time:  10.9100006
(PID.TID 0000.0001)         System time:  0.0100000203
(PID.TID 0000.0001)     Wall clock time:  10.907322
(PID.TID 0000.0001)          No. starts: 20
(PID.TID 0000.0001)           No. stops: 20
(PID.TID 0000.0001)   Seconds in section "UPDATE_SURF_DR     [FORWARD_STEP]":
(PID.TID 0000.0001)           User time:  0.0300002098
(PID.TID 0000.0001)         System time:  0.
(PID.TID 0000.0001)     Wall clock time:  0.0336817503
(PID.TID 0000.0001)          No. starts: 20
(PID.TID 0000.0001)           No. stops: 20
(PID.TID 0000.0001)   Seconds in section "UPDATE_CG2D        [FORWARD_STEP]":
(PID.TID 0000.0001)           User time:  0.26000309
(PID.TID 0000.0001)         System time:  0.
(PID.TID 0000.0001)     Wall clock time:  0.245527864
(PID.TID 0000.0001)          No. starts: 20
(PID.TID 0000.0001)           No. stops: 20
(PID.TID 0000.0001)   Seconds in section "SOLVE_FOR_PRESSURE  [FORWARD_STEP]":
(PID.TID 0000.0001)           User time:  4.26999569
(PID.TID 0000.0001)         System time:  0.
(PID.TID 0000.0001)     Wall clock time:  4.24835861
(PID.TID 0000.0001)          No. starts: 20
(PID.TID 0000.0001)           No. stops: 20
(PID.TID 0000.0001)   Seconds in section "THE_CORRECTION_STEP [FORWARD_STEP]":
(PID.TID 0000.0001)           User time:  2.17999935
(PID.TID 0000.0001)         System time:  0.
(PID.TID 0000.0001)     Wall clock time:  2.18866611
(PID.TID 0000.0001)          No. starts: 20
(PID.TID 0000.0001)           No. stops: 20
(PID.TID 0000.0001)   Seconds in section "MONITOR             [FORWARD_STEP]":
(PID.TID 0000.0001)           User time:  2.91999912
(PID.TID 0000.0001)         System time:  0.
(PID.TID 0000.0001)     Wall clock time:  2.92117894
(PID.TID 0000.0001)          No. starts: 20
(PID.TID 0000.0001)           No. stops: 20
(PID.TID 0000.0001)   Seconds in section "DO_THE_MODEL_IO     [FORWARD_STEP]":
(PID.TID 0000.0001)           User time:  0.200000763
(PID.TID 0000.0001)         System time:  0.0800000131
(PID.TID 0000.0001)     Wall clock time:  0.280834198
(PID.TID 0000.0001)          No. starts: 20
(PID.TID 0000.0001)           No. stops: 20
(PID.TID 0000.0001)   Seconds in section "WRITE_CHECKPOINT    [FORWARD_STEP]":
(PID.TID 0000.0001)           User time:  0.
(PID.TID 0000.0001)         System time:  0.
(PID.TID 0000.0001)     Wall clock time:  0.0014449358
(PID.TID 0000.0001)          No. starts: 20
(PID.TID 0000.0001)           No. stops: 20
(PID.TID 0000.0001)   Seconds in section "WRITE_CHECKPOINT       [THE_MODEL_MAIN]":
(PID.TID 0000.0001)           User time:  0.339998245
(PID.TID 0000.0001)         System time:  0.0499999821
(PID.TID 0000.0001)     Wall clock time:  0.403565049
(PID.TID 0000.0001)          No. starts: 1
(PID.TID 0000.0001)           No. stops: 1
(PID.TID 0000.0001) // ======================================================
(PID.TID 0000.0001) // Tile <-> Tile communication statistics
(PID.TID 0000.0001) // ======================================================
(PID.TID 0000.0001) // o Tile number: 000001
(PID.TID 0000.0001) //         No. X exchanges =              0
(PID.TID 0000.0001) //            Max. X spins =              0
(PID.TID 0000.0001) //            Min. X spins =     1000000000
(PID.TID 0000.0001) //          Total. X spins =              0
(PID.TID 0000.0001) //            Avg. X spins =       0.00E+00
(PID.TID 0000.0001) //         No. Y exchanges =              0
(PID.TID 0000.0001) //            Max. Y spins =              0
(PID.TID 0000.0001) //            Min. Y spins =     1000000000
(PID.TID 0000.0001) //          Total. Y spins =              0
(PID.TID 0000.0001) //            Avg. Y spins =       0.00E+00
(PID.TID 0000.0001) // o Thread number: 000001
(PID.TID 0000.0001) //            No. barriers =          32270
(PID.TID 0000.0001) //      Max. barrier spins =              1
(PID.TID 0000.0001) //      Min. barrier spins =              1
(PID.TID 0000.0001) //     Total barrier spins =          32270
(PID.TID 0000.0001) //      Avg. barrier spins =       1.00E+00
