(PID.TID 0000.0001) 
(PID.TID 0000.0001) // ======================================================
(PID.TID 0000.0001) //                      MITgcm UV
(PID.TID 0000.0001) //                      =========
(PID.TID 0000.0001) // ======================================================
(PID.TID 0000.0001) // execution environment starting up...
(PID.TID 0000.0001) // Run starting Wed Apr  1 14:19:48 1998
(PID.TID 0000.0001) // on melville.lcs.mit.edu
(PID.TID 0000.0001) // account cnh
(PID.TID 0000.0001) // MITgcm UV Release: $Name:  $
(PID.TID 0000.0001) 
(PID.TID 0000.0001) // =======================================================
(PID.TID 0000.0001) // Execution Environment parameter file "eedata"
(PID.TID 0000.0001) // =======================================================
(PID.TID 0000.0001) ># Example "eedata" file
(PID.TID 0000.0001) ># Lines beginning "#" are comments
(PID.TID 0000.0001) ># nTx - No. threads per process in X
(PID.TID 0000.0001) ># nTy - No. threads per process in Y
(PID.TID 0000.0001) > &EEPARMS
(PID.TID 0000.0001) > nTx=1,nTy=1
(PID.TID 0000.0001) > &
(PID.TID 0000.0001) ># Note: Some systems use & as the
(PID.TID 0000.0001) ># namelist terminator. Other systems
(PID.TID 0000.0001) ># use a / character (as shown here).
(PID.TID 0000.0001) 
(PID.TID 0000.0001) // =======================================================
(PID.TID 0000.0001) // Computational Grid Specification ( see files "SIZE.h" )
(PID.TID 0000.0001) //                                  ( and "eedata"       )
(PID.TID 0000.0001) // =======================================================
(PID.TID 0000.0001)      nPx =    1 ; /* No. processes in X */
(PID.TID 0000.0001)      nPy =    1 ; /* No. processes in Y */
(PID.TID 0000.0001)      nSx =    1 ; /* No. tiles in X per process */
(PID.TID 0000.0001)      nSy =    1 ; /* No. tiles in Y per process */
(PID.TID 0000.0001)      sNx =   20 ; /* Tile size in X */
(PID.TID 0000.0001)      sNy =   20 ; /* Tile size in Y */
(PID.TID 0000.0001)      OLx =    3 ; /* Tile overlap distance in X */
(PID.TID 0000.0001)      OLy =    3 ; /* Tile overlap distance in Y */
(PID.TID 0000.0001)      nTx =    1 ; /* No. threads in X per process */
(PID.TID 0000.0001)      nTy =    1 ; /* No. threads in Y per process */
(PID.TID 0000.0001)       Nr =    1 ; /* No. levels in the vertical   */
(PID.TID 0000.0001)       nX =   20 ; /* Total domain size in X ( = nPx*nSx*sNx ) */
(PID.TID 0000.0001)       nY =   20 ; /* Total domain size in Y ( = nPy*nSy*sNy ) */
(PID.TID 0000.0001)   nTiles =    1 ; /* Total no. tiles per process ( = nSx*nSy ) */
(PID.TID 0000.0001)   nProcs =    1 ; /* Total no. processes ( = nPx*nPy ) */
(PID.TID 0000.0001) nThreads =    1 ; /* Total no. threads per process ( = nTx*nTy ) */
(PID.TID 0000.0001) usingMPI =    F ; /* Flag used to control whether MPI is in use */
(PID.TID 0000.0001)                   /*  note: To execute a program with MPI calls */
(PID.TID 0000.0001)                   /*  it must be launched appropriately e.g     */
(PID.TID 0000.0001)                   /*  "mpirun -np 64 ......"                    */
(PID.TID 0000.0001) 
(PID.TID 0000.0001) // ======================================================
(PID.TID 0000.0001) // Mapping of tiles to threads
(PID.TID 0000.0001) // ======================================================
(PID.TID 0000.0001) // -o- Thread   1, tiles (   1:   1,   1:   1)
(PID.TID 0000.0001) 
(PID.TID 0000.0001) // ======================================================
(PID.TID 0000.0001) // Tile <-> Tile connectvity table
(PID.TID 0000.0001) // ======================================================
(PID.TID 0000.0001) // Tile number: 000001 (process no. = 000001)
(PID.TID 0000.0001) //        WEST: Tile = 000001, Process = 000001, Comm = put
(PID.TID 0000.0001) //                bi = 000001, bj = 000001
(PID.TID 0000.0001) //        EAST: Tile = 000001, Process = 000001, Comm = put
(PID.TID 0000.0001) //                bi = 000001, bj = 000001
(PID.TID 0000.0001) //       SOUTH: Tile = 000001, Process = 000001, Comm = put
(PID.TID 0000.0001) //                bi = 000001, bj = 000001
(PID.TID 0000.0001) //       NORTH: Tile = 000001, Process = 000001, Comm = put
(PID.TID 0000.0001) //                bi = 000001, bj = 000001
(PID.TID 0000.0001) 
(PID.TID 0000.0001) // =======================================================
(PID.TID 0000.0001) // Model parameter file "data"
(PID.TID 0000.0001) // =======================================================
(PID.TID 0000.0001) ># ====================
(PID.TID 0000.0001) ># | Model parameters |
(PID.TID 0000.0001) ># ====================
(PID.TID 0000.0001) >#
(PID.TID 0000.0001) ># Continuous equation parameters
(PID.TID 0000.0001) > &PARM01
(PID.TID 0000.0001) > rigidLid=.FALSE.,
(PID.TID 0000.0001) > implicitFreeSurface=.TRUE.,
(PID.TID 0000.0001) > sRef=35.,
(PID.TID 0000.0001) > f0=0.,
(PID.TID 0000.0001) > beta=0.,
(PID.TID 0000.0001) > tAlpha=0.,
(PID.TID 0000.0001) > momStepping=.FALSE.,
(PID.TID 0000.0001) > tempAdvScheme=33,
(PID.TID 0000.0001) > saltAdvScheme=33,
(PID.TID 0000.0001) > multiDimAdvection=.TRUE.,
(PID.TID 0000.0001) > &
(PID.TID 0000.0001) >
(PID.TID 0000.0001) ># Elliptic solver parameters
(PID.TID 0000.0001) > &PARM02
(PID.TID 0000.0001) > cg2dMaxIters=100,
(PID.TID 0000.0001) > cg2dTargetResidual=1.E-13,
(PID.TID 0000.0001) > &
(PID.TID 0000.0001) >
(PID.TID 0000.0001) ># Time stepping parameters
(PID.TID 0000.0001) > &PARM03
(PID.TID 0000.0001) > startTime=0,
(PID.TID 0000.0001) > endTime=200000.,
(PID.TID 0000.0001) > deltaT=2500.0,
(PID.TID 0000.0001) > abEps=0.1,
(PID.TID 0000.0001) > pChkptFreq=0.0,
(PID.TID 0000.0001) > chkptFreq=0.0,
(PID.TID 0000.0001) > dumpFreq=40000.0,
(PID.TID 0000.0001) > &
(PID.TID 0000.0001) >
(PID.TID 0000.0001) ># Gridding parameters
(PID.TID 0000.0001) > &PARM04
(PID.TID 0000.0001) > usingSphericalPolarGrid=.FALSE.,
(PID.TID 0000.0001) > usingCartesianGrid=.TRUE.,
(PID.TID 0000.0001) > delZ=1*10.E3,
(PID.TID 0000.0001) > dXspacing=10.E3,
(PID.TID 0000.0001) > dYspacing=10.E3,
(PID.TID 0000.0001) > &
(PID.TID 0000.0001) >
(PID.TID 0000.0001) ># Input datasets
(PID.TID 0000.0001) > &PARM05
(PID.TID 0000.0001) > &
(PID.TID 0000.0001) 
(PID.TID 0000.0001) %MON XC_max                       =   1.9500000000000E+05
(PID.TID 0000.0001) %MON XC_min                       =   5.0000000000000E+03
(PID.TID 0000.0001) %MON XC_mean                      =   1.0000000000000E+05
(PID.TID 0000.0001) %MON XC_sd                        =   5.7662812973354E+04
(PID.TID 0000.0001) %MON XG_max                       =   1.9000000000000E+05
(PID.TID 0000.0001) %MON XG_min                       =   1.0000000000000E+04
(PID.TID 0000.0001) %MON XG_mean                      =   1.0000000000000E+05
(PID.TID 0000.0001) %MON XG_sd                        =   5.4772255750517E+04
(PID.TID 0000.0001) %MON DXC_max                      =   1.0000000000000E+04
(PID.TID 0000.0001) %MON DXC_min                      =   1.0000000000000E+04
(PID.TID 0000.0001) %MON DXC_mean                     =   1.0000000000000E+04
(PID.TID 0000.0001) %MON DXC_sd                       =   0.0000000000000E+00
(PID.TID 0000.0001) %MON DXF_max                      =   1.0000000000000E+04
(PID.TID 0000.0001) %MON DXF_min                      =   1.0000000000000E+04
(PID.TID 0000.0001) %MON DXF_mean                     =   1.0000000000000E+04
(PID.TID 0000.0001) %MON DXF_sd                       =   0.0000000000000E+00
(PID.TID 0000.0001) %MON DXG_max                      =   1.0000000000000E+04
(PID.TID 0000.0001) %MON DXG_min                      =   1.0000000000000E+04
(PID.TID 0000.0001) %MON DXG_mean                     =   1.0000000000000E+04
(PID.TID 0000.0001) %MON DXG_sd                       =   0.0000000000000E+00
(PID.TID 0000.0001) %MON DXV_max                      =   1.0000000000000E+04
(PID.TID 0000.0001) %MON DXV_min                      =   1.0000000000000E+04
(PID.TID 0000.0001) %MON DXV_mean                     =   1.0000000000000E+04
(PID.TID 0000.0001) %MON DXV_sd                       =   0.0000000000000E+00
(PID.TID 0000.0001) %MON YC_max                       =   1.9500000000000E+05
(PID.TID 0000.0001) %MON YC_min                       =   5.0000000000000E+03
(PID.TID 0000.0001) %MON YC_mean                      =   1.0000000000000E+05
(PID.TID 0000.0001) %MON YC_sd                        =   5.7662812973354E+04
(PID.TID 0000.0001) %MON YG_max                       =   1.9000000000000E+05
(PID.TID 0000.0001) %MON YG_min                       =   1.0000000000000E+04
(PID.TID 0000.0001) %MON YG_mean                      =   1.0000000000000E+05
(PID.TID 0000.0001) %MON YG_sd                        =   5.4772255750517E+04
(PID.TID 0000.0001) %MON DYC_max                      =   1.0000000000000E+04
(PID.TID 0000.0001) %MON DYC_min                      =   1.0000000000000E+04
(PID.TID 0000.0001) %MON DYC_mean                     =   1.0000000000000E+04
(PID.TID 0000.0001) %MON DYC_sd                       =   0.0000000000000E+00
(PID.TID 0000.0001) %MON DYF_max                      =   1.0000000000000E+04
(PID.TID 0000.0001) %MON DYF_min                      =   1.0000000000000E+04
(PID.TID 0000.0001) %MON DYF_mean                     =   1.0000000000000E+04
(PID.TID 0000.0001) %MON DYF_sd                       =   0.0000000000000E+00
(PID.TID 0000.0001) %MON DYG_max                      =   1.0000000000000E+04
(PID.TID 0000.0001) %MON DYG_min                      =   1.0000000000000E+04
(PID.TID 0000.0001) %MON DYG_mean                     =   1.0000000000000E+04
(PID.TID 0000.0001) %MON DYG_sd                       =   0.0000000000000E+00
(PID.TID 0000.0001) %MON DYU_max                      =   1.0000000000000E+04
(PID.TID 0000.0001) %MON DYU_min                      =   1.0000000000000E+04
(PID.TID 0000.0001) %MON DYU_mean                     =   1.0000000000000E+04
(PID.TID 0000.0001) %MON DYU_sd                       =   0.0000000000000E+00
(PID.TID 0000.0001) %MON RA_max                       =   1.0000000000000E+08
(PID.TID 0000.0001) %MON RA_min                       =   1.0000000000000E+08
(PID.TID 0000.0001) %MON RA_mean                      =   1.0000000000000E+08
(PID.TID 0000.0001) %MON RA_sd                        =   0.0000000000000E+00
(PID.TID 0000.0001) %MON RAW_max                      =   1.0000000000000E+08
(PID.TID 0000.0001) %MON RAW_min                      =   1.0000000000000E+08
(PID.TID 0000.0001) %MON RAW_mean                     =   1.0000000000000E+08
(PID.TID 0000.0001) %MON RAW_sd                       =   0.0000000000000E+00
(PID.TID 0000.0001) %MON RAS_max                      =   1.0000000000000E+08
(PID.TID 0000.0001) %MON RAS_min                      =   1.0000000000000E+08
(PID.TID 0000.0001) %MON RAS_mean                     =   1.0000000000000E+08
(PID.TID 0000.0001) %MON RAS_sd                       =   0.0000000000000E+00
(PID.TID 0000.0001) %MON RAZ_max                      =   1.0000000000000E+08
(PID.TID 0000.0001) %MON RAZ_min                      =   1.0000000000000E+08
(PID.TID 0000.0001) %MON RAZ_mean                     =   1.0000000000000E+08
(PID.TID 0000.0001) %MON RAZ_sd                       =   0.0000000000000E+00
(PID.TID 0000.0001) // =======================================================
(PID.TID 0000.0001) // Field Model R_low (ini_masks_etc) at iteration          1
(PID.TID 0000.0001) // CMIN =         -1.000000000000000E+04
(PID.TID 0000.0001) // CMAX =         -1.000000000000000E+04
(PID.TID 0000.0001) // CINT =          0.000000000000000E+00
(PID.TID 0000.0001) // SYMBOLS (CMIN->CMAX): -abcdefghijklmnopqrstuvwxyz+
(PID.TID 0000.0001) //                  0.0: .
(PID.TID 0000.0001) // RANGE I (Lo:Hi:Step):(  -2:  23:   1)
(PID.TID 0000.0001) // RANGE J (Lo:Hi:Step):(  23:  -2:  -1)
(PID.TID 0000.0001) // RANGE K (Lo:Hi:Step):(   1:   1:   1)
(PID.TID 0000.0001) // =======================================================
(PID.TID 0000.0001) K =   1
(PID.TID 0000.0001) //                I=7       I=17
(PID.TID 0000.0001) // |--J--|**0123456|890123456|890123
(PID.TID 0000.0001) //     23 --------------------------
(PID.TID 0000.0001) //     22 --------------------------
(PID.TID 0000.0001) //     21 --------------------------
(PID.TID 0000.0001) //     20 --------------------------
(PID.TID 0000.0001) //     19 --------------------------
(PID.TID 0000.0001) //     18 --------------------------
(PID.TID 0000.0001) //     17 --------------------------
(PID.TID 0000.0001) //     16 --------------------------
(PID.TID 0000.0001) //     15 --------------------------
(PID.TID 0000.0001) //     14 --------------------------
(PID.TID 0000.0001) //     13 --------------------------
(PID.TID 0000.0001) //     12 --------------------------
(PID.TID 0000.0001) //     11 --------------------------
(PID.TID 0000.0001) //     10 --------------------------
(PID.TID 0000.0001) //      9 --------------------------
(PID.TID 0000.0001) //      8 --------------------------
(PID.TID 0000.0001) //      7 --------------------------
(PID.TID 0000.0001) //      6 --------------------------
(PID.TID 0000.0001) //      5 --------------------------
(PID.TID 0000.0001) //      4 --------------------------
(PID.TID 0000.0001) //      3 --------------------------
(PID.TID 0000.0001) //      2 --------------------------
(PID.TID 0000.0001) //      1 --------------------------
(PID.TID 0000.0001) //      0 --------------------------
(PID.TID 0000.0001) //     -1 --------------------------
(PID.TID 0000.0001) //     -2 --------------------------
(PID.TID 0000.0001) // =======================================================
(PID.TID 0000.0001) // END OF FIELD                                          =
(PID.TID 0000.0001) // =======================================================
(PID.TID 0000.0001) 
(PID.TID 0000.0001) // =======================================================
(PID.TID 0000.0001) // Field Model Ro_surf (ini_masks_etc) at iteration          1
(PID.TID 0000.0001) // CMIN =          1.000000000000000E+32
(PID.TID 0000.0001) // CMAX =         -1.000000000000000E+32
(PID.TID 0000.0001) // CINT =          0.000000000000000E+00
(PID.TID 0000.0001) // SYMBOLS (CMIN->CMAX): -abcdefghijklmnopqrstuvwxyz+
(PID.TID 0000.0001) //                  0.0: .
(PID.TID 0000.0001) // RANGE I (Lo:Hi:Step):(  -2:  23:   1)
(PID.TID 0000.0001) // RANGE J (Lo:Hi:Step):(  23:  -2:  -1)
(PID.TID 0000.0001) // RANGE K (Lo:Hi:Step):(   1:   1:   1)
(PID.TID 0000.0001) // =======================================================
(PID.TID 0000.0001) K =   1
(PID.TID 0000.0001) //                I=7       I=17
(PID.TID 0000.0001) // |--J--|**0123456|890123456|890123
(PID.TID 0000.0001) //     23 ..........................
(PID.TID 0000.0001) //     22 ..........................
(PID.TID 0000.0001) //     21 ..........................
(PID.TID 0000.0001) //     20 ..........................
(PID.TID 0000.0001) //     19 ..........................
(PID.TID 0000.0001) //     18 ..........................
(PID.TID 0000.0001) //     17 ..........................
(PID.TID 0000.0001) //     16 ..........................
(PID.TID 0000.0001) //     15 ..........................
(PID.TID 0000.0001) //     14 ..........................
(PID.TID 0000.0001) //     13 ..........................
(PID.TID 0000.0001) //     12 ..........................
(PID.TID 0000.0001) //     11 ..........................
(PID.TID 0000.0001) //     10 ..........................
(PID.TID 0000.0001) //      9 ..........................
(PID.TID 0000.0001) //      8 ..........................
(PID.TID 0000.0001) //      7 ..........................
(PID.TID 0000.0001) //      6 ..........................
(PID.TID 0000.0001) //      5 ..........................
(PID.TID 0000.0001) //      4 ..........................
(PID.TID 0000.0001) //      3 ..........................
(PID.TID 0000.0001) //      2 ..........................
(PID.TID 0000.0001) //      1 ..........................
(PID.TID 0000.0001) //      0 ..........................
(PID.TID 0000.0001) //     -1 ..........................
(PID.TID 0000.0001) //     -2 ..........................
(PID.TID 0000.0001) // =======================================================
(PID.TID 0000.0001) // END OF FIELD                                          =
(PID.TID 0000.0001) // =======================================================
(PID.TID 0000.0001) 
(PID.TID 0000.0001) // =======================================================
(PID.TID 0000.0001) // Field hFacC at iteration          1
(PID.TID 0000.0001) // CMIN =          1.000000000000000E+00
(PID.TID 0000.0001) // CMAX =          1.000000000000000E+00
(PID.TID 0000.0001) // CINT =          0.000000000000000E+00
(PID.TID 0000.0001) // SYMBOLS (CMIN->CMAX): -abcdefghijklmnopqrstuvwxyz+
(PID.TID 0000.0001) //                  0.0: .
(PID.TID 0000.0001) // RANGE I (Lo:Hi:Step):(  -2:  23:   1)
(PID.TID 0000.0001) // RANGE J (Lo:Hi:Step):(  23:  -2:  -1)
(PID.TID 0000.0001) // RANGE K (Lo:Hi:Step):(   1:   1:   1)
(PID.TID 0000.0001) // =======================================================
(PID.TID 0000.0001) K =   1
(PID.TID 0000.0001) //                I=7       I=17
(PID.TID 0000.0001) // |--J--|**0123456|890123456|890123
(PID.TID 0000.0001) //     23 --------------------------
(PID.TID 0000.0001) //     22 --------------------------
(PID.TID 0000.0001) //     21 --------------------------
(PID.TID 0000.0001) //     20 --------------------------
(PID.TID 0000.0001) //     19 --------------------------
(PID.TID 0000.0001) //     18 --------------------------
(PID.TID 0000.0001) //     17 --------------------------
(PID.TID 0000.0001) //     16 --------------------------
(PID.TID 0000.0001) //     15 --------------------------
(PID.TID 0000.0001) //     14 --------------------------
(PID.TID 0000.0001) //     13 --------------------------
(PID.TID 0000.0001) //     12 --------------------------
(PID.TID 0000.0001) //     11 --------------------------
(PID.TID 0000.0001) //     10 --------------------------
(PID.TID 0000.0001) //      9 --------------------------
(PID.TID 0000.0001) //      8 --------------------------
(PID.TID 0000.0001) //      7 --------------------------
(PID.TID 0000.0001) //      6 --------------------------
(PID.TID 0000.0001) //      5 --------------------------
(PID.TID 0000.0001) //      4 --------------------------
(PID.TID 0000.0001) //      3 --------------------------
(PID.TID 0000.0001) //      2 --------------------------
(PID.TID 0000.0001) //      1 --------------------------
(PID.TID 0000.0001) //      0 --------------------------
(PID.TID 0000.0001) //     -1 --------------------------
(PID.TID 0000.0001) //     -2 --------------------------
(PID.TID 0000.0001) // =======================================================
(PID.TID 0000.0001) // END OF FIELD                                          =
(PID.TID 0000.0001) // =======================================================
(PID.TID 0000.0001) 
(PID.TID 0000.0001) // =======================================================
(PID.TID 0000.0001) // Field hFacW at iteration          1
(PID.TID 0000.0001) // CMIN =          1.000000000000000E+00
(PID.TID 0000.0001) // CMAX =          1.000000000000000E+00
(PID.TID 0000.0001) // CINT =          0.000000000000000E+00
(PID.TID 0000.0001) // SYMBOLS (CMIN->CMAX): -abcdefghijklmnopqrstuvwxyz+
(PID.TID 0000.0001) //                  0.0: .
(PID.TID 0000.0001) // RANGE I (Lo:Hi:Step):(  -2:  23:   1)
(PID.TID 0000.0001) // RANGE J (Lo:Hi:Step):(  23:  -2:  -1)
(PID.TID 0000.0001) // RANGE K (Lo:Hi:Step):(   1:   1:   1)
(PID.TID 0000.0001) // =======================================================
(PID.TID 0000.0001) K =   1
(PID.TID 0000.0001) //                I=7       I=17
(PID.TID 0000.0001) // |--J--|**0123456|890123456|890123
(PID.TID 0000.0001) //     23 --------------------------
(PID.TID 0000.0001) //     22 --------------------------
(PID.TID 0000.0001) //     21 --------------------------
(PID.TID 0000.0001) //     20 --------------------------
(PID.TID 0000.0001) //     19 --------------------------
(PID.TID 0000.0001) //     18 --------------------------
(PID.TID 0000.0001) //     17 --------------------------
(PID.TID 0000.0001) //     16 --------------------------
(PID.TID 0000.0001) //     15 --------------------------
(PID.TID 0000.0001) //     14 --------------------------
(PID.TID 0000.0001) //     13 --------------------------
(PID.TID 0000.0001) //     12 --------------------------
(PID.TID 0000.0001) //     11 --------------------------
(PID.TID 0000.0001) //     10 --------------------------
(PID.TID 0000.0001) //      9 --------------------------
(PID.TID 0000.0001) //      8 --------------------------
(PID.TID 0000.0001) //      7 --------------------------
(PID.TID 0000.0001) //      6 --------------------------
(PID.TID 0000.0001) //      5 --------------------------
(PID.TID 0000.0001) //      4 --------------------------
(PID.TID 0000.0001) //      3 --------------------------
(PID.TID 0000.0001) //      2 --------------------------
(PID.TID 0000.0001) //      1 --------------------------
(PID.TID 0000.0001) //      0 --------------------------
(PID.TID 0000.0001) //     -1 --------------------------
(PID.TID 0000.0001) //     -2 --------------------------
(PID.TID 0000.0001) // =======================================================
(PID.TID 0000.0001) // END OF FIELD                                          =
(PID.TID 0000.0001) // =======================================================
(PID.TID 0000.0001) 
(PID.TID 0000.0001) // =======================================================
(PID.TID 0000.0001) // Field hFacS at iteration          1
(PID.TID 0000.0001) // CMIN =          1.000000000000000E+00
(PID.TID 0000.0001) // CMAX =          1.000000000000000E+00
(PID.TID 0000.0001) // CINT =          0.000000000000000E+00
(PID.TID 0000.0001) // SYMBOLS (CMIN->CMAX): -abcdefghijklmnopqrstuvwxyz+
(PID.TID 0000.0001) //                  0.0: .
(PID.TID 0000.0001) // RANGE I (Lo:Hi:Step):(  -2:  23:   1)
(PID.TID 0000.0001) // RANGE J (Lo:Hi:Step):(  23:  -2:  -1)
(PID.TID 0000.0001) // RANGE K (Lo:Hi:Step):(   1:   1:   1)
(PID.TID 0000.0001) // =======================================================
(PID.TID 0000.0001) K =   1
(PID.TID 0000.0001) //                I=7       I=17
(PID.TID 0000.0001) // |--J--|**0123456|890123456|890123
(PID.TID 0000.0001) //     23 --------------------------
(PID.TID 0000.0001) //     22 --------------------------
(PID.TID 0000.0001) //     21 --------------------------
(PID.TID 0000.0001) //     20 --------------------------
(PID.TID 0000.0001) //     19 --------------------------
(PID.TID 0000.0001) //     18 --------------------------
(PID.TID 0000.0001) //     17 --------------------------
(PID.TID 0000.0001) //     16 --------------------------
(PID.TID 0000.0001) //     15 --------------------------
(PID.TID 0000.0001) //     14 --------------------------
(PID.TID 0000.0001) //     13 --------------------------
(PID.TID 0000.0001) //     12 --------------------------
(PID.TID 0000.0001) //     11 --------------------------
(PID.TID 0000.0001) //     10 --------------------------
(PID.TID 0000.0001) //      9 --------------------------
(PID.TID 0000.0001) //      8 --------------------------
(PID.TID 0000.0001) //      7 --------------------------
(PID.TID 0000.0001) //      6 --------------------------
(PID.TID 0000.0001) //      5 --------------------------
(PID.TID 0000.0001) //      4 --------------------------
(PID.TID 0000.0001) //      3 --------------------------
(PID.TID 0000.0001) //      2 --------------------------
(PID.TID 0000.0001) //      1 --------------------------
(PID.TID 0000.0001) //      0 --------------------------
(PID.TID 0000.0001) //     -1 --------------------------
(PID.TID 0000.0001) //     -2 --------------------------
(PID.TID 0000.0001) // =======================================================
(PID.TID 0000.0001) // END OF FIELD                                          =
(PID.TID 0000.0001) // =======================================================
(PID.TID 0000.0001) 
(PID.TID 0000.0001) %MON fCori_max                    =   0.0000000000000E+00
(PID.TID 0000.0001) %MON fCori_min                    =   0.0000000000000E+00
(PID.TID 0000.0001) %MON fCori_mean                   =   0.0000000000000E+00
(PID.TID 0000.0001) %MON fCori_sd                     =   0.0000000000000E+00
(PID.TID 0000.0001) %MON fCoriG_max                   =   0.0000000000000E+00
(PID.TID 0000.0001) %MON fCoriG_min                   =   0.0000000000000E+00
(PID.TID 0000.0001) %MON fCoriG_mean                  =   0.0000000000000E+00
(PID.TID 0000.0001) %MON fCoriG_sd                    =   0.0000000000000E+00
(PID.TID 0000.0001)  PACKAGE_INIT: opening data.pkg
(PID.TID 0000.0001)  OPEN_COPY_DATA_FILE: opening file data.pkg
(PID.TID 0000.0001) // =======================================================
(PID.TID 0000.0001) // Parameter file "data.pkg"
(PID.TID 0000.0001) // =======================================================
(PID.TID 0000.0001) ># Packages
(PID.TID 0000.0001) > &PACKAGES
(PID.TID 0000.0001) > &
(PID.TID 0000.0001) 
(PID.TID 0000.0001)  PACKAGE_INIT: finished reading data.pkg
(PID.TID 0000.0001) // CG2D normalisation factor =          0.1000000000000000047921736E-03
(PID.TID 0000.0001) 
(PID.TID 0000.0001) // =======================================================
(PID.TID 0000.0001) // Model configuration
(PID.TID 0000.0001) // =======================================================
(PID.TID 0000.0001) //
(PID.TID 0000.0001) // "Physical" paramters ( PARM01 in namelist )
(PID.TID 0000.0001) //
(PID.TID 0000.0001) tRef =   /* Reference temperature profile ( oC or oK ) */
(PID.TID 0000.0001)                 2.900000000000000E+01       /* K =  1 */
(PID.TID 0000.0001)     ;
(PID.TID 0000.0001) sRef =   /* Reference salinity profile ( ppt ) */
(PID.TID 0000.0001)                 3.500000000000000E+01       /* K =  1 */
(PID.TID 0000.0001)     ;
(PID.TID 0000.0001) viscAh =   /* Lateral eddy viscosity ( m^2/s ) */
(PID.TID 0000.0001)                 0.000000000000000E+00
(PID.TID 0000.0001)     ;
(PID.TID 0000.0001) viscAh =   /* Lateral biharmonic viscosity ( m^4/s ) */
(PID.TID 0000.0001)                 0.000000000000000E+00
(PID.TID 0000.0001)     ;
(PID.TID 0000.0001) no_slip_sides =  /* Viscous BCs: No-slip sides */
(PID.TID 0000.0001)                   T
(PID.TID 0000.0001)     ;
(PID.TID 0000.0001) viscAr =   /* Vertical eddy viscosity ( units of r^2/s ) */
(PID.TID 0000.0001)                 0.000000000000000E+00
(PID.TID 0000.0001)     ;
(PID.TID 0000.0001) diffKhT =   /* Laplacian diffusion of heat laterally ( m^2/s ) */
(PID.TID 0000.0001)                 0.000000000000000E+00
(PID.TID 0000.0001)     ;
(PID.TID 0000.0001) diffK4T =   /* Bihaarmonic diffusion of heat laterally ( m^4/s ) */
(PID.TID 0000.0001)                 0.000000000000000E+00
(PID.TID 0000.0001)     ;
(PID.TID 0000.0001) diffKzT =   /* Laplacian diffusion of heat vertically ( m^2/s ) */
(PID.TID 0000.0001)                 1.234567000000000E+05
(PID.TID 0000.0001)     ;
(PID.TID 0000.0001) diffKrT =   /* Laplacian diffusion of heat vertically ( m^2/s ) */
(PID.TID 0000.0001)                 0.000000000000000E+00
(PID.TID 0000.0001)     ;
(PID.TID 0000.0001) diffKhS =   /* Laplacian diffusion of salt laterally ( m^2/s ) */
(PID.TID 0000.0001)                 0.000000000000000E+00
(PID.TID 0000.0001)     ;
(PID.TID 0000.0001) diffK4S =   /* Bihaarmonic diffusion of salt laterally ( m^4/s ) */
(PID.TID 0000.0001)                 0.000000000000000E+00
(PID.TID 0000.0001)     ;
(PID.TID 0000.0001) diffKzS =   /* Laplacian diffusion of salt vertically ( m^2/s ) */
(PID.TID 0000.0001)                 1.234567000000000E+05
(PID.TID 0000.0001)     ;
(PID.TID 0000.0001) diffKrS =   /* Laplacian diffusion of salt vertically ( m^2/s ) */
(PID.TID 0000.0001)                 0.000000000000000E+00
(PID.TID 0000.0001)     ;
(PID.TID 0000.0001) tAlpha =   /* Linear EOS thermal expansion coefficient ( 1/degree ) */
(PID.TID 0000.0001)                 0.000000000000000E+00
(PID.TID 0000.0001)     ;
(PID.TID 0000.0001) sBeta =   /* Linear EOS haline contraction coefficient ( 1/ppt ) */
(PID.TID 0000.0001)                 7.400000000000000E-04
(PID.TID 0000.0001)     ;
(PID.TID 0000.0001) rhonil =   /* Reference density ( kg/m^3 ) */
(PID.TID 0000.0001)                 9.998000000000000E+02
(PID.TID 0000.0001)     ;
(PID.TID 0000.0001) rhoConst =   /* Reference density ( kg/m^3 ) */
(PID.TID 0000.0001)                 9.998000000000000E+02
(PID.TID 0000.0001)     ;
(PID.TID 0000.0001) gravity =   /* Gravitational acceleration ( m/s^2 ) */
(PID.TID 0000.0001)                 9.810000000000000E+00
(PID.TID 0000.0001)     ;
(PID.TID 0000.0001) gBaro =   /* Barotropic gravity ( m/s^2 ) */
(PID.TID 0000.0001)                 9.810000000000000E+00
(PID.TID 0000.0001)     ;
(PID.TID 0000.0001) f0 =   /* Reference coriolis parameter ( 1/s ) */
(PID.TID 0000.0001)                 0.000000000000000E+00
(PID.TID 0000.0001)     ;
(PID.TID 0000.0001) beta =   /* Beta ( 1/(m.s) ) */
(PID.TID 0000.0001)                 0.000000000000000E+00
(PID.TID 0000.0001)     ;
(PID.TID 0000.0001) freeSurfFac =   /* Implicit free surface factor */
(PID.TID 0000.0001)                 1.000000000000000E+00
(PID.TID 0000.0001)     ;
(PID.TID 0000.0001) implicitFreeSurface =   /* Implicit free surface on/off flag */
(PID.TID 0000.0001)                   T
(PID.TID 0000.0001)     ;
(PID.TID 0000.0001) rigidLid =   /* Rigid lid on/off flag */
(PID.TID 0000.0001)                   F
(PID.TID 0000.0001)     ;
(PID.TID 0000.0001) implicSurfPress =   /* Surface Pressure implicit factor (0-1)*/
(PID.TID 0000.0001)                 1.000000000000000E+00
(PID.TID 0000.0001)     ;
(PID.TID 0000.0001) implicDiv2Dflow =   /* Barot. Flow Div. implicit factor (0-1)*/
(PID.TID 0000.0001)                 1.000000000000000E+00
(PID.TID 0000.0001)     ;
(PID.TID 0000.0001) staggerTimeStep =   /* Stagger time stepping on/off flag */
(PID.TID 0000.0001)                   F
(PID.TID 0000.0001)     ;
(PID.TID 0000.0001) momStepping =  /* Momentum equation on/off flag */
(PID.TID 0000.0001)                   F
(PID.TID 0000.0001)     ;
(PID.TID 0000.0001) momAdvection =  /* Momentum advection on/off flag */
(PID.TID 0000.0001)                   T
(PID.TID 0000.0001)     ;
(PID.TID 0000.0001) momViscosity =  /* Momentum viscosity on/off flag */
(PID.TID 0000.0001)                   T
(PID.TID 0000.0001)     ;
(PID.TID 0000.0001) useCoriolis =  /* Coriolis on/off flag */
(PID.TID 0000.0001)                   T
(PID.TID 0000.0001)     ;
(PID.TID 0000.0001) momForcing =  /* Momentum forcing on/off flag */
(PID.TID 0000.0001)                   T
(PID.TID 0000.0001)     ;
(PID.TID 0000.0001) momPressureForcing =  /* Momentum pressure term on/off flag */
(PID.TID 0000.0001)                   T
(PID.TID 0000.0001)     ;
(PID.TID 0000.0001) tempStepping =  /* Temperature equation on/off flag */
(PID.TID 0000.0001)                   T
(PID.TID 0000.0001)     ;
(PID.TID 0000.0001) nonHydrostatic =  /* Non-Hydrostatic on/off flag */
(PID.TID 0000.0001)                   F
(PID.TID 0000.0001)     ;
(PID.TID 0000.0001) //
(PID.TID 0000.0001) // Elliptic solver(s) paramters ( PARM02 in namelist )
(PID.TID 0000.0001) //
(PID.TID 0000.0001) cg2dMaxIters =   /* Upper limit on 2d con. grad iterations  */
(PID.TID 0000.0001)                     100
(PID.TID 0000.0001)     ;
(PID.TID 0000.0001) cg2dChkResFreq =   /* 2d con. grad convergence test frequency */
(PID.TID 0000.0001)                       1
(PID.TID 0000.0001)     ;
(PID.TID 0000.0001) cg2dTargetResidual =   /* 2d con. grad target residual  */
(PID.TID 0000.0001)                 1.000000000000000E-13
(PID.TID 0000.0001)     ;
(PID.TID 0000.0001) //
(PID.TID 0000.0001) // Time stepping paramters ( PARM03 in namelist )
(PID.TID 0000.0001) //
(PID.TID 0000.0001) nIter0 =   /* Base timestep number  */
(PID.TID 0000.0001)                       0
(PID.TID 0000.0001)     ;
(PID.TID 0000.0001) nTimeSteps =   /* Number of timesteps */
(PID.TID 0000.0001)                      80
(PID.TID 0000.0001)     ;
(PID.TID 0000.0001) deltatTmom =   /* Momentum equation timestep ( s ) */
(PID.TID 0000.0001)                 2.500000000000000E+03
(PID.TID 0000.0001)     ;
(PID.TID 0000.0001) deltatTtracer =   /* Tracer equation timestep ( s ) */
(PID.TID 0000.0001)                 2.500000000000000E+03
(PID.TID 0000.0001)     ;
(PID.TID 0000.0001) deltatTClock  =   /* Model clock timestep ( s ) */
(PID.TID 0000.0001)                 2.500000000000000E+03
(PID.TID 0000.0001)     ;
(PID.TID 0000.0001) cAdjFreq =   /* Convective adjustment interval ( s ) */
(PID.TID 0000.0001)                 0.000000000000000E+00
(PID.TID 0000.0001)     ;
(PID.TID 0000.0001) abeps =   /* Adams-Bashforth stabilizing weight */
(PID.TID 0000.0001)                 1.000000000000000E-01
(PID.TID 0000.0001)     ;
(PID.TID 0000.0001) tauCD =   /* CD coupling time-scale ( s ) */
(PID.TID 0000.0001)                 2.500000000000000E+03
(PID.TID 0000.0001)     ;
(PID.TID 0000.0001) rCD =   /* Normalised CD coupling parameter */
(PID.TID 0000.0001)                 0.000000000000000E+00
(PID.TID 0000.0001)     ;
(PID.TID 0000.0001) startTime =   /* Run start time ( s ). */
(PID.TID 0000.0001)                 0.000000000000000E+00
(PID.TID 0000.0001)     ;
(PID.TID 0000.0001) endTime =   /* Integration ending time ( s ). */
(PID.TID 0000.0001)                 2.000000000000000E+05
(PID.TID 0000.0001)     ;
(PID.TID 0000.0001) pChkPtFreq =   /* Permanent restart/checkpoint file interval ( s ). */
(PID.TID 0000.0001)                 0.000000000000000E+00
(PID.TID 0000.0001)     ;
(PID.TID 0000.0001) chkPtFreq =   /* Rolling restart/checkpoint file interval ( s ). */
(PID.TID 0000.0001)                 0.000000000000000E+00
(PID.TID 0000.0001)     ;
(PID.TID 0000.0001) dumpFreq =   /* Model state write out interval ( s ). */
(PID.TID 0000.0001)                 4.000000000000000E+04
(PID.TID 0000.0001)     ;
(PID.TID 0000.0001) //
(PID.TID 0000.0001) // Gridding paramters ( PARM04 in namelist )
(PID.TID 0000.0001) //
(PID.TID 0000.0001) usingCartesianGrid =   /* Cartesian coordinates flag ( True / False ) */
(PID.TID 0000.0001)                   T
(PID.TID 0000.0001)     ;
(PID.TID 0000.0001) usingSphericalPolarGrid =   /* Spherical coordinates flag ( True / False ) */
(PID.TID 0000.0001)                   F
(PID.TID 0000.0001)     ;
(PID.TID 0000.0001) groundAtK1 =   /* Lower Boundary (ground) at the surface(k=1) ( T / F ) */
(PID.TID 0000.0001)                   F
(PID.TID 0000.0001)     ;
(PID.TID 0000.0001) Ro_SeaLevel =   /* r(1) ( units of r ) */
(PID.TID 0000.0001)                 0.000000000000000E+00
(PID.TID 0000.0001)     ;
(PID.TID 0000.0001) rkFac =   /* minus Vertical index orientation  */
(PID.TID 0000.0001)                 1.000000000000000E+00
(PID.TID 0000.0001)     ;
(PID.TID 0000.0001) horiVertRatio =   /* Ratio on units : Horiz - Vertical */
(PID.TID 0000.0001)                 1.000000000000000E+00
(PID.TID 0000.0001)     ;
(PID.TID 0000.0001) delZ =   /* W spacing ( m ) */
(PID.TID 0000.0001)                 1.000000000000000E+04       /* K =  1 */
(PID.TID 0000.0001)     ;
(PID.TID 0000.0001) delP =   /* W spacing ( Pa ) */
(PID.TID 0000.0001)                 1.234567000000000E+05       /* K =  1 */
(PID.TID 0000.0001)     ;
(PID.TID 0000.0001) delR =   /* W spacing ( units of r ) */
(PID.TID 0000.0001)                 1.000000000000000E+04       /* K =  1 */
(PID.TID 0000.0001)     ;
(PID.TID 0000.0001) delX =   /* U spacing ( m - cartesian, degrees - spherical ) */
(PID.TID 0000.0001)    20 @  1.000000000000000E+04              /* I =  1: 20 */
(PID.TID 0000.0001)     ;
(PID.TID 0000.0001) delY =   /* V spacing ( m - cartesian, degrees - spherical ) */
(PID.TID 0000.0001)    20 @  1.000000000000000E+04              /* J =  1: 20 */
(PID.TID 0000.0001)     ;
(PID.TID 0000.0001) phiMin =    /* South edge (ignored - cartesian, degrees - spherical ) */
(PID.TID 0000.0001)                 0.000000000000000E+00
(PID.TID 0000.0001)     ;
(PID.TID 0000.0001) thetaMin =    /* West edge ( ignored - cartesian, degrees - spherical ) */
(PID.TID 0000.0001)                 0.000000000000000E+00
(PID.TID 0000.0001)     ;
(PID.TID 0000.0001) rSphere =    /* Radius ( ignored - cartesian, m - spherical ) */
(PID.TID 0000.0001)                 6.370000000000000E+06
(PID.TID 0000.0001)     ;
(PID.TID 0000.0001) xcoord =   /* P-point X coord ( m - cartesian, degrees - spherical ) */
(PID.TID 0000.0001)                 5.000000000000000E+03,      /* I =  1 */
(PID.TID 0000.0001)                 1.500000000000000E+04,      /* I =  2 */
(PID.TID 0000.0001)                 2.500000000000000E+04,      /* I =  3 */
(PID.TID 0000.0001)                 3.500000000000000E+04,      /* I =  4 */
(PID.TID 0000.0001)                 4.500000000000000E+04,      /* I =  5 */
(PID.TID 0000.0001)                 5.500000000000000E+04,      /* I =  6 */
(PID.TID 0000.0001)                 6.500000000000000E+04,      /* I =  7 */
(PID.TID 0000.0001)                 7.500000000000000E+04,      /* I =  8 */
(PID.TID 0000.0001)                 8.500000000000000E+04,      /* I =  9 */
(PID.TID 0000.0001)                 9.500000000000000E+04,      /* I = 10 */
(PID.TID 0000.0001)                 1.050000000000000E+05,      /* I = 11 */
(PID.TID 0000.0001)                 1.150000000000000E+05,      /* I = 12 */
(PID.TID 0000.0001)                 1.250000000000000E+05,      /* I = 13 */
(PID.TID 0000.0001)                 1.350000000000000E+05,      /* I = 14 */
(PID.TID 0000.0001)                 1.450000000000000E+05,      /* I = 15 */
(PID.TID 0000.0001)                 1.550000000000000E+05,      /* I = 16 */
(PID.TID 0000.0001)                 1.650000000000000E+05,      /* I = 17 */
(PID.TID 0000.0001)                 1.750000000000000E+05,      /* I = 18 */
(PID.TID 0000.0001)                 1.850000000000000E+05,      /* I = 19 */
(PID.TID 0000.0001)                 1.950000000000000E+05       /* I = 20 */
(PID.TID 0000.0001)     ;
(PID.TID 0000.0001) ycoord =   /* P-point Y coord ( m - cartesian, degrees - spherical ) */
(PID.TID 0000.0001)                 5.000000000000000E+03,      /* J =  1 */
(PID.TID 0000.0001)                 1.500000000000000E+04,      /* J =  2 */
(PID.TID 0000.0001)                 2.500000000000000E+04,      /* J =  3 */
(PID.TID 0000.0001)                 3.500000000000000E+04,      /* J =  4 */
(PID.TID 0000.0001)                 4.500000000000000E+04,      /* J =  5 */
(PID.TID 0000.0001)                 5.500000000000000E+04,      /* J =  6 */
(PID.TID 0000.0001)                 6.500000000000000E+04,      /* J =  7 */
(PID.TID 0000.0001)                 7.500000000000000E+04,      /* J =  8 */
(PID.TID 0000.0001)                 8.500000000000000E+04,      /* J =  9 */
(PID.TID 0000.0001)                 9.500000000000000E+04,      /* J = 10 */
(PID.TID 0000.0001)                 1.050000000000000E+05,      /* J = 11 */
(PID.TID 0000.0001)                 1.150000000000000E+05,      /* J = 12 */
(PID.TID 0000.0001)                 1.250000000000000E+05,      /* J = 13 */
(PID.TID 0000.0001)                 1.350000000000000E+05,      /* J = 14 */
(PID.TID 0000.0001)                 1.450000000000000E+05,      /* J = 15 */
(PID.TID 0000.0001)                 1.550000000000000E+05,      /* J = 16 */
(PID.TID 0000.0001)                 1.650000000000000E+05,      /* J = 17 */
(PID.TID 0000.0001)                 1.750000000000000E+05,      /* J = 18 */
(PID.TID 0000.0001)                 1.850000000000000E+05,      /* J = 19 */
(PID.TID 0000.0001)                 1.950000000000000E+05       /* J = 20 */
(PID.TID 0000.0001)     ;
(PID.TID 0000.0001) rcoord =   /* P-point R coordinate (  units of r ) */
(PID.TID 0000.0001)                -5.000000000000000E+03       /* K =  1 */
(PID.TID 0000.0001)     ;
(PID.TID 0000.0001) dxF =  /* dxF(:,1,:,1) ( m - cartesian, degrees - spherical ) */
(PID.TID 0000.0001)    20 @  1.000000000000000E+04              /* I =  1: 20 */
(PID.TID 0000.0001)     ;
(PID.TID 0000.0001) dxF =  /* dxF(1,:,1,:) ( m - cartesian, degrees - spherical ) */
(PID.TID 0000.0001)    20 @  1.000000000000000E+04              /* J =  1: 20 */
(PID.TID 0000.0001)     ;
(PID.TID 0000.0001) dyF =  /* dyF(:,1,:,1) ( m - cartesian, degrees - spherical ) */
(PID.TID 0000.0001)    20 @  1.000000000000000E+04              /* I =  1: 20 */
(PID.TID 0000.0001)     ;
(PID.TID 0000.0001) dyF =  /* dyF(1,:,1,:) ( m - cartesian, degrees - spherical ) */
(PID.TID 0000.0001)    20 @  1.000000000000000E+04              /* J =  1: 20 */
(PID.TID 0000.0001)     ;
(PID.TID 0000.0001) dxG =  /* dxG(:,1,:,1) ( m - cartesian, degrees - spherical ) */
(PID.TID 0000.0001)    20 @  1.000000000000000E+04              /* I =  1: 20 */
(PID.TID 0000.0001)     ;
(PID.TID 0000.0001) dxG =  /* dxG(1,:,1,:) ( m - cartesian, degrees - spherical ) */
(PID.TID 0000.0001)    20 @  1.000000000000000E+04              /* J =  1: 20 */
(PID.TID 0000.0001)     ;
(PID.TID 0000.0001) dyG =  /* dyG(:,1,:,1) ( m - cartesian, degrees - spherical ) */
(PID.TID 0000.0001)    20 @  1.000000000000000E+04              /* I =  1: 20 */
(PID.TID 0000.0001)     ;
(PID.TID 0000.0001) dyG =  /* dyG(1,:,1,:) ( m - cartesian, degrees - spherical ) */
(PID.TID 0000.0001)    20 @  1.000000000000000E+04              /* J =  1: 20 */
(PID.TID 0000.0001)     ;
(PID.TID 0000.0001) dxC =  /* dxC(:,1,:,1) ( m - cartesian, degrees - spherical ) */
(PID.TID 0000.0001)    20 @  1.000000000000000E+04              /* I =  1: 20 */
(PID.TID 0000.0001)     ;
(PID.TID 0000.0001) dxC =  /* dxC(1,:,1,:) ( m - cartesian, degrees - spherical ) */
(PID.TID 0000.0001)    20 @  1.000000000000000E+04              /* J =  1: 20 */
(PID.TID 0000.0001)     ;
(PID.TID 0000.0001) dyC =  /* dyC(:,1,:,1) ( m - cartesian, degrees - spherical ) */
(PID.TID 0000.0001)    20 @  1.000000000000000E+04              /* I =  1: 20 */
(PID.TID 0000.0001)     ;
(PID.TID 0000.0001) dyC =  /* dyC(1,:,1,:) ( m - cartesian, degrees - spherical ) */
(PID.TID 0000.0001)    20 @  1.000000000000000E+04              /* J =  1: 20 */
(PID.TID 0000.0001)     ;
(PID.TID 0000.0001) dxV =  /* dxV(:,1,:,1) ( m - cartesian, degrees - spherical ) */
(PID.TID 0000.0001)    20 @  1.000000000000000E+04              /* I =  1: 20 */
(PID.TID 0000.0001)     ;
(PID.TID 0000.0001) dxV =  /* dxV(1,:,1,:) ( m - cartesian, degrees - spherical ) */
(PID.TID 0000.0001)    20 @  1.000000000000000E+04              /* J =  1: 20 */
(PID.TID 0000.0001)     ;
(PID.TID 0000.0001) dyU =  /* dyU(:,1,:,1) ( m - cartesian, degrees - spherical ) */
(PID.TID 0000.0001)    20 @  1.000000000000000E+04              /* I =  1: 20 */
(PID.TID 0000.0001)     ;
(PID.TID 0000.0001) dyU =  /* dyU(1,:,1,:) ( m - cartesian, degrees - spherical ) */
(PID.TID 0000.0001)    20 @  1.000000000000000E+04              /* J =  1: 20 */
(PID.TID 0000.0001)     ;
(PID.TID 0000.0001) rA =  /* rA(:,1,:,1) ( m - cartesian, degrees - spherical ) */
(PID.TID 0000.0001)    20 @  1.000000000000000E+08              /* I =  1: 20 */
(PID.TID 0000.0001)     ;
(PID.TID 0000.0001) rA =  /* rA(1,:,1,:) ( m - cartesian, degrees - spherical ) */
(PID.TID 0000.0001)    20 @  1.000000000000000E+08              /* J =  1: 20 */
(PID.TID 0000.0001)     ;
(PID.TID 0000.0001) rAw =  /* rAw(:,1,:,1) ( m - cartesian, degrees - spherical ) */
(PID.TID 0000.0001)    20 @  1.000000000000000E+08              /* I =  1: 20 */
(PID.TID 0000.0001)     ;
(PID.TID 0000.0001) rAw =  /* rAw(1,:,1,:) ( m - cartesian, degrees - spherical ) */
(PID.TID 0000.0001)    20 @  1.000000000000000E+08              /* J =  1: 20 */
(PID.TID 0000.0001)     ;
(PID.TID 0000.0001) rAs =  /* rAs(:,1,:,1) ( m - cartesian, degrees - spherical ) */
(PID.TID 0000.0001)    20 @  1.000000000000000E+08              /* I =  1: 20 */
(PID.TID 0000.0001)     ;
(PID.TID 0000.0001) rAs =  /* rAs(1,:,1,:) ( m - cartesian, degrees - spherical ) */
(PID.TID 0000.0001)    20 @  1.000000000000000E+08              /* J =  1: 20 */
(PID.TID 0000.0001)     ;
(PID.TID 0000.0001) 
(PID.TID 0000.0001) // =======================================================
(PID.TID 0000.0001) // Field Initial Temperature at iteration          1
(PID.TID 0000.0001) // CMIN =          6.544549748753277E-28
(PID.TID 0000.0001) // CMAX =          7.473924176092567E-02
(PID.TID 0000.0001) // CINT =          2.768120065219469E-03
(PID.TID 0000.0001) // SYMBOLS (CMIN->CMAX): -abcdefghijklmnopqrstuvwxyz+
(PID.TID 0000.0001) //                  0.0: .
(PID.TID 0000.0001) // RANGE I (Lo:Hi:Step):(   1:  20:   1)
(PID.TID 0000.0001) // RANGE J (Lo:Hi:Step):(  20:   1:  -1)
(PID.TID 0000.0001) // RANGE K (Lo:Hi:Step):(   1:   1:   1)
(PID.TID 0000.0001) // =======================================================
(PID.TID 0000.0001) K =   1
(PID.TID 0000.0001)                I=10      I=20
(PID.TID 0000.0001) |--J--|123456789|123456789|
(PID.TID 0000.0001)     20 --------------------
(PID.TID 0000.0001)     19 --------------------
(PID.TID 0000.0001)     18 --------------------
(PID.TID 0000.0001)     17 --------------------
(PID.TID 0000.0001)     16 --------------------
(PID.TID 0000.0001)     15 --------------------
(PID.TID 0000.0001)     14 --------------------
(PID.TID 0000.0001)     13 --------------------
(PID.TID 0000.0001)     12 --------------------
(PID.TID 0000.0001)     11 --------------------
(PID.TID 0000.0001)     10 ---aa---------------
(PID.TID 0000.0001)      9 -abbbba-------------
(PID.TID 0000.0001)      8 aceffeca------------
(PID.TID 0000.0001)      7 cfjmmjfca-----------
(PID.TID 0000.0001)      6 ejpuupjeb-----------
(PID.TID 0000.0001)      5 fmu++umfba----------
(PID.TID 0000.0001)      4 fmu++umfba----------
(PID.TID 0000.0001)      3 ejpuupjeb-----------
(PID.TID 0000.0001)      2 cfjmmjfca-----------
(PID.TID 0000.0001)      1 aceffeca------------
(PID.TID 0000.0001) // =======================================================
(PID.TID 0000.0001) // END OF FIELD                                          =
(PID.TID 0000.0001) // =======================================================
(PID.TID 0000.0001) 
(PID.TID 0000.0001) // =======================================================
(PID.TID 0000.0001) // Field Initial Salinity at iteration          1
(PID.TID 0000.0001) // CMIN =          3.500000000000000E+01
(PID.TID 0000.0001) // CMAX =          3.600000000000000E+01
(PID.TID 0000.0001) // CINT =          3.703703703703703E-02
(PID.TID 0000.0001) // SYMBOLS (CMIN->CMAX): -abcdefghijklmnopqrstuvwxyz+
(PID.TID 0000.0001) //                  0.0: .
(PID.TID 0000.0001) // RANGE I (Lo:Hi:Step):(   1:  20:   1)
(PID.TID 0000.0001) // RANGE J (Lo:Hi:Step):(  20:   1:  -1)
(PID.TID 0000.0001) // RANGE K (Lo:Hi:Step):(   1:   1:   1)
(PID.TID 0000.0001) // =======================================================
(PID.TID 0000.0001) K =   1
(PID.TID 0000.0001)                I=10      I=20
(PID.TID 0000.0001) |--J--|123456789|123456789|
(PID.TID 0000.0001)     20 --------------------
(PID.TID 0000.0001)     19 --------------------
(PID.TID 0000.0001)     18 --------------------
(PID.TID 0000.0001)     17 --------------------
(PID.TID 0000.0001)     16 --------------------
(PID.TID 0000.0001)     15 --------------------
(PID.TID 0000.0001)     14 --------------------
(PID.TID 0000.0001)     13 --------------------
(PID.TID 0000.0001)     12 --------------------
(PID.TID 0000.0001)     11 --------------------
(PID.TID 0000.0001)     10 --------------------
(PID.TID 0000.0001)      9 --------------------
(PID.TID 0000.0001)      8 --++++--------------
(PID.TID 0000.0001)      7 -++++++-------------
(PID.TID 0000.0001)      6 ++++++++------------
(PID.TID 0000.0001)      5 ++++++++------------
(PID.TID 0000.0001)      4 ++++++++------------
(PID.TID 0000.0001)      3 ++++++++------------
(PID.TID 0000.0001)      2 -++++++-------------
(PID.TID 0000.0001)      1 --++++--------------
(PID.TID 0000.0001) // =======================================================
(PID.TID 0000.0001) // END OF FIELD                                          =
(PID.TID 0000.0001) // =======================================================
(PID.TID 0000.0001) 
(PID.TID 0000.0001) // =======================================================
(PID.TID 0000.0001) // Model current state
(PID.TID 0000.0001) // =======================================================
(PID.TID 0000.0001) 
(PID.TID 0000.0001) // =======================================================
(PID.TID 0000.0001) // Begin MONITOR dynamic field statistics
(PID.TID 0000.0001) // =======================================================
(PID.TID 0000.0001) %MON time_tsnumber                =                     0
(PID.TID 0000.0001) %MON time_secondsf                =   0.0000000000000E+00
(PID.TID 0000.0001) %MON time_secondsi                =                     0
(PID.TID 0000.0001) %MON dynstat_eta_max              =   0.0000000000000E+00
(PID.TID 0000.0001) %MON dynstat_eta_min              =   0.0000000000000E+00
(PID.TID 0000.0001) %MON dynstat_eta_mean             =   0.0000000000000E+00
(PID.TID 0000.0001) %MON dynstat_eta_sd               =   0.0000000000000E+00
(PID.TID 0000.0001) %MON dynstat_uvel_max             =   1.0000000000000E+00
(PID.TID 0000.0001) %MON dynstat_uvel_min             =   1.0000000000000E+00
(PID.TID 0000.0001) %MON dynstat_uvel_mean            =   1.0000000000000E+00
(PID.TID 0000.0001) %MON dynstat_uvel_sd              =   0.0000000000000E+00
(PID.TID 0000.0001) %MON dynstat_vvel_max             =   1.0000000000000E+00
(PID.TID 0000.0001) %MON dynstat_vvel_min             =   1.0000000000000E+00
(PID.TID 0000.0001) %MON dynstat_vvel_mean            =   1.0000000000000E+00
(PID.TID 0000.0001) %MON dynstat_vvel_sd              =   0.0000000000000E+00
(PID.TID 0000.0001) %MON dynstat_wvel_max             =   0.0000000000000E+00
(PID.TID 0000.0001) %MON dynstat_wvel_min             =   0.0000000000000E+00
(PID.TID 0000.0001) %MON dynstat_wvel_mean            =   0.0000000000000E+00
(PID.TID 0000.0001) %MON dynstat_wvel_sd              =   0.0000000000000E+00
(PID.TID 0000.0001) %MON dynstat_theta_max            =   7.4739241760926E-02
(PID.TID 0000.0001) %MON dynstat_theta_min            =   6.5445497487533E-28
(PID.TID 0000.0001) %MON dynstat_theta_mean           =   4.7849195886728E-03
(PID.TID 0000.0001) %MON dynstat_theta_sd             =   1.3235850764160E-02
(PID.TID 0000.0001) %MON dynstat_salt_max             =   3.6000000000000E+01
(PID.TID 0000.0001) %MON dynstat_salt_min             =   3.5000000000000E+01
(PID.TID 0000.0001) %MON dynstat_salt_mean            =   3.5130000000000E+01
(PID.TID 0000.0001) %MON dynstat_salt_sd              =   3.3630343441600E-01
(PID.TID 0000.0001) %MON advcfl_uvel_max              =   2.5000000000000E-01
(PID.TID 0000.0001) %MON advcfl_vvel_max              =   2.5000000000000E-01
(PID.TID 0000.0001) %MON advcfl_wvel_max              =   0.0000000000000E+00
(PID.TID 0000.0001) %MON advcfl_W_hf_max              =   0.0000000000000E+00
(PID.TID 0000.0001) %MON ke_max                       =   1.0000000000000E+00
(PID.TID 0000.0001) %MON ke_mean                      =   1.0000000000000E+00
(PID.TID 0000.0001) // =======================================================
(PID.TID 0000.0001) // End MONITOR dynamic field statistics
(PID.TID 0000.0001) // =======================================================
(PID.TID 0000.0001) // =======================================================
(PID.TID 0000.0001) // Begin MONITOR dynamic field statistics
(PID.TID 0000.0001) // =======================================================
(PID.TID 0000.0001) %MON time_tsnumber                =                    16
(PID.TID 0000.0001) %MON time_secondsf                =   4.0000000000000E+04
(PID.TID 0000.0001) %MON time_secondsi                =                 40000
(PID.TID 0000.0001) %MON dynstat_eta_max              =   0.0000000000000E+00
(PID.TID 0000.0001) %MON dynstat_eta_min              =   0.0000000000000E+00
(PID.TID 0000.0001) %MON dynstat_eta_mean             =   0.0000000000000E+00
(PID.TID 0000.0001) %MON dynstat_eta_sd               =   0.0000000000000E+00
(PID.TID 0000.0001) %MON dynstat_uvel_max             =   1.0000000000000E+00
(PID.TID 0000.0001) %MON dynstat_uvel_min             =   1.0000000000000E+00
(PID.TID 0000.0001) %MON dynstat_uvel_mean            =   1.0000000000000E+00
(PID.TID 0000.0001) %MON dynstat_uvel_sd              =   0.0000000000000E+00
(PID.TID 0000.0001) %MON dynstat_vvel_max             =   1.0000000000000E+00
(PID.TID 0000.0001) %MON dynstat_vvel_min             =   1.0000000000000E+00
(PID.TID 0000.0001) %MON dynstat_vvel_mean            =   1.0000000000000E+00
(PID.TID 0000.0001) %MON dynstat_vvel_sd              =   0.0000000000000E+00
(PID.TID 0000.0001) %MON dynstat_wvel_max             =   0.0000000000000E+00
(PID.TID 0000.0001) %MON dynstat_wvel_min             =   0.0000000000000E+00
(PID.TID 0000.0001) %MON dynstat_wvel_mean            =   0.0000000000000E+00
(PID.TID 0000.0001) %MON dynstat_wvel_sd              =   0.0000000000000E+00
(PID.TID 0000.0001) %MON dynstat_theta_max            =   6.7092556569246E-02
(PID.TID 0000.0001) %MON dynstat_theta_min            =   8.2262357015909E-22
(PID.TID 0000.0001) %MON dynstat_theta_mean           =   4.7849195886728E-03
(PID.TID 0000.0001) %MON dynstat_theta_sd             =   1.2757721505013E-02
(PID.TID 0000.0001) %MON dynstat_salt_max             =   3.6000000000000E+01
(PID.TID 0000.0001) %MON dynstat_salt_min             =   3.5000000000000E+01
(PID.TID 0000.0001) %MON dynstat_salt_mean            =   3.5130000000000E+01
(PID.TID 0000.0001) %MON dynstat_salt_sd              =   2.9168396841665E-01
(PID.TID 0000.0001) %MON advcfl_uvel_max              =   2.5000000000000E-01
(PID.TID 0000.0001) %MON advcfl_vvel_max              =   2.5000000000000E-01
(PID.TID 0000.0001) %MON advcfl_wvel_max              =   0.0000000000000E+00
(PID.TID 0000.0001) %MON advcfl_W_hf_max              =   0.0000000000000E+00
(PID.TID 0000.0001) %MON ke_max                       =   1.0000000000000E+00
(PID.TID 0000.0001) %MON ke_mean                      =   1.0000000000000E+00
(PID.TID 0000.0001) // =======================================================
(PID.TID 0000.0001) // End MONITOR dynamic field statistics
(PID.TID 0000.0001) // =======================================================
(PID.TID 0000.0001) // =======================================================
(PID.TID 0000.0001) // Field Current uVel   at iteration         16
(PID.TID 0000.0001) // CMIN =          1.000000000000000E+00
(PID.TID 0000.0001) // CMAX =          1.000000000000000E+00
(PID.TID 0000.0001) // CINT =          0.000000000000000E+00
(PID.TID 0000.0001) // SYMBOLS (CMIN->CMAX): -abcdefghijklmnopqrstuvwxyz+
(PID.TID 0000.0001) //                  0.0: .
(PID.TID 0000.0001) // RANGE I (Lo:Hi:Step):(   1:  20:   1)
(PID.TID 0000.0001) // RANGE J (Lo:Hi:Step):(  20:   1:  -1)
(PID.TID 0000.0001) // RANGE K (Lo:Hi:Step):(   1:   1:   1)
(PID.TID 0000.0001) // =======================================================
(PID.TID 0000.0001) K =   1
(PID.TID 0000.0001)                I=10      I=20
(PID.TID 0000.0001) |--J--|123456789|123456789|
(PID.TID 0000.0001)     20 --------------------
(PID.TID 0000.0001)     19 --------------------
(PID.TID 0000.0001)     18 --------------------
(PID.TID 0000.0001)     17 --------------------
(PID.TID 0000.0001)     16 --------------------
(PID.TID 0000.0001)     15 --------------------
(PID.TID 0000.0001)     14 --------------------
(PID.TID 0000.0001)     13 --------------------
(PID.TID 0000.0001)     12 --------------------
(PID.TID 0000.0001)     11 --------------------
(PID.TID 0000.0001)     10 --------------------
(PID.TID 0000.0001)      9 --------------------
(PID.TID 0000.0001)      8 --------------------
(PID.TID 0000.0001)      7 --------------------
(PID.TID 0000.0001)      6 --------------------
(PID.TID 0000.0001)      5 --------------------
(PID.TID 0000.0001)      4 --------------------
(PID.TID 0000.0001)      3 --------------------
(PID.TID 0000.0001)      2 --------------------
(PID.TID 0000.0001)      1 --------------------
(PID.TID 0000.0001) // =======================================================
(PID.TID 0000.0001) // END OF FIELD                                          =
(PID.TID 0000.0001) // =======================================================
(PID.TID 0000.0001) 
(PID.TID 0000.0001) // =======================================================
(PID.TID 0000.0001) // Field Current vVel   at iteration         16
(PID.TID 0000.0001) // CMIN =          1.000000000000000E+00
(PID.TID 0000.0001) // CMAX =          1.000000000000000E+00
(PID.TID 0000.0001) // CINT =          0.000000000000000E+00
(PID.TID 0000.0001) // SYMBOLS (CMIN->CMAX): -abcdefghijklmnopqrstuvwxyz+
(PID.TID 0000.0001) //                  0.0: .
(PID.TID 0000.0001) // RANGE I (Lo:Hi:Step):(   1:  20:   1)
(PID.TID 0000.0001) // RANGE J (Lo:Hi:Step):(  20:   1:  -1)
(PID.TID 0000.0001) // RANGE K (Lo:Hi:Step):(   1:   1:   1)
(PID.TID 0000.0001) // =======================================================
(PID.TID 0000.0001) K =   1
(PID.TID 0000.0001)                I=10      I=20
(PID.TID 0000.0001) |--J--|123456789|123456789|
(PID.TID 0000.0001)     20 --------------------
(PID.TID 0000.0001)     19 --------------------
(PID.TID 0000.0001)     18 --------------------
(PID.TID 0000.0001)     17 --------------------
(PID.TID 0000.0001)     16 --------------------
(PID.TID 0000.0001)     15 --------------------
(PID.TID 0000.0001)     14 --------------------
(PID.TID 0000.0001)     13 --------------------
(PID.TID 0000.0001)     12 --------------------
(PID.TID 0000.0001)     11 --------------------
(PID.TID 0000.0001)     10 --------------------
(PID.TID 0000.0001)      9 --------------------
(PID.TID 0000.0001)      8 --------------------
(PID.TID 0000.0001)      7 --------------------
(PID.TID 0000.0001)      6 --------------------
(PID.TID 0000.0001)      5 --------------------
(PID.TID 0000.0001)      4 --------------------
(PID.TID 0000.0001)      3 --------------------
(PID.TID 0000.0001)      2 --------------------
(PID.TID 0000.0001)      1 --------------------
(PID.TID 0000.0001) // =======================================================
(PID.TID 0000.0001) // END OF FIELD                                          =
(PID.TID 0000.0001) // =======================================================
(PID.TID 0000.0001) 
(PID.TID 0000.0001) // =======================================================
(PID.TID 0000.0001) // Field Current theta  at iteration         16
(PID.TID 0000.0001) // CMIN =          8.226235701590921E-22
(PID.TID 0000.0001) // CMAX =          6.709255656924647E-02
(PID.TID 0000.0001) // CINT =          2.484909502564684E-03
(PID.TID 0000.0001) // SYMBOLS (CMIN->CMAX): -abcdefghijklmnopqrstuvwxyz+
(PID.TID 0000.0001) //                  0.0: .
(PID.TID 0000.0001) // RANGE I (Lo:Hi:Step):(   1:  20:   1)
(PID.TID 0000.0001) // RANGE J (Lo:Hi:Step):(  20:   1:  -1)
(PID.TID 0000.0001) // RANGE K (Lo:Hi:Step):(   1:   1:   1)
(PID.TID 0000.0001) // =======================================================
(PID.TID 0000.0001) K =   1
(PID.TID 0000.0001)                I=10      I=20
(PID.TID 0000.0001) |--J--|123456789|123456789|
(PID.TID 0000.0001)     20 --------------------
(PID.TID 0000.0001)     19 --------------------
(PID.TID 0000.0001)     18 --------------------
(PID.TID 0000.0001)     17 --------------------
(PID.TID 0000.0001)     16 --------------------
(PID.TID 0000.0001)     15 --------------------
(PID.TID 0000.0001)     14 -------aa-----------
(PID.TID 0000.0001)     13 ----aabccbaa--------
(PID.TID 0000.0001)     12 ----bdfggfdba-------
(PID.TID 0000.0001)     11 ----cglnnlhda-------
(PID.TID 0000.0001)     10 ---aelsvvrlfb-------
(PID.TID 0000.0001)      9 ---afnw++vngca------
(PID.TID 0000.0001)      8 ---afnw++vngca------
(PID.TID 0000.0001)      7 ---aelswwslfb-------
(PID.TID 0000.0001)      6 ----cglnnlgda-------
(PID.TID 0000.0001)      5 ----aceffecba-------
(PID.TID 0000.0001)      4 ------aaaa----------
(PID.TID 0000.0001)      3 --------------------
(PID.TID 0000.0001)      2 --------------------
(PID.TID 0000.0001)      1 --------------------
(PID.TID 0000.0001) // =======================================================
(PID.TID 0000.0001) // END OF FIELD                                          =
(PID.TID 0000.0001) // =======================================================
(PID.TID 0000.0001) 
(PID.TID 0000.0001) // =======================================================
(PID.TID 0000.0001) // Field Current etaN   at iteration         16
(PID.TID 0000.0001) // CMIN =          1.000000000000000E+32
(PID.TID 0000.0001) // CMAX =         -1.000000000000000E+32
(PID.TID 0000.0001) // CINT =          0.000000000000000E+00
(PID.TID 0000.0001) // SYMBOLS (CMIN->CMAX): -abcdefghijklmnopqrstuvwxyz+
(PID.TID 0000.0001) //                  0.0: .
(PID.TID 0000.0001) // RANGE I (Lo:Hi:Step):(  -2:  23:   1)
(PID.TID 0000.0001) // RANGE J (Lo:Hi:Step):(  23:  -2:  -1)
(PID.TID 0000.0001) // RANGE K (Lo:Hi:Step):(   1:   1:   1)
(PID.TID 0000.0001) // =======================================================
(PID.TID 0000.0001) K =   1
(PID.TID 0000.0001)                I=7       I=17
(PID.TID 0000.0001) |--J--|**0123456|890123456|890123
(PID.TID 0000.0001)     23 ..........................
(PID.TID 0000.0001)     22 ..........................
(PID.TID 0000.0001)     21 ..........................
(PID.TID 0000.0001)     20 ..........................
(PID.TID 0000.0001)     19 ..........................
(PID.TID 0000.0001)     18 ..........................
(PID.TID 0000.0001)     17 ..........................
(PID.TID 0000.0001)     16 ..........................
(PID.TID 0000.0001)     15 ..........................
(PID.TID 0000.0001)     14 ..........................
(PID.TID 0000.0001)     13 ..........................
(PID.TID 0000.0001)     12 ..........................
(PID.TID 0000.0001)     11 ..........................
(PID.TID 0000.0001)     10 ..........................
(PID.TID 0000.0001)      9 ..........................
(PID.TID 0000.0001)      8 ..........................
(PID.TID 0000.0001)      7 ..........................
(PID.TID 0000.0001)      6 ..........................
(PID.TID 0000.0001)      5 ..........................
(PID.TID 0000.0001)      4 ..........................
(PID.TID 0000.0001)      3 ..........................
(PID.TID 0000.0001)      2 ..........................
(PID.TID 0000.0001)      1 ..........................
(PID.TID 0000.0001)      0 ..........................
(PID.TID 0000.0001)     -1 ..........................
(PID.TID 0000.0001)     -2 ..........................
(PID.TID 0000.0001) // =======================================================
(PID.TID 0000.0001) // END OF FIELD                                          =
(PID.TID 0000.0001) // =======================================================
(PID.TID 0000.0001) 
(PID.TID 0000.0001) // =======================================================
(PID.TID 0000.0001) // Begin MONITOR dynamic field statistics
(PID.TID 0000.0001) // =======================================================
(PID.TID 0000.0001) %MON time_tsnumber                =                    32
(PID.TID 0000.0001) %MON time_secondsf                =   8.0000000000000E+04
(PID.TID 0000.0001) %MON time_secondsi                =                 80000
(PID.TID 0000.0001) %MON dynstat_eta_max              =   0.0000000000000E+00
(PID.TID 0000.0001) %MON dynstat_eta_min              =   0.0000000000000E+00
(PID.TID 0000.0001) %MON dynstat_eta_mean             =   0.0000000000000E+00
(PID.TID 0000.0001) %MON dynstat_eta_sd               =   0.0000000000000E+00
(PID.TID 0000.0001) %MON dynstat_uvel_max             =   1.0000000000000E+00
(PID.TID 0000.0001) %MON dynstat_uvel_min             =   1.0000000000000E+00
(PID.TID 0000.0001) %MON dynstat_uvel_mean            =   1.0000000000000E+00
(PID.TID 0000.0001) %MON dynstat_uvel_sd              =   0.0000000000000E+00
(PID.TID 0000.0001) %MON dynstat_vvel_max             =   1.0000000000000E+00
(PID.TID 0000.0001) %MON dynstat_vvel_min             =   1.0000000000000E+00
(PID.TID 0000.0001) %MON dynstat_vvel_mean            =   1.0000000000000E+00
(PID.TID 0000.0001) %MON dynstat_vvel_sd              =   0.0000000000000E+00
(PID.TID 0000.0001) %MON dynstat_wvel_max             =   0.0000000000000E+00
(PID.TID 0000.0001) %MON dynstat_wvel_min             =   0.0000000000000E+00
(PID.TID 0000.0001) %MON dynstat_wvel_mean            =   0.0000000000000E+00
(PID.TID 0000.0001) %MON dynstat_wvel_sd              =   0.0000000000000E+00
(PID.TID 0000.0001) %MON dynstat_theta_max            =   6.2793500298535E-02
(PID.TID 0000.0001) %MON dynstat_theta_min            =   1.2232278679570E-21
(PID.TID 0000.0001) %MON dynstat_theta_mean           =   4.7849195886728E-03
(PID.TID 0000.0001) %MON dynstat_theta_sd             =   1.2387177089279E-02
(PID.TID 0000.0001) %MON dynstat_salt_max             =   3.6000000000000E+01
(PID.TID 0000.0001) %MON dynstat_salt_min             =   3.5000000000000E+01
(PID.TID 0000.0001) %MON dynstat_salt_mean            =   3.5130000000000E+01
(PID.TID 0000.0001) %MON dynstat_salt_sd              =   2.8231155861195E-01
(PID.TID 0000.0001) %MON advcfl_uvel_max              =   2.5000000000000E-01
(PID.TID 0000.0001) %MON advcfl_vvel_max              =   2.5000000000000E-01
(PID.TID 0000.0001) %MON advcfl_wvel_max              =   0.0000000000000E+00
(PID.TID 0000.0001) %MON advcfl_W_hf_max              =   0.0000000000000E+00
(PID.TID 0000.0001) %MON ke_max                       =   1.0000000000000E+00
(PID.TID 0000.0001) %MON ke_mean                      =   1.0000000000000E+00
(PID.TID 0000.0001) // =======================================================
(PID.TID 0000.0001) // End MONITOR dynamic field statistics
(PID.TID 0000.0001) // =======================================================
(PID.TID 0000.0001) // =======================================================
(PID.TID 0000.0001) // Field Current uVel   at iteration         32
(PID.TID 0000.0001) // CMIN =          1.000000000000000E+00
(PID.TID 0000.0001) // CMAX =          1.000000000000000E+00
(PID.TID 0000.0001) // CINT =          0.000000000000000E+00
(PID.TID 0000.0001) // SYMBOLS (CMIN->CMAX): -abcdefghijklmnopqrstuvwxyz+
(PID.TID 0000.0001) //                  0.0: .
(PID.TID 0000.0001) // RANGE I (Lo:Hi:Step):(   1:  20:   1)
(PID.TID 0000.0001) // RANGE J (Lo:Hi:Step):(  20:   1:  -1)
(PID.TID 0000.0001) // RANGE K (Lo:Hi:Step):(   1:   1:   1)
(PID.TID 0000.0001) // =======================================================
(PID.TID 0000.0001) K =   1
(PID.TID 0000.0001)                I=10      I=20
(PID.TID 0000.0001) |--J--|123456789|123456789|
(PID.TID 0000.0001)     20 --------------------
(PID.TID 0000.0001)     19 --------------------
(PID.TID 0000.0001)     18 --------------------
(PID.TID 0000.0001)     17 --------------------
(PID.TID 0000.0001)     16 --------------------
(PID.TID 0000.0001)     15 --------------------
(PID.TID 0000.0001)     14 --------------------
(PID.TID 0000.0001)     13 --------------------
(PID.TID 0000.0001)     12 --------------------
(PID.TID 0000.0001)     11 --------------------
(PID.TID 0000.0001)     10 --------------------
(PID.TID 0000.0001)      9 --------------------
(PID.TID 0000.0001)      8 --------------------
(PID.TID 0000.0001)      7 --------------------
(PID.TID 0000.0001)      6 --------------------
(PID.TID 0000.0001)      5 --------------------
(PID.TID 0000.0001)      4 --------------------
(PID.TID 0000.0001)      3 --------------------
(PID.TID 0000.0001)      2 --------------------
(PID.TID 0000.0001)      1 --------------------
(PID.TID 0000.0001) // =======================================================
(PID.TID 0000.0001) // END OF FIELD                                          =
(PID.TID 0000.0001) // =======================================================
(PID.TID 0000.0001) 
(PID.TID 0000.0001) // =======================================================
(PID.TID 0000.0001) // Field Current vVel   at iteration         32
(PID.TID 0000.0001) // CMIN =          1.000000000000000E+00
(PID.TID 0000.0001) // CMAX =          1.000000000000000E+00
(PID.TID 0000.0001) // CINT =          0.000000000000000E+00
(PID.TID 0000.0001) // SYMBOLS (CMIN->CMAX): -abcdefghijklmnopqrstuvwxyz+
(PID.TID 0000.0001) //                  0.0: .
(PID.TID 0000.0001) // RANGE I (Lo:Hi:Step):(   1:  20:   1)
(PID.TID 0000.0001) // RANGE J (Lo:Hi:Step):(  20:   1:  -1)
(PID.TID 0000.0001) // RANGE K (Lo:Hi:Step):(   1:   1:   1)
(PID.TID 0000.0001) // =======================================================
(PID.TID 0000.0001) K =   1
(PID.TID 0000.0001)                I=10      I=20
(PID.TID 0000.0001) |--J--|123456789|123456789|
(PID.TID 0000.0001)     20 --------------------
(PID.TID 0000.0001)     19 --------------------
(PID.TID 0000.0001)     18 --------------------
(PID.TID 0000.0001)     17 --------------------
(PID.TID 0000.0001)     16 --------------------
(PID.TID 0000.0001)     15 --------------------
(PID.TID 0000.0001)     14 --------------------
(PID.TID 0000.0001)     13 --------------------
(PID.TID 0000.0001)     12 --------------------
(PID.TID 0000.0001)     11 --------------------
(PID.TID 0000.0001)     10 --------------------
(PID.TID 0000.0001)      9 --------------------
(PID.TID 0000.0001)      8 --------------------
(PID.TID 0000.0001)      7 --------------------
(PID.TID 0000.0001)      6 --------------------
(PID.TID 0000.0001)      5 --------------------
(PID.TID 0000.0001)      4 --------------------
(PID.TID 0000.0001)      3 --------------------
(PID.TID 0000.0001)      2 --------------------
(PID.TID 0000.0001)      1 --------------------
(PID.TID 0000.0001) // =======================================================
(PID.TID 0000.0001) // END OF FIELD                                          =
(PID.TID 0000.0001) // =======================================================
(PID.TID 0000.0001) 
(PID.TID 0000.0001) // =======================================================
(PID.TID 0000.0001) // Field Current theta  at iteration         32
(PID.TID 0000.0001) // CMIN =          1.223227867957008E-21
(PID.TID 0000.0001) // CMAX =          6.279350029853484E-02
(PID.TID 0000.0001) // CINT =          2.325685196242031E-03
(PID.TID 0000.0001) // SYMBOLS (CMIN->CMAX): -abcdefghijklmnopqrstuvwxyz+
(PID.TID 0000.0001) //                  0.0: .
(PID.TID 0000.0001) // RANGE I (Lo:Hi:Step):(   1:  20:   1)
(PID.TID 0000.0001) // RANGE J (Lo:Hi:Step):(  20:   1:  -1)
(PID.TID 0000.0001) // RANGE K (Lo:Hi:Step):(   1:   1:   1)
(PID.TID 0000.0001) // =======================================================
(PID.TID 0000.0001) K =   1
(PID.TID 0000.0001)                I=10      I=20
(PID.TID 0000.0001) |--J--|123456789|123456789|
(PID.TID 0000.0001)     20 --------------------
(PID.TID 0000.0001)     19 --------------------
(PID.TID 0000.0001)     18 --------------------
(PID.TID 0000.0001)     17 --------abbccbba----
(PID.TID 0000.0001)     16 --------bdghhgdba---
(PID.TID 0000.0001)     15 -------adhmoomidb---
(PID.TID 0000.0001)     14 -------afmswwsmgb---
(PID.TID 0000.0001)     13 -------agow++wohc---
(PID.TID 0000.0001)     12 -------agow++wohc---
(PID.TID 0000.0001)     11 -------afmtwwsmgb---
(PID.TID 0000.0001)     10 -------adhmoomhdb---
(PID.TID 0000.0001)      9 --------bdfggfdba---
(PID.TID 0000.0001)      8 ---------aaaaaa-----
(PID.TID 0000.0001)      7 --------------------
(PID.TID 0000.0001)      6 --------------------
(PID.TID 0000.0001)      5 --------------------
(PID.TID 0000.0001)      4 --------------------
(PID.TID 0000.0001)      3 --------------------
(PID.TID 0000.0001)      2 --------------------
(PID.TID 0000.0001)      1 --------------------
(PID.TID 0000.0001) // =======================================================
(PID.TID 0000.0001) // END OF FIELD                                          =
(PID.TID 0000.0001) // =======================================================
(PID.TID 0000.0001) 
(PID.TID 0000.0001) // =======================================================
(PID.TID 0000.0001) // Field Current etaN   at iteration         32
(PID.TID 0000.0001) // CMIN =          1.000000000000000E+32
(PID.TID 0000.0001) // CMAX =         -1.000000000000000E+32
(PID.TID 0000.0001) // CINT =          0.000000000000000E+00
(PID.TID 0000.0001) // SYMBOLS (CMIN->CMAX): -abcdefghijklmnopqrstuvwxyz+
(PID.TID 0000.0001) //                  0.0: .
(PID.TID 0000.0001) // RANGE I (Lo:Hi:Step):(  -2:  23:   1)
(PID.TID 0000.0001) // RANGE J (Lo:Hi:Step):(  23:  -2:  -1)
(PID.TID 0000.0001) // RANGE K (Lo:Hi:Step):(   1:   1:   1)
(PID.TID 0000.0001) // =======================================================
(PID.TID 0000.0001) K =   1
(PID.TID 0000.0001)                I=7       I=17
(PID.TID 0000.0001) |--J--|**0123456|890123456|890123
(PID.TID 0000.0001)     23 ..........................
(PID.TID 0000.0001)     22 ..........................
(PID.TID 0000.0001)     21 ..........................
(PID.TID 0000.0001)     20 ..........................
(PID.TID 0000.0001)     19 ..........................
(PID.TID 0000.0001)     18 ..........................
(PID.TID 0000.0001)     17 ..........................
(PID.TID 0000.0001)     16 ..........................
(PID.TID 0000.0001)     15 ..........................
(PID.TID 0000.0001)     14 ..........................
(PID.TID 0000.0001)     13 ..........................
(PID.TID 0000.0001)     12 ..........................
(PID.TID 0000.0001)     11 ..........................
(PID.TID 0000.0001)     10 ..........................
(PID.TID 0000.0001)      9 ..........................
(PID.TID 0000.0001)      8 ..........................
(PID.TID 0000.0001)      7 ..........................
(PID.TID 0000.0001)      6 ..........................
(PID.TID 0000.0001)      5 ..........................
(PID.TID 0000.0001)      4 ..........................
(PID.TID 0000.0001)      3 ..........................
(PID.TID 0000.0001)      2 ..........................
(PID.TID 0000.0001)      1 ..........................
(PID.TID 0000.0001)      0 ..........................
(PID.TID 0000.0001)     -1 ..........................
(PID.TID 0000.0001)     -2 ..........................
(PID.TID 0000.0001) // =======================================================
(PID.TID 0000.0001) // END OF FIELD                                          =
(PID.TID 0000.0001) // =======================================================
(PID.TID 0000.0001) 
(PID.TID 0000.0001) // =======================================================
(PID.TID 0000.0001) // Begin MONITOR dynamic field statistics
(PID.TID 0000.0001) // =======================================================
(PID.TID 0000.0001) %MON time_tsnumber                =                    48
(PID.TID 0000.0001) %MON time_secondsf                =   1.2000000000000E+05
(PID.TID 0000.0001) %MON time_secondsi                =                120000
(PID.TID 0000.0001) %MON dynstat_eta_max              =   0.0000000000000E+00
(PID.TID 0000.0001) %MON dynstat_eta_min              =   0.0000000000000E+00
(PID.TID 0000.0001) %MON dynstat_eta_mean             =   0.0000000000000E+00
(PID.TID 0000.0001) %MON dynstat_eta_sd               =   0.0000000000000E+00
(PID.TID 0000.0001) %MON dynstat_uvel_max             =   1.0000000000000E+00
(PID.TID 0000.0001) %MON dynstat_uvel_min             =   1.0000000000000E+00
(PID.TID 0000.0001) %MON dynstat_uvel_mean            =   1.0000000000000E+00
(PID.TID 0000.0001) %MON dynstat_uvel_sd              =   0.0000000000000E+00
(PID.TID 0000.0001) %MON dynstat_vvel_max             =   1.0000000000000E+00
(PID.TID 0000.0001) %MON dynstat_vvel_min             =   1.0000000000000E+00
(PID.TID 0000.0001) %MON dynstat_vvel_mean            =   1.0000000000000E+00
(PID.TID 0000.0001) %MON dynstat_vvel_sd              =   0.0000000000000E+00
(PID.TID 0000.0001) %MON dynstat_wvel_max             =   0.0000000000000E+00
(PID.TID 0000.0001) %MON dynstat_wvel_min             =   0.0000000000000E+00
(PID.TID 0000.0001) %MON dynstat_wvel_mean            =   0.0000000000000E+00
(PID.TID 0000.0001) %MON dynstat_wvel_sd              =   0.0000000000000E+00
(PID.TID 0000.0001) %MON dynstat_theta_max            =   5.9440719299967E-02
(PID.TID 0000.0001) %MON dynstat_theta_min            =   1.3942388621285E-21
(PID.TID 0000.0001) %MON dynstat_theta_mean           =   4.7849195886728E-03
(PID.TID 0000.0001) %MON dynstat_theta_sd             =   1.2062696507146E-02
(PID.TID 0000.0001) %MON dynstat_salt_max             =   3.6000000000000E+01
(PID.TID 0000.0001) %MON dynstat_salt_min             =   3.5000000000000E+01
(PID.TID 0000.0001) %MON dynstat_salt_mean            =   3.5130000000000E+01
(PID.TID 0000.0001) %MON dynstat_salt_sd              =   2.7578158902350E-01
(PID.TID 0000.0001) %MON advcfl_uvel_max              =   2.5000000000000E-01
(PID.TID 0000.0001) %MON advcfl_vvel_max              =   2.5000000000000E-01
(PID.TID 0000.0001) %MON advcfl_wvel_max              =   0.0000000000000E+00
(PID.TID 0000.0001) %MON advcfl_W_hf_max              =   0.0000000000000E+00
(PID.TID 0000.0001) %MON ke_max                       =   1.0000000000000E+00
(PID.TID 0000.0001) %MON ke_mean                      =   1.0000000000000E+00
(PID.TID 0000.0001) // =======================================================
(PID.TID 0000.0001) // End MONITOR dynamic field statistics
(PID.TID 0000.0001) // =======================================================
(PID.TID 0000.0001) // =======================================================
(PID.TID 0000.0001) // Field Current uVel   at iteration         48
(PID.TID 0000.0001) // CMIN =          1.000000000000000E+00
(PID.TID 0000.0001) // CMAX =          1.000000000000000E+00
(PID.TID 0000.0001) // CINT =          0.000000000000000E+00
(PID.TID 0000.0001) // SYMBOLS (CMIN->CMAX): -abcdefghijklmnopqrstuvwxyz+
(PID.TID 0000.0001) //                  0.0: .
(PID.TID 0000.0001) // RANGE I (Lo:Hi:Step):(   1:  20:   1)
(PID.TID 0000.0001) // RANGE J (Lo:Hi:Step):(  20:   1:  -1)
(PID.TID 0000.0001) // RANGE K (Lo:Hi:Step):(   1:   1:   1)
(PID.TID 0000.0001) // =======================================================
(PID.TID 0000.0001) K =   1
(PID.TID 0000.0001)                I=10      I=20
(PID.TID 0000.0001) |--J--|123456789|123456789|
(PID.TID 0000.0001)     20 --------------------
(PID.TID 0000.0001)     19 --------------------
(PID.TID 0000.0001)     18 --------------------
(PID.TID 0000.0001)     17 --------------------
(PID.TID 0000.0001)     16 --------------------
(PID.TID 0000.0001)     15 --------------------
(PID.TID 0000.0001)     14 --------------------
(PID.TID 0000.0001)     13 --------------------
(PID.TID 0000.0001)     12 --------------------
(PID.TID 0000.0001)     11 --------------------
(PID.TID 0000.0001)     10 --------------------
(PID.TID 0000.0001)      9 --------------------
(PID.TID 0000.0001)      8 --------------------
(PID.TID 0000.0001)      7 --------------------
(PID.TID 0000.0001)      6 --------------------
(PID.TID 0000.0001)      5 --------------------
(PID.TID 0000.0001)      4 --------------------
(PID.TID 0000.0001)      3 --------------------
(PID.TID 0000.0001)      2 --------------------
(PID.TID 0000.0001)      1 --------------------
(PID.TID 0000.0001) // =======================================================
(PID.TID 0000.0001) // END OF FIELD                                          =
(PID.TID 0000.0001) // =======================================================
(PID.TID 0000.0001) 
(PID.TID 0000.0001) // =======================================================
(PID.TID 0000.0001) // Field Current vVel   at iteration         48
(PID.TID 0000.0001) // CMIN =          1.000000000000000E+00
(PID.TID 0000.0001) // CMAX =          1.000000000000000E+00
(PID.TID 0000.0001) // CINT =          0.000000000000000E+00
(PID.TID 0000.0001) // SYMBOLS (CMIN->CMAX): -abcdefghijklmnopqrstuvwxyz+
(PID.TID 0000.0001) //                  0.0: .
(PID.TID 0000.0001) // RANGE I (Lo:Hi:Step):(   1:  20:   1)
(PID.TID 0000.0001) // RANGE J (Lo:Hi:Step):(  20:   1:  -1)
(PID.TID 0000.0001) // RANGE K (Lo:Hi:Step):(   1:   1:   1)
(PID.TID 0000.0001) // =======================================================
(PID.TID 0000.0001) K =   1
(PID.TID 0000.0001)                I=10      I=20
(PID.TID 0000.0001) |--J--|123456789|123456789|
(PID.TID 0000.0001)     20 --------------------
(PID.TID 0000.0001)     19 --------------------
(PID.TID 0000.0001)     18 --------------------
(PID.TID 0000.0001)     17 --------------------
(PID.TID 0000.0001)     16 --------------------
(PID.TID 0000.0001)     15 --------------------
(PID.TID 0000.0001)     14 --------------------
(PID.TID 0000.0001)     13 --------------------
(PID.TID 0000.0001)     12 --------------------
(PID.TID 0000.0001)     11 --------------------
(PID.TID 0000.0001)     10 --------------------
(PID.TID 0000.0001)      9 --------------------
(PID.TID 0000.0001)      8 --------------------
(PID.TID 0000.0001)      7 --------------------
(PID.TID 0000.0001)      6 --------------------
(PID.TID 0000.0001)      5 --------------------
(PID.TID 0000.0001)      4 --------------------
(PID.TID 0000.0001)      3 --------------------
(PID.TID 0000.0001)      2 --------------------
(PID.TID 0000.0001)      1 --------------------
(PID.TID 0000.0001) // =======================================================
(PID.TID 0000.0001) // END OF FIELD                                          =
(PID.TID 0000.0001) // =======================================================
(PID.TID 0000.0001) 
(PID.TID 0000.0001) // =======================================================
(PID.TID 0000.0001) // Field Current theta  at iteration         48
(PID.TID 0000.0001) // CMIN =          1.394238862128486E-21
(PID.TID 0000.0001) // CMAX =          5.944071929996698E-02
(PID.TID 0000.0001) // CINT =          2.201508122220999E-03
(PID.TID 0000.0001) // SYMBOLS (CMIN->CMAX): -abcdefghijklmnopqrstuvwxyz+
(PID.TID 0000.0001) //                  0.0: .
(PID.TID 0000.0001) // RANGE I (Lo:Hi:Step):(   1:  20:   1)
(PID.TID 0000.0001) // RANGE J (Lo:Hi:Step):(  20:   1:  -1)
(PID.TID 0000.0001) // RANGE K (Lo:Hi:Step):(   1:   1:   1)
(PID.TID 0000.0001) // =======================================================
(PID.TID 0000.0001) K =   1
(PID.TID 0000.0001)                I=10      I=20
(PID.TID 0000.0001) |--J--|123456789|123456789|
(PID.TID 0000.0001)     20 a-----------begiigec
(PID.TID 0000.0001)     19 b----------adinppnie
(PID.TID 0000.0001)     18 c----------afmtwwtng
(PID.TID 0000.0001)     17 c----------bgpw++wpi
(PID.TID 0000.0001)     16 c----------bgpw++wpi
(PID.TID 0000.0001)     15 c----------afntwwtng
(PID.TID 0000.0001)     14 b----------adinppmie
(PID.TID 0000.0001)     13 a-----------bdfggfdb
(PID.TID 0000.0001)     12 -------------aabbaa-
(PID.TID 0000.0001)     11 --------------------
(PID.TID 0000.0001)     10 --------------------
(PID.TID 0000.0001)      9 --------------------
(PID.TID 0000.0001)      8 --------------------
(PID.TID 0000.0001)      7 --------------------
(PID.TID 0000.0001)      6 --------------------
(PID.TID 0000.0001)      5 --------------------
(PID.TID 0000.0001)      4 --------------------
(PID.TID 0000.0001)      3 --------------------
(PID.TID 0000.0001)      2 --------------------
(PID.TID 0000.0001)      1 ------------abccccba
(PID.TID 0000.0001) // =======================================================
(PID.TID 0000.0001) // END OF FIELD                                          =
(PID.TID 0000.0001) // =======================================================
(PID.TID 0000.0001) 
(PID.TID 0000.0001) // =======================================================
(PID.TID 0000.0001) // Field Current etaN   at iteration         48
(PID.TID 0000.0001) // CMIN =          1.000000000000000E+32
(PID.TID 0000.0001) // CMAX =         -1.000000000000000E+32
(PID.TID 0000.0001) // CINT =          0.000000000000000E+00
(PID.TID 0000.0001) // SYMBOLS (CMIN->CMAX): -abcdefghijklmnopqrstuvwxyz+
(PID.TID 0000.0001) //                  0.0: .
(PID.TID 0000.0001) // RANGE I (Lo:Hi:Step):(  -2:  23:   1)
(PID.TID 0000.0001) // RANGE J (Lo:Hi:Step):(  23:  -2:  -1)
(PID.TID 0000.0001) // RANGE K (Lo:Hi:Step):(   1:   1:   1)
(PID.TID 0000.0001) // =======================================================
(PID.TID 0000.0001) K =   1
(PID.TID 0000.0001)                I=7       I=17
(PID.TID 0000.0001) |--J--|**0123456|890123456|890123
(PID.TID 0000.0001)     23 ..........................
(PID.TID 0000.0001)     22 ..........................
(PID.TID 0000.0001)     21 ..........................
(PID.TID 0000.0001)     20 ..........................
(PID.TID 0000.0001)     19 ..........................
(PID.TID 0000.0001)     18 ..........................
(PID.TID 0000.0001)     17 ..........................
(PID.TID 0000.0001)     16 ..........................
(PID.TID 0000.0001)     15 ..........................
(PID.TID 0000.0001)     14 ..........................
(PID.TID 0000.0001)     13 ..........................
(PID.TID 0000.0001)     12 ..........................
(PID.TID 0000.0001)     11 ..........................
(PID.TID 0000.0001)     10 ..........................
(PID.TID 0000.0001)      9 ..........................
(PID.TID 0000.0001)      8 ..........................
(PID.TID 0000.0001)      7 ..........................
(PID.TID 0000.0001)      6 ..........................
(PID.TID 0000.0001)      5 ..........................
(PID.TID 0000.0001)      4 ..........................
(PID.TID 0000.0001)      3 ..........................
(PID.TID 0000.0001)      2 ..........................
(PID.TID 0000.0001)      1 ..........................
(PID.TID 0000.0001)      0 ..........................
(PID.TID 0000.0001)     -1 ..........................
(PID.TID 0000.0001)     -2 ..........................
(PID.TID 0000.0001) // =======================================================
(PID.TID 0000.0001) // END OF FIELD                                          =
(PID.TID 0000.0001) // =======================================================
(PID.TID 0000.0001) 
(PID.TID 0000.0001) // =======================================================
(PID.TID 0000.0001) // Begin MONITOR dynamic field statistics
(PID.TID 0000.0001) // =======================================================
(PID.TID 0000.0001) %MON time_tsnumber                =                    64
(PID.TID 0000.0001) %MON time_secondsf                =   1.6000000000000E+05
(PID.TID 0000.0001) %MON time_secondsi                =                160000
(PID.TID 0000.0001) %MON dynstat_eta_max              =   0.0000000000000E+00
(PID.TID 0000.0001) %MON dynstat_eta_min              =   0.0000000000000E+00
(PID.TID 0000.0001) %MON dynstat_eta_mean             =   0.0000000000000E+00
(PID.TID 0000.0001) %MON dynstat_eta_sd               =   0.0000000000000E+00
(PID.TID 0000.0001) %MON dynstat_uvel_max             =   1.0000000000000E+00
(PID.TID 0000.0001) %MON dynstat_uvel_min             =   1.0000000000000E+00
(PID.TID 0000.0001) %MON dynstat_uvel_mean            =   1.0000000000000E+00
(PID.TID 0000.0001) %MON dynstat_uvel_sd              =   0.0000000000000E+00
(PID.TID 0000.0001) %MON dynstat_vvel_max             =   1.0000000000000E+00
(PID.TID 0000.0001) %MON dynstat_vvel_min             =   1.0000000000000E+00
(PID.TID 0000.0001) %MON dynstat_vvel_mean            =   1.0000000000000E+00
(PID.TID 0000.0001) %MON dynstat_vvel_sd              =   0.0000000000000E+00
(PID.TID 0000.0001) %MON dynstat_wvel_max             =   0.0000000000000E+00
(PID.TID 0000.0001) %MON dynstat_wvel_min             =   0.0000000000000E+00
(PID.TID 0000.0001) %MON dynstat_wvel_mean            =   0.0000000000000E+00
(PID.TID 0000.0001) %MON dynstat_wvel_sd              =   0.0000000000000E+00
(PID.TID 0000.0001) %MON dynstat_theta_max            =   5.6679514234128E-02
(PID.TID 0000.0001) %MON dynstat_theta_min            =   1.7225306499994E-21
(PID.TID 0000.0001) %MON dynstat_theta_mean           =   4.7849195886728E-03
(PID.TID 0000.0001) %MON dynstat_theta_sd             =   1.1772439201240E-02
(PID.TID 0000.0001) %MON dynstat_salt_max             =   3.6000000000000E+01
(PID.TID 0000.0001) %MON dynstat_salt_min             =   3.5000000000000E+01
(PID.TID 0000.0001) %MON dynstat_salt_mean            =   3.5130000000000E+01
(PID.TID 0000.0001) %MON dynstat_salt_sd              =   2.7058628543234E-01
(PID.TID 0000.0001) %MON advcfl_uvel_max              =   2.5000000000000E-01
(PID.TID 0000.0001) %MON advcfl_vvel_max              =   2.5000000000000E-01
(PID.TID 0000.0001) %MON advcfl_wvel_max              =   0.0000000000000E+00
(PID.TID 0000.0001) %MON advcfl_W_hf_max              =   0.0000000000000E+00
(PID.TID 0000.0001) %MON ke_max                       =   1.0000000000000E+00
(PID.TID 0000.0001) %MON ke_mean                      =   1.0000000000000E+00
(PID.TID 0000.0001) // =======================================================
(PID.TID 0000.0001) // End MONITOR dynamic field statistics
(PID.TID 0000.0001) // =======================================================
(PID.TID 0000.0001) // =======================================================
(PID.TID 0000.0001) // Field Current uVel   at iteration         64
(PID.TID 0000.0001) // CMIN =          1.000000000000000E+00
(PID.TID 0000.0001) // CMAX =          1.000000000000000E+00
(PID.TID 0000.0001) // CINT =          0.000000000000000E+00
(PID.TID 0000.0001) // SYMBOLS (CMIN->CMAX): -abcdefghijklmnopqrstuvwxyz+
(PID.TID 0000.0001) //                  0.0: .
(PID.TID 0000.0001) // RANGE I (Lo:Hi:Step):(   1:  20:   1)
(PID.TID 0000.0001) // RANGE J (Lo:Hi:Step):(  20:   1:  -1)
(PID.TID 0000.0001) // RANGE K (Lo:Hi:Step):(   1:   1:   1)
(PID.TID 0000.0001) // =======================================================
(PID.TID 0000.0001) K =   1
(PID.TID 0000.0001)                I=10      I=20
(PID.TID 0000.0001) |--J--|123456789|123456789|
(PID.TID 0000.0001)     20 --------------------
(PID.TID 0000.0001)     19 --------------------
(PID.TID 0000.0001)     18 --------------------
(PID.TID 0000.0001)     17 --------------------
(PID.TID 0000.0001)     16 --------------------
(PID.TID 0000.0001)     15 --------------------
(PID.TID 0000.0001)     14 --------------------
(PID.TID 0000.0001)     13 --------------------
(PID.TID 0000.0001)     12 --------------------
(PID.TID 0000.0001)     11 --------------------
(PID.TID 0000.0001)     10 --------------------
(PID.TID 0000.0001)      9 --------------------
(PID.TID 0000.0001)      8 --------------------
(PID.TID 0000.0001)      7 --------------------
(PID.TID 0000.0001)      6 --------------------
(PID.TID 0000.0001)      5 --------------------
(PID.TID 0000.0001)      4 --------------------
(PID.TID 0000.0001)      3 --------------------
(PID.TID 0000.0001)      2 --------------------
(PID.TID 0000.0001)      1 --------------------
(PID.TID 0000.0001) // =======================================================
(PID.TID 0000.0001) // END OF FIELD                                          =
(PID.TID 0000.0001) // =======================================================
(PID.TID 0000.0001) 
(PID.TID 0000.0001) // =======================================================
(PID.TID 0000.0001) // Field Current vVel   at iteration         64
(PID.TID 0000.0001) // CMIN =          1.000000000000000E+00
(PID.TID 0000.0001) // CMAX =          1.000000000000000E+00
(PID.TID 0000.0001) // CINT =          0.000000000000000E+00
(PID.TID 0000.0001) // SYMBOLS (CMIN->CMAX): -abcdefghijklmnopqrstuvwxyz+
(PID.TID 0000.0001) //                  0.0: .
(PID.TID 0000.0001) // RANGE I (Lo:Hi:Step):(   1:  20:   1)
(PID.TID 0000.0001) // RANGE J (Lo:Hi:Step):(  20:   1:  -1)
(PID.TID 0000.0001) // RANGE K (Lo:Hi:Step):(   1:   1:   1)
(PID.TID 0000.0001) // =======================================================
(PID.TID 0000.0001) K =   1
(PID.TID 0000.0001)                I=10      I=20
(PID.TID 0000.0001) |--J--|123456789|123456789|
(PID.TID 0000.0001)     20 --------------------
(PID.TID 0000.0001)     19 --------------------
(PID.TID 0000.0001)     18 --------------------
(PID.TID 0000.0001)     17 --------------------
(PID.TID 0000.0001)     16 --------------------
(PID.TID 0000.0001)     15 --------------------
(PID.TID 0000.0001)     14 --------------------
(PID.TID 0000.0001)     13 --------------------
(PID.TID 0000.0001)     12 --------------------
(PID.TID 0000.0001)     11 --------------------
(PID.TID 0000.0001)     10 --------------------
(PID.TID 0000.0001)      9 --------------------
(PID.TID 0000.0001)      8 --------------------
(PID.TID 0000.0001)      7 --------------------
(PID.TID 0000.0001)      6 --------------------
(PID.TID 0000.0001)      5 --------------------
(PID.TID 0000.0001)      4 --------------------
(PID.TID 0000.0001)      3 --------------------
(PID.TID 0000.0001)      2 --------------------
(PID.TID 0000.0001)      1 --------------------
(PID.TID 0000.0001) // =======================================================
(PID.TID 0000.0001) // END OF FIELD                                          =
(PID.TID 0000.0001) // =======================================================
(PID.TID 0000.0001) 
(PID.TID 0000.0001) // =======================================================
(PID.TID 0000.0001) // Field Current theta  at iteration         64
(PID.TID 0000.0001) // CMIN =          1.722530649999362E-21
(PID.TID 0000.0001) // CMAX =          5.667951423412774E-02
(PID.TID 0000.0001) // CINT =          2.099241267930657E-03
(PID.TID 0000.0001) // SYMBOLS (CMIN->CMAX): -abcdefghijklmnopqrstuvwxyz+
(PID.TID 0000.0001) //                  0.0: .
(PID.TID 0000.0001) // RANGE I (Lo:Hi:Step):(   1:  20:   1)
(PID.TID 0000.0001) // RANGE J (Lo:Hi:Step):(  20:   1:  -1)
(PID.TID 0000.0001) // RANGE K (Lo:Hi:Step):(   1:   1:   1)
(PID.TID 0000.0001) // =======================================================
(PID.TID 0000.0001) K =   1
(PID.TID 0000.0001)                I=10      I=20
(PID.TID 0000.0001) |--J--|123456789|123456789|
(PID.TID 0000.0001)     20 +wqic----------bhpx+
(PID.TID 0000.0001)     19 xuohc----------bgnux
(PID.TID 0000.0001)     18 pnjfb----------aejnp
(PID.TID 0000.0001)     17 hgeca----------abegh
(PID.TID 0000.0001)     16 bbaa------------aabb
(PID.TID 0000.0001)     15 --------------------
(PID.TID 0000.0001)     14 --------------------
(PID.TID 0000.0001)     13 --------------------
(PID.TID 0000.0001)     12 --------------------
(PID.TID 0000.0001)     11 --------------------
(PID.TID 0000.0001)     10 --------------------
(PID.TID 0000.0001)      9 --------------------
(PID.TID 0000.0001)      8 --------------------
(PID.TID 0000.0001)      7 --------------------
(PID.TID 0000.0001)      6 --------------------
(PID.TID 0000.0001)      5 ccba------------abcc
(PID.TID 0000.0001)      4 ihfca----------acfhi
(PID.TID 0000.0001)      3 qnjfb----------aejoq
(PID.TID 0000.0001)      2 wtnhc----------bgnuw
(PID.TID 0000.0001)      1 +wqic----------bhpx+
(PID.TID 0000.0001) // =======================================================
(PID.TID 0000.0001) // END OF FIELD                                          =
(PID.TID 0000.0001) // =======================================================
(PID.TID 0000.0001) 
(PID.TID 0000.0001) // =======================================================
(PID.TID 0000.0001) // Field Current etaN   at iteration         64
(PID.TID 0000.0001) // CMIN =          1.000000000000000E+32
(PID.TID 0000.0001) // CMAX =         -1.000000000000000E+32
(PID.TID 0000.0001) // CINT =          0.000000000000000E+00
(PID.TID 0000.0001) // SYMBOLS (CMIN->CMAX): -abcdefghijklmnopqrstuvwxyz+
(PID.TID 0000.0001) //                  0.0: .
(PID.TID 0000.0001) // RANGE I (Lo:Hi:Step):(  -2:  23:   1)
(PID.TID 0000.0001) // RANGE J (Lo:Hi:Step):(  23:  -2:  -1)
(PID.TID 0000.0001) // RANGE K (Lo:Hi:Step):(   1:   1:   1)
(PID.TID 0000.0001) // =======================================================
(PID.TID 0000.0001) K =   1
(PID.TID 0000.0001)                I=7       I=17
(PID.TID 0000.0001) |--J--|**0123456|890123456|890123
(PID.TID 0000.0001)     23 ..........................
(PID.TID 0000.0001)     22 ..........................
(PID.TID 0000.0001)     21 ..........................
(PID.TID 0000.0001)     20 ..........................
(PID.TID 0000.0001)     19 ..........................
(PID.TID 0000.0001)     18 ..........................
(PID.TID 0000.0001)     17 ..........................
(PID.TID 0000.0001)     16 ..........................
(PID.TID 0000.0001)     15 ..........................
(PID.TID 0000.0001)     14 ..........................
(PID.TID 0000.0001)     13 ..........................
(PID.TID 0000.0001)     12 ..........................
(PID.TID 0000.0001)     11 ..........................
(PID.TID 0000.0001)     10 ..........................
(PID.TID 0000.0001)      9 ..........................
(PID.TID 0000.0001)      8 ..........................
(PID.TID 0000.0001)      7 ..........................
(PID.TID 0000.0001)      6 ..........................
(PID.TID 0000.0001)      5 ..........................
(PID.TID 0000.0001)      4 ..........................
(PID.TID 0000.0001)      3 ..........................
(PID.TID 0000.0001)      2 ..........................
(PID.TID 0000.0001)      1 ..........................
(PID.TID 0000.0001)      0 ..........................
(PID.TID 0000.0001)     -1 ..........................
(PID.TID 0000.0001)     -2 ..........................
(PID.TID 0000.0001) // =======================================================
(PID.TID 0000.0001) // END OF FIELD                                          =
(PID.TID 0000.0001) // =======================================================
(PID.TID 0000.0001) 
(PID.TID 0000.0001) // =======================================================
(PID.TID 0000.0001) // Begin MONITOR dynamic field statistics
(PID.TID 0000.0001) // =======================================================
(PID.TID 0000.0001) %MON time_tsnumber                =                    80
(PID.TID 0000.0001) %MON time_secondsf                =   2.0000000000000E+05
(PID.TID 0000.0001) %MON time_secondsi                =                200000
(PID.TID 0000.0001) %MON dynstat_eta_max              =   0.0000000000000E+00
(PID.TID 0000.0001) %MON dynstat_eta_min              =   0.0000000000000E+00
(PID.TID 0000.0001) %MON dynstat_eta_mean             =   0.0000000000000E+00
(PID.TID 0000.0001) %MON dynstat_eta_sd               =   0.0000000000000E+00
(PID.TID 0000.0001) %MON dynstat_uvel_max             =   1.0000000000000E+00
(PID.TID 0000.0001) %MON dynstat_uvel_min             =   1.0000000000000E+00
(PID.TID 0000.0001) %MON dynstat_uvel_mean            =   1.0000000000000E+00
(PID.TID 0000.0001) %MON dynstat_uvel_sd              =   0.0000000000000E+00
(PID.TID 0000.0001) %MON dynstat_vvel_max             =   1.0000000000000E+00
(PID.TID 0000.0001) %MON dynstat_vvel_min             =   1.0000000000000E+00
(PID.TID 0000.0001) %MON dynstat_vvel_mean            =   1.0000000000000E+00
(PID.TID 0000.0001) %MON dynstat_vvel_sd              =   0.0000000000000E+00
(PID.TID 0000.0001) %MON dynstat_wvel_max             =   0.0000000000000E+00
(PID.TID 0000.0001) %MON dynstat_wvel_min             =   0.0000000000000E+00
(PID.TID 0000.0001) %MON dynstat_wvel_mean            =   0.0000000000000E+00
(PID.TID 0000.0001) %MON dynstat_wvel_sd              =   0.0000000000000E+00
(PID.TID 0000.0001) %MON dynstat_theta_max            =   5.4514703800955E-02
(PID.TID 0000.0001) %MON dynstat_theta_min            =   2.0587666379077E-21
(PID.TID 0000.0001) %MON dynstat_theta_mean           =   4.7849195886728E-03
(PID.TID 0000.0001) %MON dynstat_theta_sd             =   1.1510474490312E-02
(PID.TID 0000.0001) %MON dynstat_salt_max             =   3.6000000000000E+01
(PID.TID 0000.0001) %MON dynstat_salt_min             =   3.5000000000000E+01
(PID.TID 0000.0001) %MON dynstat_salt_mean            =   3.5130000000000E+01
(PID.TID 0000.0001) %MON dynstat_salt_sd              =   2.6616848616710E-01
(PID.TID 0000.0001) %MON advcfl_uvel_max              =   2.5000000000000E-01
(PID.TID 0000.0001) %MON advcfl_vvel_max              =   2.5000000000000E-01
(PID.TID 0000.0001) %MON advcfl_wvel_max              =   0.0000000000000E+00
(PID.TID 0000.0001) %MON advcfl_W_hf_max              =   0.0000000000000E+00
(PID.TID 0000.0001) %MON ke_max                       =   1.0000000000000E+00
(PID.TID 0000.0001) %MON ke_mean                      =   1.0000000000000E+00
(PID.TID 0000.0001) // =======================================================
(PID.TID 0000.0001) // End MONITOR dynamic field statistics
(PID.TID 0000.0001) // =======================================================
(PID.TID 0000.0001) // =======================================================
(PID.TID 0000.0001) // Field Current uVel   at iteration         80
(PID.TID 0000.0001) // CMIN =          1.000000000000000E+00
(PID.TID 0000.0001) // CMAX =          1.000000000000000E+00
(PID.TID 0000.0001) // CINT =          0.000000000000000E+00
(PID.TID 0000.0001) // SYMBOLS (CMIN->CMAX): -abcdefghijklmnopqrstuvwxyz+
(PID.TID 0000.0001) //                  0.0: .
(PID.TID 0000.0001) // RANGE I (Lo:Hi:Step):(   1:  20:   1)
(PID.TID 0000.0001) // RANGE J (Lo:Hi:Step):(  20:   1:  -1)
(PID.TID 0000.0001) // RANGE K (Lo:Hi:Step):(   1:   1:   1)
(PID.TID 0000.0001) // =======================================================
(PID.TID 0000.0001) K =   1
(PID.TID 0000.0001)                I=10      I=20
(PID.TID 0000.0001) |--J--|123456789|123456789|
(PID.TID 0000.0001)     20 --------------------
(PID.TID 0000.0001)     19 --------------------
(PID.TID 0000.0001)     18 --------------------
(PID.TID 0000.0001)     17 --------------------
(PID.TID 0000.0001)     16 --------------------
(PID.TID 0000.0001)     15 --------------------
(PID.TID 0000.0001)     14 --------------------
(PID.TID 0000.0001)     13 --------------------
(PID.TID 0000.0001)     12 --------------------
(PID.TID 0000.0001)     11 --------------------
(PID.TID 0000.0001)     10 --------------------
(PID.TID 0000.0001)      9 --------------------
(PID.TID 0000.0001)      8 --------------------
(PID.TID 0000.0001)      7 --------------------
(PID.TID 0000.0001)      6 --------------------
(PID.TID 0000.0001)      5 --------------------
(PID.TID 0000.0001)      4 --------------------
(PID.TID 0000.0001)      3 --------------------
(PID.TID 0000.0001)      2 --------------------
(PID.TID 0000.0001)      1 --------------------
(PID.TID 0000.0001) // =======================================================
(PID.TID 0000.0001) // END OF FIELD                                          =
(PID.TID 0000.0001) // =======================================================
(PID.TID 0000.0001) 
(PID.TID 0000.0001) // =======================================================
(PID.TID 0000.0001) // Field Current vVel   at iteration         80
(PID.TID 0000.0001) // CMIN =          1.000000000000000E+00
(PID.TID 0000.0001) // CMAX =          1.000000000000000E+00
(PID.TID 0000.0001) // CINT =          0.000000000000000E+00
(PID.TID 0000.0001) // SYMBOLS (CMIN->CMAX): -abcdefghijklmnopqrstuvwxyz+
(PID.TID 0000.0001) //                  0.0: .
(PID.TID 0000.0001) // RANGE I (Lo:Hi:Step):(   1:  20:   1)
(PID.TID 0000.0001) // RANGE J (Lo:Hi:Step):(  20:   1:  -1)
(PID.TID 0000.0001) // RANGE K (Lo:Hi:Step):(   1:   1:   1)
(PID.TID 0000.0001) // =======================================================
(PID.TID 0000.0001) K =   1
(PID.TID 0000.0001)                I=10      I=20
(PID.TID 0000.0001) |--J--|123456789|123456789|
(PID.TID 0000.0001)     20 --------------------
(PID.TID 0000.0001)     19 --------------------
(PID.TID 0000.0001)     18 --------------------
(PID.TID 0000.0001)     17 --------------------
(PID.TID 0000.0001)     16 --------------------
(PID.TID 0000.0001)     15 --------------------
(PID.TID 0000.0001)     14 --------------------
(PID.TID 0000.0001)     13 --------------------
(PID.TID 0000.0001)     12 --------------------
(PID.TID 0000.0001)     11 --------------------
(PID.TID 0000.0001)     10 --------------------
(PID.TID 0000.0001)      9 --------------------
(PID.TID 0000.0001)      8 --------------------
(PID.TID 0000.0001)      7 --------------------
(PID.TID 0000.0001)      6 --------------------
(PID.TID 0000.0001)      5 --------------------
(PID.TID 0000.0001)      4 --------------------
(PID.TID 0000.0001)      3 --------------------
(PID.TID 0000.0001)      2 --------------------
(PID.TID 0000.0001)      1 --------------------
(PID.TID 0000.0001) // =======================================================
(PID.TID 0000.0001) // END OF FIELD                                          =
(PID.TID 0000.0001) // =======================================================
(PID.TID 0000.0001) 
(PID.TID 0000.0001) // =======================================================
(PID.TID 0000.0001) // Field Current theta  at iteration         80
(PID.TID 0000.0001) // CMIN =          2.058766637907733E-21
(PID.TID 0000.0001) // CMAX =          5.451470380095509E-02
(PID.TID 0000.0001) // CINT =          2.019063103739077E-03
(PID.TID 0000.0001) // SYMBOLS (CMIN->CMAX): -abcdefghijklmnopqrstuvwxyz+
(PID.TID 0000.0001) //                  0.0: .
(PID.TID 0000.0001) // RANGE I (Lo:Hi:Step):(   1:  20:   1)
(PID.TID 0000.0001) // RANGE J (Lo:Hi:Step):(  20:   1:  -1)
(PID.TID 0000.0001) // RANGE K (Lo:Hi:Step):(   1:   1:   1)
(PID.TID 0000.0001) // =======================================================
(PID.TID 0000.0001) K =   1
(PID.TID 0000.0001)                I=10      I=20
(PID.TID 0000.0001) |--J--|123456789|123456789|
(PID.TID 0000.0001)     20 aabbbbaa------------
(PID.TID 0000.0001)     19 --------------------
(PID.TID 0000.0001)     18 --------------------
(PID.TID 0000.0001)     17 --------------------
(PID.TID 0000.0001)     16 --------------------
(PID.TID 0000.0001)     15 --------------------
(PID.TID 0000.0001)     14 --------------------
(PID.TID 0000.0001)     13 --------------------
(PID.TID 0000.0001)     12 --------------------
(PID.TID 0000.0001)     11 --------------------
(PID.TID 0000.0001)     10 ---aa---------------
(PID.TID 0000.0001)      9 abcddcbaa-----------
(PID.TID 0000.0001)      8 cfijjhfca----------a
(PID.TID 0000.0001)      7 ekoqqokfb----------a
(PID.TID 0000.0001)      6 gouxxuohc----------b
(PID.TID 0000.0001)      5 iqx++xqjda---------b
(PID.TID 0000.0001)      4 iqx++xqjda---------b
(PID.TID 0000.0001)      3 houxxuoic----------b
(PID.TID 0000.0001)      2 ejoqqokfb----------a
(PID.TID 0000.0001)      1 cehiigeca----------a
(PID.TID 0000.0001) // =======================================================
(PID.TID 0000.0001) // END OF FIELD                                          =
(PID.TID 0000.0001) // =======================================================
(PID.TID 0000.0001) 
(PID.TID 0000.0001) // =======================================================
(PID.TID 0000.0001) // Field Current etaN   at iteration         80
(PID.TID 0000.0001) // CMIN =          1.000000000000000E+32
(PID.TID 0000.0001) // CMAX =         -1.000000000000000E+32
(PID.TID 0000.0001) // CINT =          0.000000000000000E+00
(PID.TID 0000.0001) // SYMBOLS (CMIN->CMAX): -abcdefghijklmnopqrstuvwxyz+
(PID.TID 0000.0001) //                  0.0: .
(PID.TID 0000.0001) // RANGE I (Lo:Hi:Step):(  -2:  23:   1)
(PID.TID 0000.0001) // RANGE J (Lo:Hi:Step):(  23:  -2:  -1)
(PID.TID 0000.0001) // RANGE K (Lo:Hi:Step):(   1:   1:   1)
(PID.TID 0000.0001) // =======================================================
(PID.TID 0000.0001) K =   1
(PID.TID 0000.0001)                I=7       I=17
(PID.TID 0000.0001) |--J--|**0123456|890123456|890123
(PID.TID 0000.0001)     23 ..........................
(PID.TID 0000.0001)     22 ..........................
(PID.TID 0000.0001)     21 ..........................
(PID.TID 0000.0001)     20 ..........................
(PID.TID 0000.0001)     19 ..........................
(PID.TID 0000.0001)     18 ..........................
(PID.TID 0000.0001)     17 ..........................
(PID.TID 0000.0001)     16 ..........................
(PID.TID 0000.0001)     15 ..........................
(PID.TID 0000.0001)     14 ..........................
(PID.TID 0000.0001)     13 ..........................
(PID.TID 0000.0001)     12 ..........................
(PID.TID 0000.0001)     11 ..........................
(PID.TID 0000.0001)     10 ..........................
(PID.TID 0000.0001)      9 ..........................
(PID.TID 0000.0001)      8 ..........................
(PID.TID 0000.0001)      7 ..........................
(PID.TID 0000.0001)      6 ..........................
(PID.TID 0000.0001)      5 ..........................
(PID.TID 0000.0001)      4 ..........................
(PID.TID 0000.0001)      3 ..........................
(PID.TID 0000.0001)      2 ..........................
(PID.TID 0000.0001)      1 ..........................
(PID.TID 0000.0001)      0 ..........................
(PID.TID 0000.0001)     -1 ..........................
(PID.TID 0000.0001)     -2 ..........................
(PID.TID 0000.0001) // =======================================================
(PID.TID 0000.0001) // END OF FIELD                                          =
(PID.TID 0000.0001) // =======================================================
(PID.TID 0000.0001) 
(PID.TID 0000.0001)   Seconds in section "ALL                [THE_MODEL_MAIN]":
(PID.TID 0000.0001)           User time:  0.479999989
(PID.TID 0000.0001)         System time:  0.00999999978
(PID.TID 0000.0001)     Wall clock time:  0.482082963
(PID.TID 0000.0001)          No. starts: 1
(PID.TID 0000.0001)           No. stops: 1
(PID.TID 0000.0001)   Seconds in section "INITIALISE_FIXED   [THE_MODEL_MAIN]":
(PID.TID 0000.0001)           User time:  0.0500000007
(PID.TID 0000.0001)         System time:  0.
(PID.TID 0000.0001)     Wall clock time:  0.0509790182
(PID.TID 0000.0001)          No. starts: 1
(PID.TID 0000.0001)           No. stops: 1
(PID.TID 0000.0001)   Seconds in section "THE_MAIN_LOOP      [THE_MODEL_MAIN]":
(PID.TID 0000.0001)           User time:  0.429999989
(PID.TID 0000.0001)         System time:  0.
(PID.TID 0000.0001)     Wall clock time:  0.425036907
(PID.TID 0000.0001)          No. starts: 1
(PID.TID 0000.0001)           No. stops: 1
(PID.TID 0000.0001)   Seconds in section "INITIALISE_VARIA    [THE_MAIN_LOOP]":
(PID.TID 0000.0001)           User time:  0.00999999791
(PID.TID 0000.0001)         System time:  0.
(PID.TID 0000.0001)     Wall clock time:  0.00600397587
(PID.TID 0000.0001)          No. starts: 1
(PID.TID 0000.0001)           No. stops: 1
(PID.TID 0000.0001)   Seconds in section "WRITE_STATE         [THE_MAIN_LOOP]":
(PID.TID 0000.0001)           User time:  0.
(PID.TID 0000.0001)         System time:  0.
(PID.TID 0000.0001)     Wall clock time:  0.00225102901
(PID.TID 0000.0001)          No. starts: 1
(PID.TID 0000.0001)           No. stops: 1
(PID.TID 0000.0001)   Seconds in section "MONITOR             [THE_MAIN_LOOP]":
(PID.TID 0000.0001)           User time:  0.0100000016
(PID.TID 0000.0001)         System time:  0.
(PID.TID 0000.0001)     Wall clock time:  0.00237703323
(PID.TID 0000.0001)          No. starts: 1
(PID.TID 0000.0001)           No. stops: 1
(PID.TID 0000.0001)   Seconds in section "MAIN LOOP           [THE_MAIN_LOOP]":
(PID.TID 0000.0001)           User time:  0.409999989
(PID.TID 0000.0001)         System time:  0.
(PID.TID 0000.0001)     Wall clock time:  0.414112091
(PID.TID 0000.0001)          No. starts: 1
(PID.TID 0000.0001)           No. stops: 1
(PID.TID 0000.0001)   Seconds in section "FORWARD_STEP        [THE_MAIN_LOOP]":
(PID.TID 0000.0001)           User time:  0.399999999
(PID.TID 0000.0001)         System time:  0.
(PID.TID 0000.0001)     Wall clock time:  0.409602404
(PID.TID 0000.0001)          No. starts: 80
(PID.TID 0000.0001)           No. stops: 80
(PID.TID 0000.0001)   Seconds in section "EXTERNAL_FIELDS_LOAD[THE_MAIN_LOOP]":
(PID.TID 0000.0001)           User time:  0.
(PID.TID 0000.0001)         System time:  0.
(PID.TID 0000.0001)     Wall clock time:  0.00443720818
(PID.TID 0000.0001)          No. starts: 80
(PID.TID 0000.0001)           No. stops: 80
(PID.TID 0000.0001)   Seconds in section "THERMODYNAMICS      [THE_MAIN_LOOP]":
(PID.TID 0000.0001)           User time:  0.260000043
(PID.TID 0000.0001)         System time:  0.
(PID.TID 0000.0001)     Wall clock time:  0.274544835
(PID.TID 0000.0001)          No. starts: 80
(PID.TID 0000.0001)           No. stops: 80
(PID.TID 0000.0001)   Seconds in section "THE_CORRECTION_STEP [THE_MAIN_LOOP]":
(PID.TID 0000.0001)           User time:  0.00999999791
(PID.TID 0000.0001)         System time:  0.
(PID.TID 0000.0001)     Wall clock time:  0.0156643391
(PID.TID 0000.0001)          No. starts: 80
(PID.TID 0000.0001)           No. stops: 80
(PID.TID 0000.0001)   Seconds in section "BLOCKING_EXCHANGES  [THE_MAIN_LOOP]":
(PID.TID 0000.0001)           User time:  0.0299999714
(PID.TID 0000.0001)         System time:  0.
(PID.TID 0000.0001)     Wall clock time:  0.0130620003
(PID.TID 0000.0001)          No. starts: 80
(PID.TID 0000.0001)           No. stops: 80
(PID.TID 0000.0001)   Seconds in section "DO_THE_MODEL_IO     [THE_MAIN_LOOP]":
(PID.TID 0000.0001)           User time:  0.0500000119
(PID.TID 0000.0001)         System time:  0.
(PID.TID 0000.0001)     Wall clock time:  0.0538102388
(PID.TID 0000.0001)          No. starts: 80
(PID.TID 0000.0001)           No. stops: 80
(PID.TID 0000.0001)   Seconds in section "WRITE_CHECKPOINT    [THE_MAIN_LOOP]":
(PID.TID 0000.0001)           User time:  0.
(PID.TID 0000.0001)         System time:  0.
(PID.TID 0000.0001)     Wall clock time:  0.00454509258
(PID.TID 0000.0001)          No. starts: 80
(PID.TID 0000.0001)           No. stops: 80
(PID.TID 0000.0001)   Seconds in section "WRITE_CHECKPOINT   [THE_MODEL_MAIN]":
(PID.TID 0000.0001)           User time:  0.
(PID.TID 0000.0001)         System time:  0.00999999978
(PID.TID 0000.0001)     Wall clock time:  0.00581300259
(PID.TID 0000.0001)          No. starts: 1
(PID.TID 0000.0001)           No. stops: 1
(PID.TID 0000.0001) // ======================================================
(PID.TID 0000.0001) // Tile <-> Tile communication statistics
(PID.TID 0000.0001) // ======================================================
(PID.TID 0000.0001) // o Tile number: 000001
(PID.TID 0000.0001) //         No. X exchanges =              0
(PID.TID 0000.0001) //            Max. X spins =              0
(PID.TID 0000.0001) //            Min. X spins =     1000000000
(PID.TID 0000.0001) //          Total. X spins =              0
(PID.TID 0000.0001) //            Avg. X spins =       0.00E+00
(PID.TID 0000.0001) //         No. Y exchanges =              0
(PID.TID 0000.0001) //            Max. Y spins =              0
(PID.TID 0000.0001) //            Min. Y spins =     1000000000
(PID.TID 0000.0001) //          Total. Y spins =              0
(PID.TID 0000.0001) //            Avg. Y spins =       0.00E+00
(PID.TID 0000.0001) // o Thread number: 000001
(PID.TID 0000.0001) //            No. barriers =           1464
(PID.TID 0000.0001) //      Max. barrier spins =              1
(PID.TID 0000.0001) //      Min. barrier spins =              1
(PID.TID 0000.0001) //     Total barrier spins =           1464
(PID.TID 0000.0001) //      Avg. barrier spins =       1.00E+00
