(PID.TID 0000.0001) 
(PID.TID 0000.0001) // ======================================================
(PID.TID 0000.0001) //                      MITgcm UV
(PID.TID 0000.0001) //                      =========
(PID.TID 0000.0001) // ======================================================
(PID.TID 0000.0001) // execution environment starting up...
(PID.TID 0000.0001) 
(PID.TID 0000.0001) // MITgcmUV version:  checkpoint57c_post
(PID.TID 0000.0001) // Build user:        jmc
(PID.TID 0000.0001) // Build host:        faulks
(PID.TID 0000.0001) // Build date:        Mon Jan 31 15:13:20 EST 2005
(PID.TID 0000.0001) 
(PID.TID 0000.0001) // =======================================================
(PID.TID 0000.0001) // Execution Environment parameter file "eedata"
(PID.TID 0000.0001) // =======================================================
(PID.TID 0000.0001) ># Example "eedata" file
(PID.TID 0000.0001) ># Lines beginning "#" are comments
(PID.TID 0000.0001) ># nTx - No. threads per process in X
(PID.TID 0000.0001) ># nTy - No. threads per process in Y
(PID.TID 0000.0001) > &EEPARMS
(PID.TID 0000.0001) > &
(PID.TID 0000.0001) ># Note: Some systems use & as the
(PID.TID 0000.0001) ># namelist terminator. Other systems
(PID.TID 0000.0001) ># use a / character (as shown here).
(PID.TID 0000.0001) 
(PID.TID 0000.0001) // =======================================================
(PID.TID 0000.0001) // Computational Grid Specification ( see files "SIZE.h" )
(PID.TID 0000.0001) //                                  ( and "eedata"       )
(PID.TID 0000.0001) // =======================================================
(PID.TID 0000.0001)      nPx =    1 ; /* No. processes in X */
(PID.TID 0000.0001)      nPy =    1 ; /* No. processes in Y */
(PID.TID 0000.0001)      nSx =    2 ; /* No. tiles in X per process */
(PID.TID 0000.0001)      nSy =    2 ; /* No. tiles in Y per process */
(PID.TID 0000.0001)      sNx =   32 ; /* Tile size in X */
(PID.TID 0000.0001)      sNy =   32 ; /* Tile size in Y */
(PID.TID 0000.0001)      OLx =    2 ; /* Tile overlap distance in X */
(PID.TID 0000.0001)      OLy =    2 ; /* Tile overlap distance in Y */
(PID.TID 0000.0001)      nTx =    1 ; /* No. threads in X per process */
(PID.TID 0000.0001)      nTy =    1 ; /* No. threads in Y per process */
(PID.TID 0000.0001)       Nr =   20 ; /* No. levels in the vertical   */
(PID.TID 0000.0001)       nX =   64 ; /* Total domain size in X ( = nPx*nSx*sNx ) */
(PID.TID 0000.0001)       nY =   64 ; /* Total domain size in Y ( = nPy*nSy*sNy ) */
(PID.TID 0000.0001)   nTiles =    4 ; /* Total no. tiles per process ( = nSx*nSy ) */
(PID.TID 0000.0001)   nProcs =    1 ; /* Total no. processes ( = nPx*nPy ) */
(PID.TID 0000.0001) nThreads =    1 ; /* Total no. threads per process ( = nTx*nTy ) */
(PID.TID 0000.0001) usingMPI =    F ; /* Flag used to control whether MPI is in use */
(PID.TID 0000.0001)                   /*  note: To execute a program with MPI calls */
(PID.TID 0000.0001)                   /*  it must be launched appropriately e.g     */
(PID.TID 0000.0001)                   /*  "mpirun -np 64 ......"                    */
(PID.TID 0000.0001) useCoupler=   F ; /* Flag used to control communications with */
(PID.TID 0000.0001)                   /*  other model components, through a coupler */
(PID.TID 0000.0001) 
(PID.TID 0000.0001) // ======================================================
(PID.TID 0000.0001) // Mapping of tiles to threads
(PID.TID 0000.0001) // ======================================================
(PID.TID 0000.0001) // -o- Thread   1, tiles (   1:   2,   1:   2)
(PID.TID 0000.0001) 
(PID.TID 0000.0001) // ======================================================
(PID.TID 0000.0001) // Tile <-> Tile connectvity table
(PID.TID 0000.0001) // ======================================================
(PID.TID 0000.0001) // Tile number: 000001 (process no. = 000001)
(PID.TID 0000.0001) //        WEST: Tile = 000002, Process = 000001, Comm = put
(PID.TID 0000.0001) //                bi = 000002, bj = 000001
(PID.TID 0000.0001) //        EAST: Tile = 000002, Process = 000001, Comm = put
(PID.TID 0000.0001) //                bi = 000002, bj = 000001
(PID.TID 0000.0001) //       SOUTH: Tile = 000003, Process = 000001, Comm = put
(PID.TID 0000.0001) //                bi = 000001, bj = 000002
(PID.TID 0000.0001) //       NORTH: Tile = 000003, Process = 000001, Comm = put
(PID.TID 0000.0001) //                bi = 000001, bj = 000002
(PID.TID 0000.0001) // Tile number: 000002 (process no. = 000001)
(PID.TID 0000.0001) //        WEST: Tile = 000001, Process = 000001, Comm = put
(PID.TID 0000.0001) //                bi = 000001, bj = 000001
(PID.TID 0000.0001) //        EAST: Tile = 000001, Process = 000001, Comm = put
(PID.TID 0000.0001) //                bi = 000001, bj = 000001
(PID.TID 0000.0001) //       SOUTH: Tile = 000004, Process = 000001, Comm = put
(PID.TID 0000.0001) //                bi = 000002, bj = 000002
(PID.TID 0000.0001) //       NORTH: Tile = 000004, Process = 000001, Comm = put
(PID.TID 0000.0001) //                bi = 000002, bj = 000002
(PID.TID 0000.0001) // Tile number: 000003 (process no. = 000001)
(PID.TID 0000.0001) //        WEST: Tile = 000004, Process = 000001, Comm = put
(PID.TID 0000.0001) //                bi = 000002, bj = 000002
(PID.TID 0000.0001) //        EAST: Tile = 000004, Process = 000001, Comm = put
(PID.TID 0000.0001) //                bi = 000002, bj = 000002
(PID.TID 0000.0001) //       SOUTH: Tile = 000001, Process = 000001, Comm = put
(PID.TID 0000.0001) //                bi = 000001, bj = 000001
(PID.TID 0000.0001) //       NORTH: Tile = 000001, Process = 000001, Comm = put
(PID.TID 0000.0001) //                bi = 000001, bj = 000001
(PID.TID 0000.0001) // Tile number: 000004 (process no. = 000001)
(PID.TID 0000.0001) //        WEST: Tile = 000003, Process = 000001, Comm = put
(PID.TID 0000.0001) //                bi = 000001, bj = 000002
(PID.TID 0000.0001) //        EAST: Tile = 000003, Process = 000001, Comm = put
(PID.TID 0000.0001) //                bi = 000001, bj = 000002
(PID.TID 0000.0001) //       SOUTH: Tile = 000002, Process = 000001, Comm = put
(PID.TID 0000.0001) //                bi = 000002, bj = 000001
(PID.TID 0000.0001) //       NORTH: Tile = 000002, Process = 000001, Comm = put
(PID.TID 0000.0001) //                bi = 000002, bj = 000001
(PID.TID 0000.0001) 
(PID.TID 0000.0001) // =======================================================
(PID.TID 0000.0001) // Model parameter file "data"
(PID.TID 0000.0001) // =======================================================
(PID.TID 0000.0001) ># ====================
(PID.TID 0000.0001) ># | Model parameters |
(PID.TID 0000.0001) ># ====================
(PID.TID 0000.0001) >#
(PID.TID 0000.0001) ># Continuous equation parameters
(PID.TID 0000.0001) > &PARM01
(PID.TID 0000.0001) > tRef=20*1.
(PID.TID 0000.0001) > sRef=20*35.,
(PID.TID 0000.0001) > viscAh=1.E0,
(PID.TID 0000.0001) > viscAz=1.E0,
(PID.TID 0000.0001) > no_slip_sides=.FALSE.,
(PID.TID 0000.0001) > no_slip_bottom=.FALSE.,
(PID.TID 0000.0001) > viscA4=0.E12,
(PID.TID 0000.0001) > diffKhT=1.E0,
(PID.TID 0000.0001) > diffKzT=1.E0,
(PID.TID 0000.0001) > diffKhS=1.E0,
(PID.TID 0000.0001) > diffKzS=1.E0,
(PID.TID 0000.0001) > f0=1250.,
(PID.TID 0000.0001) > beta=0.E-11,
(PID.TID 0000.0001) > tAlpha=1.,
(PID.TID 0000.0001) > sBeta =0.,
(PID.TID 0000.0001) > gravity=1.4E8,
(PID.TID 0000.0001) > rhoConst=1.,
(PID.TID 0000.0001) > rhoNil=1.,
(PID.TID 0000.0001) > heatCapacity_Cp=1.,
(PID.TID 0000.0001) > rigidLid=.FALSE.,
(PID.TID 0000.0001) > implicitFreeSurface=.TRUE.,
(PID.TID 0000.0001) > eosType='LINEAR',
(PID.TID 0000.0001) > nonHydrostatic=.TRUE.,
(PID.TID 0000.0001) > readBinaryPrec=64,
(PID.TID 0000.0001) > &
(PID.TID 0000.0001) >
(PID.TID 0000.0001) ># Elliptic solver parameters
(PID.TID 0000.0001) > &PARM02
(PID.TID 0000.0001) > cg2dMaxIters=1000,
(PID.TID 0000.0001) > cg2dTargetResidual=1.E-9,
(PID.TID 0000.0001) > cg3dMaxIters=40,
(PID.TID 0000.0001) > cg3dTargetResidual=1.E-9,
(PID.TID 0000.0001) > &
(PID.TID 0000.0001) >
(PID.TID 0000.0001) ># Time stepping parameters
(PID.TID 0000.0001) > &PARM03
(PID.TID 0000.0001) > nIter0=0,
(PID.TID 0000.0001) > nTimeSteps=10,
(PID.TID 0000.0001) > deltaT=2.0E-4,
(PID.TID 0000.0001) > abEps=0.1,
(PID.TID 0000.0001) > pChkptFreq=0.0,
(PID.TID 0000.0001) > chkptFreq=0.0,
(PID.TID 0000.0001) > dumpFreq=0.1,
(PID.TID 0000.0001) > monitorFreq=1.E-5,
(PID.TID 0000.0001) > &
(PID.TID 0000.0001) >
(PID.TID 0000.0001) ># Gridding parameters
(PID.TID 0000.0001) > &PARM04
(PID.TID 0000.0001) > usingCartesianGrid=.TRUE.,
(PID.TID 0000.0001) > usingSphericalPolarGrid=.FALSE.,
(PID.TID 0000.0001) > dXspacing=0.0625,
(PID.TID 0000.0001) > dYspacing=0.0625,
(PID.TID 0000.0001) > delZ=20*0.1,
(PID.TID 0000.0001) > &
(PID.TID 0000.0001) >
(PID.TID 0000.0001) ># Input datasets
(PID.TID 0000.0001) > &PARM05
(PID.TID 0000.0001) > surfQfile='Qnet.circle',
(PID.TID 0000.0001) > &
(PID.TID 0000.0001) 
(PID.TID 0000.0001) S/R INI_PARMS ; starts to read PARM01
(PID.TID 0000.0001) S/R INI_PARMS ; read PARM01 : OK
(PID.TID 0000.0001) S/R INI_PARMS ; starts to read PARM02
(PID.TID 0000.0001) S/R INI_PARMS ; read PARM02 : OK
(PID.TID 0000.0001) S/R INI_PARMS ; starts to read PARM03
(PID.TID 0000.0001) S/R INI_PARMS ; read PARM03 : OK
(PID.TID 0000.0001) S/R INI_PARMS ; starts to read PARM04
(PID.TID 0000.0001) S/R INI_PARMS ; read PARM04 : OK
(PID.TID 0000.0001) S/R INI_PARMS ; starts to read PARM05
(PID.TID 0000.0001) S/R INI_PARMS ; read PARM05 : OK
(PID.TID 0000.0001)  PACKAGES_BOOT: opening data.pkg
(PID.TID 0000.0001)  OPEN_COPY_DATA_FILE: opening file data.pkg
(PID.TID 0000.0001) // =======================================================
(PID.TID 0000.0001) // Parameter file "data.pkg"
(PID.TID 0000.0001) // =======================================================
(PID.TID 0000.0001) ># Packages
(PID.TID 0000.0001) > &PACKAGES
(PID.TID 0000.0001) > useMNC=.TRUE.,
(PID.TID 0000.0001) > &
(PID.TID 0000.0001) 
(PID.TID 0000.0001)  PACKAGES_BOOT: finished reading data.pkg
(PID.TID 0000.0001) %MON XC_max                       =   3.9687500000000E+00
(PID.TID 0000.0001) %MON XC_min                       =   3.1250000000000E-02
(PID.TID 0000.0001) %MON XC_mean                      =   2.0000000000000E+00
(PID.TID 0000.0001) %MON XC_sd                        =   1.1545595751194E+00
(PID.TID 0000.0001) %MON XG_max                       =   3.9375000000000E+00
(PID.TID 0000.0001) %MON XG_min                       =   6.2500000000000E-02
(PID.TID 0000.0001) %MON XG_mean                      =   2.0000000000000E+00
(PID.TID 0000.0001) %MON XG_sd                        =   1.1365151414155E+00
(PID.TID 0000.0001) %MON DXC_max                      =   6.2500000000000E-02
(PID.TID 0000.0001) %MON DXC_min                      =   6.2500000000000E-02
(PID.TID 0000.0001) %MON DXC_mean                     =   6.2500000000000E-02
(PID.TID 0000.0001) %MON DXC_sd                       =   0.0000000000000E+00
(PID.TID 0000.0001) %MON DXF_max                      =   6.2500000000000E-02
(PID.TID 0000.0001) %MON DXF_min                      =   6.2500000000000E-02
(PID.TID 0000.0001) %MON DXF_mean                     =   6.2500000000000E-02
(PID.TID 0000.0001) %MON DXF_sd                       =   0.0000000000000E+00
(PID.TID 0000.0001) %MON DXG_max                      =   6.2500000000000E-02
(PID.TID 0000.0001) %MON DXG_min                      =   6.2500000000000E-02
(PID.TID 0000.0001) %MON DXG_mean                     =   6.2500000000000E-02
(PID.TID 0000.0001) %MON DXG_sd                       =   0.0000000000000E+00
(PID.TID 0000.0001) %MON DXV_max                      =   6.2500000000000E-02
(PID.TID 0000.0001) %MON DXV_min                      =   6.2500000000000E-02
(PID.TID 0000.0001) %MON DXV_mean                     =   6.2500000000000E-02
(PID.TID 0000.0001) %MON DXV_sd                       =   0.0000000000000E+00
(PID.TID 0000.0001) %MON YC_max                       =   3.9687500000000E+00
(PID.TID 0000.0001) %MON YC_min                       =   3.1250000000000E-02
(PID.TID 0000.0001) %MON YC_mean                      =   2.0000000000000E+00
(PID.TID 0000.0001) %MON YC_sd                        =   1.1545595751194E+00
(PID.TID 0000.0001) %MON YG_max                       =   3.9375000000000E+00
(PID.TID 0000.0001) %MON YG_min                       =   6.2500000000000E-02
(PID.TID 0000.0001) %MON YG_mean                      =   2.0000000000000E+00
(PID.TID 0000.0001) %MON YG_sd                        =   1.1365151414155E+00
(PID.TID 0000.0001) %MON DYC_max                      =   6.2500000000000E-02
(PID.TID 0000.0001) %MON DYC_min                      =   6.2500000000000E-02
(PID.TID 0000.0001) %MON DYC_mean                     =   6.2500000000000E-02
(PID.TID 0000.0001) %MON DYC_sd                       =   0.0000000000000E+00
(PID.TID 0000.0001) %MON DYF_max                      =   6.2500000000000E-02
(PID.TID 0000.0001) %MON DYF_min                      =   6.2500000000000E-02
(PID.TID 0000.0001) %MON DYF_mean                     =   6.2500000000000E-02
(PID.TID 0000.0001) %MON DYF_sd                       =   0.0000000000000E+00
(PID.TID 0000.0001) %MON DYG_max                      =   6.2500000000000E-02
(PID.TID 0000.0001) %MON DYG_min                      =   6.2500000000000E-02
(PID.TID 0000.0001) %MON DYG_mean                     =   6.2500000000000E-02
(PID.TID 0000.0001) %MON DYG_sd                       =   0.0000000000000E+00
(PID.TID 0000.0001) %MON DYU_max                      =   6.2500000000000E-02
(PID.TID 0000.0001) %MON DYU_min                      =   6.2500000000000E-02
(PID.TID 0000.0001) %MON DYU_mean                     =   6.2500000000000E-02
(PID.TID 0000.0001) %MON DYU_sd                       =   0.0000000000000E+00
(PID.TID 0000.0001) %MON RA_max                       =   3.9062500000000E-03
(PID.TID 0000.0001) %MON RA_min                       =   3.9062500000000E-03
(PID.TID 0000.0001) %MON RA_mean                      =   3.9062500000000E-03
(PID.TID 0000.0001) %MON RA_sd                        =   0.0000000000000E+00
(PID.TID 0000.0001) %MON RAW_max                      =   3.9062500000000E-03
(PID.TID 0000.0001) %MON RAW_min                      =   3.9062500000000E-03
(PID.TID 0000.0001) %MON RAW_mean                     =   3.9062500000000E-03
(PID.TID 0000.0001) %MON RAW_sd                       =   0.0000000000000E+00
(PID.TID 0000.0001) %MON RAS_max                      =   3.9062500000000E-03
(PID.TID 0000.0001) %MON RAS_min                      =   3.9062500000000E-03
(PID.TID 0000.0001) %MON RAS_mean                     =   3.9062500000000E-03
(PID.TID 0000.0001) %MON RAS_sd                       =   0.0000000000000E+00
(PID.TID 0000.0001) %MON RAZ_max                      =   3.9062500000000E-03
(PID.TID 0000.0001) %MON RAZ_min                      =   3.9062500000000E-03
(PID.TID 0000.0001) %MON RAZ_mean                     =   3.9062500000000E-03
(PID.TID 0000.0001) %MON RAZ_sd                       =   0.0000000000000E+00
(PID.TID 0000.0001) // =======================================================
(PID.TID 0000.0001) // Field Model R_low (ini_masks_etc) at iteration          1
(PID.TID 0000.0001) // CMIN =         -2.000000000000000E+00
(PID.TID 0000.0001) // CMAX =         -2.000000000000000E+00
(PID.TID 0000.0001) // CINT =          0.000000000000000E+00
(PID.TID 0000.0001) // SYMBOLS (CMIN->CMAX): -abcdefghijklmnopqrstuvwxyz+
(PID.TID 0000.0001) //                  0.0: .
(PID.TID 0000.0001) // RANGE I (Lo:Hi:Step):(  -1:  66:   1)
(PID.TID 0000.0001) // RANGE J (Lo:Hi:Step):(  66:  -1:  -1)
(PID.TID 0000.0001) // RANGE K (Lo:Hi:Step):(   1:   1:   1)
(PID.TID 0000.0001) // =======================================================
(PID.TID 0000.0001) // =======================================================
(PID.TID 0000.0001) // END OF FIELD                                          =
(PID.TID 0000.0001) // =======================================================
(PID.TID 0000.0001) 
(PID.TID 0000.0001) // =======================================================
(PID.TID 0000.0001) // Field Model Ro_surf (ini_masks_etc) at iteration          1
(PID.TID 0000.0001) // CMIN =          1.942890293094024E-16
(PID.TID 0000.0001) // CMAX =          1.942890293094024E-16
(PID.TID 0000.0001) // CINT =          0.000000000000000E+00
(PID.TID 0000.0001) // SYMBOLS (CMIN->CMAX): -abcdefghijklmnopqrstuvwxyz+
(PID.TID 0000.0001) //                  0.0: .
(PID.TID 0000.0001) // RANGE I (Lo:Hi:Step):(  -1:  66:   1)
(PID.TID 0000.0001) // RANGE J (Lo:Hi:Step):(  66:  -1:  -1)
(PID.TID 0000.0001) // RANGE K (Lo:Hi:Step):(   1:   1:   1)
(PID.TID 0000.0001) // =======================================================
(PID.TID 0000.0001) // =======================================================
(PID.TID 0000.0001) // END OF FIELD                                          =
(PID.TID 0000.0001) // =======================================================
(PID.TID 0000.0001) 
(PID.TID 0000.0001) // =======================================================
(PID.TID 0000.0001) // Field hFacC at iteration          1
(PID.TID 0000.0001) // CMIN =          1.000000000000000E+00
(PID.TID 0000.0001) // CMAX =          1.000000000000000E+00
(PID.TID 0000.0001) // CINT =          0.000000000000000E+00
(PID.TID 0000.0001) // SYMBOLS (CMIN->CMAX): -abcdefghijklmnopqrstuvwxyz+
(PID.TID 0000.0001) //                  0.0: .
(PID.TID 0000.0001) // RANGE I (Lo:Hi:Step):(  -1:  66:   1)
(PID.TID 0000.0001) // RANGE J (Lo:Hi:Step):(  66:  -1:  -1)
(PID.TID 0000.0001) // RANGE K (Lo:Hi:Step):(   1:   1:   1)
(PID.TID 0000.0001) // =======================================================
(PID.TID 0000.0001) // =======================================================
(PID.TID 0000.0001) // END OF FIELD                                          =
(PID.TID 0000.0001) // =======================================================
(PID.TID 0000.0001) 
(PID.TID 0000.0001) // =======================================================
(PID.TID 0000.0001) // Field hFacW at iteration          1
(PID.TID 0000.0001) // CMIN =          1.000000000000000E+00
(PID.TID 0000.0001) // CMAX =          1.000000000000000E+00
(PID.TID 0000.0001) // CINT =          0.000000000000000E+00
(PID.TID 0000.0001) // SYMBOLS (CMIN->CMAX): -abcdefghijklmnopqrstuvwxyz+
(PID.TID 0000.0001) //                  0.0: .
(PID.TID 0000.0001) // RANGE I (Lo:Hi:Step):(  -1:  66:   1)
(PID.TID 0000.0001) // RANGE J (Lo:Hi:Step):(  66:  -1:  -1)
(PID.TID 0000.0001) // RANGE K (Lo:Hi:Step):(   1:   1:   1)
(PID.TID 0000.0001) // =======================================================
(PID.TID 0000.0001) // =======================================================
(PID.TID 0000.0001) // END OF FIELD                                          =
(PID.TID 0000.0001) // =======================================================
(PID.TID 0000.0001) 
(PID.TID 0000.0001) // =======================================================
(PID.TID 0000.0001) // Field hFacS at iteration          1
(PID.TID 0000.0001) // CMIN =          1.000000000000000E+00
(PID.TID 0000.0001) // CMAX =          1.000000000000000E+00
(PID.TID 0000.0001) // CINT =          0.000000000000000E+00
(PID.TID 0000.0001) // SYMBOLS (CMIN->CMAX): -abcdefghijklmnopqrstuvwxyz+
(PID.TID 0000.0001) //                  0.0: .
(PID.TID 0000.0001) // RANGE I (Lo:Hi:Step):(  -1:  66:   1)
(PID.TID 0000.0001) // RANGE J (Lo:Hi:Step):(  66:  -1:  -1)
(PID.TID 0000.0001) // RANGE K (Lo:Hi:Step):(   1:   1:   1)
(PID.TID 0000.0001) // =======================================================
(PID.TID 0000.0001) // =======================================================
(PID.TID 0000.0001) // END OF FIELD                                          =
(PID.TID 0000.0001) // =======================================================
(PID.TID 0000.0001) 
(PID.TID 0000.0001) 
(PID.TID 0000.0001) // ===================================
(PID.TID 0000.0001) // GAD parameters :
(PID.TID 0000.0001) // ===================================
(PID.TID 0000.0001) tempAdvScheme =   /* Temp. Horiz.Advection scheme selector */
(PID.TID 0000.0001)                       2
(PID.TID 0000.0001)     ;
(PID.TID 0000.0001) tempVertAdvScheme =   /* Temp. Vert. Advection scheme selector */
(PID.TID 0000.0001)                       2
(PID.TID 0000.0001)     ;
(PID.TID 0000.0001) tempMultiDimAdvec =   /* use Muti-Dim Advec method for Temp */
(PID.TID 0000.0001)                   F
(PID.TID 0000.0001)     ;
(PID.TID 0000.0001) tempAdamsBashforth =   /* use Adams-Bashforth time-stepping for Temp */
(PID.TID 0000.0001)                   T
(PID.TID 0000.0001)     ;
(PID.TID 0000.0001) saltAdvScheme =   /* Salt. Horiz.advection scheme selector */
(PID.TID 0000.0001)                       2
(PID.TID 0000.0001)     ;
(PID.TID 0000.0001) saltVertAdvScheme =   /* Salt. Vert. Advection scheme selector */
(PID.TID 0000.0001)                       2
(PID.TID 0000.0001)     ;
(PID.TID 0000.0001) saltMultiDimAdvec =   /* use Muti-Dim Advec method for Salt */
(PID.TID 0000.0001)                   F
(PID.TID 0000.0001)     ;
(PID.TID 0000.0001) saltAdamsBashforth =   /* use Adams-Bashforth time-stepping for Salt */
(PID.TID 0000.0001)                   T
(PID.TID 0000.0001)     ;
(PID.TID 0000.0001) // ===================================
(PID.TID 0000.0001) %MON fCori_max                    =   1.2500000000000E+03
(PID.TID 0000.0001) %MON fCori_min                    =   1.2500000000000E+03
(PID.TID 0000.0001) %MON fCori_mean                   =   1.2500000000000E+03
(PID.TID 0000.0001) %MON fCori_sd                     =   0.0000000000000E+00
(PID.TID 0000.0001) %MON fCoriG_max                   =   1.2500000000000E+03
(PID.TID 0000.0001) %MON fCoriG_min                   =   1.2500000000000E+03
(PID.TID 0000.0001) %MON fCoriG_mean                  =   1.2500000000000E+03
(PID.TID 0000.0001) %MON fCoriG_sd                    =   0.0000000000000E+00
(PID.TID 0000.0001) %MON fCoriCos_max                 =   0.0000000000000E+00
(PID.TID 0000.0001) %MON fCoriCos_min                 =   0.0000000000000E+00
(PID.TID 0000.0001) %MON fCoriCos_mean                =   0.0000000000000E+00
(PID.TID 0000.0001) %MON fCoriCos_sd                  =   0.0000000000000E+00
(PID.TID 0000.0001) // CG2D normalisation factor =          0.4999999999999998889776975E+00
(PID.TID 0000.0001) 
(PID.TID 0000.0001) // CG3D normalisation factor =          0.1000000000000000000000000E+02
(PID.TID 0000.0001) 
(PID.TID 0000.0001) CONFIG_CHECK: OK
(PID.TID 0000.0001) // =======================================================
(PID.TID 0000.0001) // Model configuration
(PID.TID 0000.0001) // =======================================================
(PID.TID 0000.0001) //
(PID.TID 0000.0001) // "Physical" paramters ( PARM01 in namelist )
(PID.TID 0000.0001) //
(PID.TID 0000.0001) buoyancyRelation = OCEANIC
(PID.TID 0000.0001) fluidIsAir  =  /* fluid major constituent is Air */
(PID.TID 0000.0001)                   F
(PID.TID 0000.0001)     ;
(PID.TID 0000.0001) fluidIsWater=  /* fuild major constituent is Water */
(PID.TID 0000.0001)                   T
(PID.TID 0000.0001)     ;
(PID.TID 0000.0001) usingPCoords =  /* use p (or p*) vertical coordinate */
(PID.TID 0000.0001)                   F
(PID.TID 0000.0001)     ;
(PID.TID 0000.0001) usingZCoords =  /* use z (or z*) vertical coordinate */
(PID.TID 0000.0001)                   T
(PID.TID 0000.0001)     ;
(PID.TID 0000.0001) tRef =   /* Reference temperature profile ( oC or oK ) */
(PID.TID 0000.0001)    20 @  1.000000000000000E+00              /* K =  1: 20 */
(PID.TID 0000.0001)     ;
(PID.TID 0000.0001) sRef =   /* Reference salinity profile ( ppt ) */
(PID.TID 0000.0001)    20 @  3.500000000000000E+01              /* K =  1: 20 */
(PID.TID 0000.0001)     ;
(PID.TID 0000.0001) viscAh =   /* Lateral eddy viscosity ( m^2/s ) */
(PID.TID 0000.0001)                 1.000000000000000E+00
(PID.TID 0000.0001)     ;
(PID.TID 0000.0001) viscAhMax =   /* Maximum lateral eddy viscosity ( m^2/s ) */
(PID.TID 0000.0001)                 1.000000000000000E+21
(PID.TID 0000.0001)     ;
(PID.TID 0000.0001) viscAhGrid =   /* Grid dependent lateral eddy viscosity ( non-dim. ) */
(PID.TID 0000.0001)                 0.000000000000000E+00
(PID.TID 0000.0001)     ;
(PID.TID 0000.0001) viscC2leith =   /* Leith harmonic viscosity factor ( non-dom. ) */
(PID.TID 0000.0001)                 0.000000000000000E+00
(PID.TID 0000.0001)     ;
(PID.TID 0000.0001) viscA4 =   /* Lateral biharmonic viscosity ( m^4/s ) */
(PID.TID 0000.0001)                 0.000000000000000E+00
(PID.TID 0000.0001)     ;
(PID.TID 0000.0001) viscA4Max =   /* Maximum biharmonic viscosity ( m^2/s ) */
(PID.TID 0000.0001)                 1.000000000000000E+21
(PID.TID 0000.0001)     ;
(PID.TID 0000.0001) viscA4Grid =   /* Grid dependent biharmonic viscosity ( non-dim. ) */
(PID.TID 0000.0001)                 0.000000000000000E+00
(PID.TID 0000.0001)     ;
(PID.TID 0000.0001) viscC4leith =   /* Leith biharmonic viscosity factor ( non-dom. ) */
(PID.TID 0000.0001)                 0.000000000000000E+00
(PID.TID 0000.0001)     ;
(PID.TID 0000.0001) no_slip_sides =  /* Viscous BCs: No-slip sides */
(PID.TID 0000.0001)                   F
(PID.TID 0000.0001)     ;
(PID.TID 0000.0001) viscAr =   /* Vertical eddy viscosity ( units of r^2/s ) */
(PID.TID 0000.0001)                 1.000000000000000E+00
(PID.TID 0000.0001)     ;
(PID.TID 0000.0001) no_slip_bottom =  /* Viscous BCs: No-slip bottom */
(PID.TID 0000.0001)                   F
(PID.TID 0000.0001)     ;
(PID.TID 0000.0001) diffKhT =   /* Laplacian diffusion of heat laterally ( m^2/s ) */
(PID.TID 0000.0001)                 1.000000000000000E+00
(PID.TID 0000.0001)     ;
(PID.TID 0000.0001) diffK4T =   /* Bihaarmonic diffusion of heat laterally ( m^4/s ) */
(PID.TID 0000.0001)                 0.000000000000000E+00
(PID.TID 0000.0001)     ;
(PID.TID 0000.0001) diffKhS =   /* Laplacian diffusion of salt laterally ( m^2/s ) */
(PID.TID 0000.0001)                 1.000000000000000E+00
(PID.TID 0000.0001)     ;
(PID.TID 0000.0001) diffK4S =   /* Bihaarmonic diffusion of salt laterally ( m^4/s ) */
(PID.TID 0000.0001)                 0.000000000000000E+00
(PID.TID 0000.0001)     ;
(PID.TID 0000.0001) diffKrNrT = /* vertical profile of vertical diffusion of Temp ( m^2/s )*/
(PID.TID 0000.0001)    20 @  1.000000000000000E+00              /* K =  1: 20 */
(PID.TID 0000.0001)     ;
(PID.TID 0000.0001) diffKrNrS = /* vertical profile of vertical diffusion of Salt ( m^2/s )*/
(PID.TID 0000.0001)    20 @  1.000000000000000E+00              /* K =  1: 20 */
(PID.TID 0000.0001)     ;
(PID.TID 0000.0001) diffKrBL79surf =   /* Surface diffusion for Bryan and Lewis 1979 ( m^2/s ) */
(PID.TID 0000.0001)                 0.000000000000000E+00
(PID.TID 0000.0001)     ;
(PID.TID 0000.0001) diffKrBL79deep =   /* Deep diffusion for Bryan and Lewis 1979 ( m^2/s ) */
(PID.TID 0000.0001)                 0.000000000000000E+00
(PID.TID 0000.0001)     ;
(PID.TID 0000.0001) diffKrBL79scl =   /* Depth scale for Bryan and Lewis 1979 ( m ) */
(PID.TID 0000.0001)                 2.000000000000000E+02
(PID.TID 0000.0001)     ;
(PID.TID 0000.0001) diffKrBL79Ho =   /* Turning depth for Bryan and Lewis 1979 ( m ) */
(PID.TID 0000.0001)                -2.000000000000000E+03
(PID.TID 0000.0001)     ;
(PID.TID 0000.0001)  Equation of State : eosType = LINEAR
(PID.TID 0000.0001) tAlpha =   /* Linear EOS thermal expansion coefficient ( 1/degree ) */
(PID.TID 0000.0001)                 1.000000000000000E+00
(PID.TID 0000.0001)     ;
(PID.TID 0000.0001) sBeta =   /* Linear EOS haline contraction coefficient ( 1/ppt ) */
(PID.TID 0000.0001)                 0.000000000000000E+00
(PID.TID 0000.0001)     ;
(PID.TID 0000.0001) rhonil =   /* Reference density ( kg/m^3 ) */
(PID.TID 0000.0001)                 1.000000000000000E+00
(PID.TID 0000.0001)     ;
(PID.TID 0000.0001) rhoConst =   /* Reference density ( kg/m^3 ) */
(PID.TID 0000.0001)                 1.000000000000000E+00
(PID.TID 0000.0001)     ;
(PID.TID 0000.0001) rhoConstFresh =   /* Reference density ( kg/m^3 ) */
(PID.TID 0000.0001)                 1.000000000000000E+00
(PID.TID 0000.0001)     ;
(PID.TID 0000.0001) gravity =   /* Gravitational acceleration ( m/s^2 ) */
(PID.TID 0000.0001)                 1.400000000000000E+08
(PID.TID 0000.0001)     ;
(PID.TID 0000.0001) gBaro =   /* Barotropic gravity ( m/s^2 ) */
(PID.TID 0000.0001)                 1.400000000000000E+08
(PID.TID 0000.0001)     ;
(PID.TID 0000.0001) rotationPeriod =   /* Rotation Period ( s ) */
(PID.TID 0000.0001)                 8.640000000000000E+04
(PID.TID 0000.0001)     ;
(PID.TID 0000.0001) omega =   /* Angular velocity ( rad/s ) */
(PID.TID 0000.0001)                 7.272205216643040E-05
(PID.TID 0000.0001)     ;
(PID.TID 0000.0001) f0 =   /* Reference coriolis parameter ( 1/s ) */
(PID.TID 0000.0001)                 1.250000000000000E+03
(PID.TID 0000.0001)     ;
(PID.TID 0000.0001) beta =   /* Beta ( 1/(m.s) ) */
(PID.TID 0000.0001)                 0.000000000000000E+00
(PID.TID 0000.0001)     ;
(PID.TID 0000.0001) freeSurfFac =   /* Implicit free surface factor */
(PID.TID 0000.0001)                 1.000000000000000E+00
(PID.TID 0000.0001)     ;
(PID.TID 0000.0001) implicitFreeSurface =   /* Implicit free surface on/off flag */
(PID.TID 0000.0001)                   T
(PID.TID 0000.0001)     ;
(PID.TID 0000.0001) rigidLid =   /* Rigid lid on/off flag */
(PID.TID 0000.0001)                   F
(PID.TID 0000.0001)     ;
(PID.TID 0000.0001) implicSurfPress =   /* Surface Pressure implicit factor (0-1)*/
(PID.TID 0000.0001)                 1.000000000000000E+00
(PID.TID 0000.0001)     ;
(PID.TID 0000.0001) implicDiv2Dflow =   /* Barot. Flow Div. implicit factor (0-1)*/
(PID.TID 0000.0001)                 1.000000000000000E+00
(PID.TID 0000.0001)     ;
(PID.TID 0000.0001) exactConserv =   /* Exact Volume Conservation on/off flag*/
(PID.TID 0000.0001)                   F
(PID.TID 0000.0001)     ;
(PID.TID 0000.0001) uniformLin_PhiSurf =   /* use uniform Bo_surf on/off flag*/
(PID.TID 0000.0001)                   T
(PID.TID 0000.0001)     ;
(PID.TID 0000.0001) nonlinFreeSurf =   /* Non-linear Free Surf. options (-1,0,1,2,3)*/
(PID.TID 0000.0001)                       0
(PID.TID 0000.0001)     ;
(PID.TID 0000.0001)      -1,0= Off ; 1,2,3= On, 2=+rescale gU,gV, 3=+update cg2d solv.
(PID.TID 0000.0001) hFacInf =   /* lower threshold for hFac (nonlinFreeSurf only)*/
(PID.TID 0000.0001)                 2.000000000000000E-01
(PID.TID 0000.0001)     ;
(PID.TID 0000.0001) hFacSup =   /* upper threshold for hFac (nonlinFreeSurf only)*/
(PID.TID 0000.0001)                 2.000000000000000E+00
(PID.TID 0000.0001)     ;
(PID.TID 0000.0001) select_rStar =   /* r* Coordinate options (not yet implemented)*/
(PID.TID 0000.0001)                       0
(PID.TID 0000.0001)     ;
(PID.TID 0000.0001) useRealFreshWaterFlux =   /* Real Fresh Water Flux on/off flag*/
(PID.TID 0000.0001)                   F
(PID.TID 0000.0001)     ;
(PID.TID 0000.0001) convertFW2Salt = /* convert F.W. Flux to Salt Flux (-1=use local S)(ppt)*/
(PID.TID 0000.0001)                 3.500000000000000E+01
(PID.TID 0000.0001)     ;
(PID.TID 0000.0001) nonHydrostatic =  /* Non-Hydrostatic on/off flag */
(PID.TID 0000.0001)                   T
(PID.TID 0000.0001)     ;
(PID.TID 0000.0001) momStepping =  /* Momentum equation on/off flag */
(PID.TID 0000.0001)                   T
(PID.TID 0000.0001)     ;
(PID.TID 0000.0001) momAdvection =  /* Momentum advection on/off flag */
(PID.TID 0000.0001)                   T
(PID.TID 0000.0001)     ;
(PID.TID 0000.0001) momViscosity =  /* Momentum viscosity on/off flag */
(PID.TID 0000.0001)                   T
(PID.TID 0000.0001)     ;
(PID.TID 0000.0001) momImplVertAdv =/* Momentum implicit vert. advection on/off*/
(PID.TID 0000.0001)                   F
(PID.TID 0000.0001)     ;
(PID.TID 0000.0001) implicitViscosity = /* Implicit viscosity on/off flag */
(PID.TID 0000.0001)                   F
(PID.TID 0000.0001)     ;
(PID.TID 0000.0001) useCoriolis =  /* Coriolis on/off flag */
(PID.TID 0000.0001)                   T
(PID.TID 0000.0001)     ;
(PID.TID 0000.0001) useCDscheme =  /* CD scheme on/off flag */
(PID.TID 0000.0001)                   F
(PID.TID 0000.0001)     ;
(PID.TID 0000.0001) useJamartWetPoints= /* Coriolis WetPoints method flag */
(PID.TID 0000.0001)                   F
(PID.TID 0000.0001)     ;
(PID.TID 0000.0001) useJamartMomAdv= /* V.I. Non-linear terms Jamart flag */
(PID.TID 0000.0001)                   F
(PID.TID 0000.0001)     ;
(PID.TID 0000.0001) SadournyCoriolis= /* Sadourny Coriolis discr. flag */
(PID.TID 0000.0001)                   F
(PID.TID 0000.0001)     ;
(PID.TID 0000.0001) upwindVorticity= /* Upwind bias vorticity flag */
(PID.TID 0000.0001)                   F
(PID.TID 0000.0001)     ;
(PID.TID 0000.0001) useAbsVorticity= /* Work with f+zeta in Coriolis */
(PID.TID 0000.0001)                   F
(PID.TID 0000.0001)     ;
(PID.TID 0000.0001) highOrderVorticity= /* High order interp. of vort. flag */
(PID.TID 0000.0001)                   F
(PID.TID 0000.0001)     ;
(PID.TID 0000.0001) momForcing =  /* Momentum forcing on/off flag */
(PID.TID 0000.0001)                   T
(PID.TID 0000.0001)     ;
(PID.TID 0000.0001) momPressureForcing =  /* Momentum pressure term on/off flag */
(PID.TID 0000.0001)                   T
(PID.TID 0000.0001)     ;
(PID.TID 0000.0001) staggerTimeStep =   /* Stagger time stepping on/off flag */
(PID.TID 0000.0001)                   F
(PID.TID 0000.0001)     ;
(PID.TID 0000.0001) multiDimAdvection =   /* enable/disable Multi-Dim Advection */
(PID.TID 0000.0001)                   T
(PID.TID 0000.0001)     ;
(PID.TID 0000.0001) useMultiDimAdvec =   /* Multi-Dim Advection is/is-not used */
(PID.TID 0000.0001)                   F
(PID.TID 0000.0001)     ;
(PID.TID 0000.0001) implicitDiffusion =/* Implicit Diffusion on/off flag */
(PID.TID 0000.0001)                   F
(PID.TID 0000.0001)     ;
(PID.TID 0000.0001) tempStepping =  /* Temperature equation on/off flag */
(PID.TID 0000.0001)                   T
(PID.TID 0000.0001)     ;
(PID.TID 0000.0001) tempAdvection=  /* Temperature advection on/off flag */
(PID.TID 0000.0001)                   T
(PID.TID 0000.0001)     ;
(PID.TID 0000.0001) tempImplVertAdv =/* Temp. implicit vert. advection on/off */
(PID.TID 0000.0001)                   F
(PID.TID 0000.0001)     ;
(PID.TID 0000.0001) tempForcing  =  /* Temperature forcing on/off flag */
(PID.TID 0000.0001)                   T
(PID.TID 0000.0001)     ;
(PID.TID 0000.0001) saltStepping =  /* Salinity equation on/off flag */
(PID.TID 0000.0001)                   T
(PID.TID 0000.0001)     ;
(PID.TID 0000.0001) saltAdvection=  /* Salinity advection on/off flag */
(PID.TID 0000.0001)                   T
(PID.TID 0000.0001)     ;
(PID.TID 0000.0001) saltImplVertAdv =/* Sali. implicit vert. advection on/off */
(PID.TID 0000.0001)                   F
(PID.TID 0000.0001)     ;
(PID.TID 0000.0001) saltForcing  =  /* Salinity forcing on/off flag */
(PID.TID 0000.0001)                   T
(PID.TID 0000.0001)     ;
(PID.TID 0000.0001) //
(PID.TID 0000.0001) // Elliptic solver(s) paramters ( PARM02 in namelist )
(PID.TID 0000.0001) //
(PID.TID 0000.0001) cg2dMaxIters =   /* Upper limit on 2d con. grad iterations  */
(PID.TID 0000.0001)                    1000
(PID.TID 0000.0001)     ;
(PID.TID 0000.0001) cg2dChkResFreq =   /* 2d con. grad convergence test frequency */
(PID.TID 0000.0001)                       1
(PID.TID 0000.0001)     ;
(PID.TID 0000.0001) cg2dTargetResidual =   /* 2d con. grad target residual  */
(PID.TID 0000.0001)                 1.000000000000000E-09
(PID.TID 0000.0001)     ;
(PID.TID 0000.0001) cg2dTargetResWunit =   /* CG2d target residual [W units] */
(PID.TID 0000.0001)                -1.000000000000000E+00
(PID.TID 0000.0001)     ;
(PID.TID 0000.0001) cg2dPreCondFreq =   /* Freq. for updating cg2d preconditioner */
(PID.TID 0000.0001)                       1
(PID.TID 0000.0001)     ;
(PID.TID 0000.0001) //
(PID.TID 0000.0001) // Time stepping paramters ( PARM03 in namelist )
(PID.TID 0000.0001) //
(PID.TID 0000.0001) nIter0 =   /* Base timestep number  */
(PID.TID 0000.0001)                       0
(PID.TID 0000.0001)     ;
(PID.TID 0000.0001) nTimeSteps =   /* Number of timesteps */
(PID.TID 0000.0001)                      10
(PID.TID 0000.0001)     ;
(PID.TID 0000.0001) deltatTmom =   /* Momentum equation timestep ( s ) */
(PID.TID 0000.0001)                 2.000000000000000E-04
(PID.TID 0000.0001)     ;
(PID.TID 0000.0001) deltaTfreesurf =   /* FreeSurface equation timestep ( s ) */
(PID.TID 0000.0001)                 2.000000000000000E-04
(PID.TID 0000.0001)     ;
(PID.TID 0000.0001) dTtracerLev =   /* Tracer equation timestep ( s ) */
(PID.TID 0000.0001)    20 @  2.000000000000000E-04              /* K =  1: 20 */
(PID.TID 0000.0001)     ;
(PID.TID 0000.0001) deltatTClock  =   /* Model clock timestep ( s ) */
(PID.TID 0000.0001)                 2.000000000000000E-04
(PID.TID 0000.0001)     ;
(PID.TID 0000.0001) cAdjFreq =   /* Convective adjustment interval ( s ) */
(PID.TID 0000.0001)                 0.000000000000000E+00
(PID.TID 0000.0001)     ;
(PID.TID 0000.0001) forcing_In_AB =   /* put T,S Forcing in Adams-Bash. stepping */
(PID.TID 0000.0001)                   T
(PID.TID 0000.0001)     ;
(PID.TID 0000.0001) abeps =   /* Adams-Bashforth stabilizing weight */
(PID.TID 0000.0001)                 1.000000000000000E-01
(PID.TID 0000.0001)     ;
(PID.TID 0000.0001) startTime =   /* Run start time ( s ). */
(PID.TID 0000.0001)                 0.000000000000000E+00
(PID.TID 0000.0001)     ;
(PID.TID 0000.0001) endTime =   /* Integration ending time ( s ). */
(PID.TID 0000.0001)                 2.000000000000000E-03
(PID.TID 0000.0001)     ;
(PID.TID 0000.0001) pChkPtFreq =   /* Permanent restart/checkpoint file interval ( s ). */
(PID.TID 0000.0001)                 0.000000000000000E+00
(PID.TID 0000.0001)     ;
(PID.TID 0000.0001) chkPtFreq =   /* Rolling restart/checkpoint file interval ( s ). */
(PID.TID 0000.0001)                 0.000000000000000E+00
(PID.TID 0000.0001)     ;
(PID.TID 0000.0001) pickup_write_mdsio =   /* Model IO flag. */
(PID.TID 0000.0001)                   T
(PID.TID 0000.0001)     ;
(PID.TID 0000.0001) pickup_read_mdsio =   /* Model IO flag. */
(PID.TID 0000.0001)                   T
(PID.TID 0000.0001)     ;
(PID.TID 0000.0001) pickup_write_immed =   /* Model IO flag. */
(PID.TID 0000.0001)                   F
(PID.TID 0000.0001)     ;
(PID.TID 0000.0001) dumpFreq =   /* Model state write out interval ( s ). */
(PID.TID 0000.0001)                 1.000000000000000E-01
(PID.TID 0000.0001)     ;
(PID.TID 0000.0001) snapshot_mdsio =   /* Model IO flag. */
(PID.TID 0000.0001)                   T
(PID.TID 0000.0001)     ;
(PID.TID 0000.0001) monitorFreq =   /* Monitor output interval ( s ). */
(PID.TID 0000.0001)                 1.000000000000000E-05
(PID.TID 0000.0001)     ;
(PID.TID 0000.0001) monitor_stdio =   /* Model IO flag. */
(PID.TID 0000.0001)                   T
(PID.TID 0000.0001)     ;
(PID.TID 0000.0001) externForcingPeriod =   /* forcing period (s) */
(PID.TID 0000.0001)                 0.000000000000000E+00
(PID.TID 0000.0001)     ;
(PID.TID 0000.0001) externForcingCycle =   /* period of the cyle (s). */
(PID.TID 0000.0001)                 0.000000000000000E+00
(PID.TID 0000.0001)     ;
(PID.TID 0000.0001) tauThetaClimRelax =   /* relaxation time scale (s) */
(PID.TID 0000.0001)                 0.000000000000000E+00
(PID.TID 0000.0001)     ;
(PID.TID 0000.0001) tauSaltClimRelax =   /* relaxation time scale (s) */
(PID.TID 0000.0001)                 0.000000000000000E+00
(PID.TID 0000.0001)     ;
(PID.TID 0000.0001) latBandClimRelax =   /* max. Lat. where relaxation */
(PID.TID 0000.0001)                 2.560000000000000E+02
(PID.TID 0000.0001)     ;
(PID.TID 0000.0001) //
(PID.TID 0000.0001) // Gridding paramters ( PARM04 in namelist )
(PID.TID 0000.0001) //
(PID.TID 0000.0001) usingCartesianGrid =   /* Cartesian coordinates flag ( True / False ) */
(PID.TID 0000.0001)                   T
(PID.TID 0000.0001)     ;
(PID.TID 0000.0001) usingSphericalPolarGrid =   /* Spherical coordinates flag ( True / False ) */
(PID.TID 0000.0001)                   F
(PID.TID 0000.0001)     ;
(PID.TID 0000.0001) usingCylindricalGrid =   /* Spherical coordinates flag ( True / False ) */
(PID.TID 0000.0001)                   F
(PID.TID 0000.0001)     ;
(PID.TID 0000.0001) groundAtK1 =   /* Lower Boundary (ground) at the surface(k=1) ( T / F ) */
(PID.TID 0000.0001)                   F
(PID.TID 0000.0001)     ;
(PID.TID 0000.0001) Ro_SeaLevel =   /* r(1) ( units of r ) */
(PID.TID 0000.0001)                 0.000000000000000E+00
(PID.TID 0000.0001)     ;
(PID.TID 0000.0001) rkFac =   /* minus Vertical index orientation  */
(PID.TID 0000.0001)                 1.000000000000000E+00
(PID.TID 0000.0001)     ;
(PID.TID 0000.0001) horiVertRatio =   /* Ratio on units : Horiz - Vertical */
(PID.TID 0000.0001)                 1.000000000000000E+00
(PID.TID 0000.0001)     ;
(PID.TID 0000.0001) drC =   /* C spacing ( units of r ) */
(PID.TID 0000.0001)                 5.000000000000000E-02,      /* K =  1 */
(PID.TID 0000.0001)    19 @  1.000000000000000E-01              /* K =  2: 20 */
(PID.TID 0000.0001)     ;
(PID.TID 0000.0001) drF =   /* W spacing ( units of r ) */
(PID.TID 0000.0001)    20 @  1.000000000000000E-01              /* K =  1: 20 */
(PID.TID 0000.0001)     ;
(PID.TID 0000.0001) delX =   /* U spacing ( m - cartesian, degrees - spherical ) */
(PID.TID 0000.0001)    64 @  6.250000000000000E-02              /* I =  1: 64 */
(PID.TID 0000.0001)     ;
(PID.TID 0000.0001) delY =   /* V spacing ( m - cartesian, degrees - spherical ) */
(PID.TID 0000.0001)    64 @  6.250000000000000E-02              /* J =  1: 64 */
(PID.TID 0000.0001)     ;
(PID.TID 0000.0001) phiMin =    /* South edge (ignored - cartesian, degrees - spherical ) */
(PID.TID 0000.0001)                 0.000000000000000E+00
(PID.TID 0000.0001)     ;
(PID.TID 0000.0001) thetaMin =    /* West edge ( ignored - cartesian, degrees - spherical ) */
(PID.TID 0000.0001)                 0.000000000000000E+00
(PID.TID 0000.0001)     ;
(PID.TID 0000.0001) rSphere =    /* Radius ( ignored - cartesian, m - spherical ) */
(PID.TID 0000.0001)                 6.370000000000000E+06
(PID.TID 0000.0001)     ;
(PID.TID 0000.0001) xcoord =   /* P-point X coord ( m - cartesian, degrees - spherical ) */
(PID.TID 0000.0001)                 3.125000000000000E-02,      /* I =  1 */
(PID.TID 0000.0001)                 9.375000000000000E-02,      /* I =  2 */
(PID.TID 0000.0001)                 1.562500000000000E-01,      /* I =  3 */
(PID.TID 0000.0001)                 2.187500000000000E-01,      /* I =  4 */
(PID.TID 0000.0001)                 2.812500000000000E-01,      /* I =  5 */
(PID.TID 0000.0001)                 3.437500000000000E-01,      /* I =  6 */
(PID.TID 0000.0001)                 4.062500000000000E-01,      /* I =  7 */
(PID.TID 0000.0001)                 4.687500000000000E-01,      /* I =  8 */
(PID.TID 0000.0001)                 5.312500000000000E-01,      /* I =  9 */
(PID.TID 0000.0001)                 5.937500000000000E-01,      /* I = 10 */
(PID.TID 0000.0001)                 6.562500000000000E-01,      /* I = 11 */
(PID.TID 0000.0001)                 7.187500000000000E-01,      /* I = 12 */
(PID.TID 0000.0001)                 7.812500000000000E-01,      /* I = 13 */
(PID.TID 0000.0001)                 8.437500000000000E-01,      /* I = 14 */
(PID.TID 0000.0001)                 9.062500000000000E-01,      /* I = 15 */
(PID.TID 0000.0001)                 9.687500000000000E-01,      /* I = 16 */
(PID.TID 0000.0001)                 1.031250000000000E+00,      /* I = 17 */
(PID.TID 0000.0001)                 1.093750000000000E+00,      /* I = 18 */
(PID.TID 0000.0001)                 1.156250000000000E+00,      /* I = 19 */
(PID.TID 0000.0001)                 1.218750000000000E+00,      /* I = 20 */
(PID.TID 0000.0001)                 1.281250000000000E+00,      /* I = 21 */
(PID.TID 0000.0001)                 1.343750000000000E+00,      /* I = 22 */
(PID.TID 0000.0001)                 1.406250000000000E+00,      /* I = 23 */
(PID.TID 0000.0001)                 1.468750000000000E+00,      /* I = 24 */
(PID.TID 0000.0001)                 1.531250000000000E+00,      /* I = 25 */
(PID.TID 0000.0001)                 1.593750000000000E+00,      /* I = 26 */
(PID.TID 0000.0001)                 1.656250000000000E+00,      /* I = 27 */
(PID.TID 0000.0001)                 1.718750000000000E+00,      /* I = 28 */
(PID.TID 0000.0001)                 1.781250000000000E+00,      /* I = 29 */
(PID.TID 0000.0001)                 1.843750000000000E+00,      /* I = 30 */
(PID.TID 0000.0001)                 1.906250000000000E+00,      /* I = 31 */
(PID.TID 0000.0001)                 1.968750000000000E+00,      /* I = 32 */
(PID.TID 0000.0001)                 2.031250000000000E+00,      /* I = 33 */
(PID.TID 0000.0001)                 2.093750000000000E+00,      /* I = 34 */
(PID.TID 0000.0001)                 2.156250000000000E+00,      /* I = 35 */
(PID.TID 0000.0001)                 2.218750000000000E+00,      /* I = 36 */
(PID.TID 0000.0001)                 2.281250000000000E+00,      /* I = 37 */
(PID.TID 0000.0001)                 2.343750000000000E+00,      /* I = 38 */
(PID.TID 0000.0001)                 2.406250000000000E+00,      /* I = 39 */
(PID.TID 0000.0001)                 2.468750000000000E+00,      /* I = 40 */
(PID.TID 0000.0001)                 2.531250000000000E+00,      /* I = 41 */
(PID.TID 0000.0001)                 2.593750000000000E+00,      /* I = 42 */
(PID.TID 0000.0001)                 2.656250000000000E+00,      /* I = 43 */
(PID.TID 0000.0001)                 2.718750000000000E+00,      /* I = 44 */
(PID.TID 0000.0001)                 2.781250000000000E+00,      /* I = 45 */
(PID.TID 0000.0001)                 2.843750000000000E+00,      /* I = 46 */
(PID.TID 0000.0001)                 2.906250000000000E+00,      /* I = 47 */
(PID.TID 0000.0001)                 2.968750000000000E+00,      /* I = 48 */
(PID.TID 0000.0001)                 3.031250000000000E+00,      /* I = 49 */
(PID.TID 0000.0001)                 3.093750000000000E+00,      /* I = 50 */
(PID.TID 0000.0001)                 3.156250000000000E+00,      /* I = 51 */
(PID.TID 0000.0001)                 3.218750000000000E+00,      /* I = 52 */
(PID.TID 0000.0001)                 3.281250000000000E+00,      /* I = 53 */
(PID.TID 0000.0001)                 3.343750000000000E+00,      /* I = 54 */
(PID.TID 0000.0001)                 3.406250000000000E+00,      /* I = 55 */
(PID.TID 0000.0001)                 3.468750000000000E+00,      /* I = 56 */
(PID.TID 0000.0001)                 3.531250000000000E+00,      /* I = 57 */
(PID.TID 0000.0001)                 3.593750000000000E+00,      /* I = 58 */
(PID.TID 0000.0001)                 3.656250000000000E+00,      /* I = 59 */
(PID.TID 0000.0001)                 3.718750000000000E+00,      /* I = 60 */
(PID.TID 0000.0001)                 3.781250000000000E+00,      /* I = 61 */
(PID.TID 0000.0001)                 3.843750000000000E+00,      /* I = 62 */
(PID.TID 0000.0001)                 3.906250000000000E+00,      /* I = 63 */
(PID.TID 0000.0001)                 3.968750000000000E+00       /* I = 64 */
(PID.TID 0000.0001)     ;
(PID.TID 0000.0001) ycoord =   /* P-point Y coord ( m - cartesian, degrees - spherical ) */
(PID.TID 0000.0001)                 3.125000000000000E-02,      /* J =  1 */
(PID.TID 0000.0001)                 9.375000000000000E-02,      /* J =  2 */
(PID.TID 0000.0001)                 1.562500000000000E-01,      /* J =  3 */
(PID.TID 0000.0001)                 2.187500000000000E-01,      /* J =  4 */
(PID.TID 0000.0001)                 2.812500000000000E-01,      /* J =  5 */
(PID.TID 0000.0001)                 3.437500000000000E-01,      /* J =  6 */
(PID.TID 0000.0001)                 4.062500000000000E-01,      /* J =  7 */
(PID.TID 0000.0001)                 4.687500000000000E-01,      /* J =  8 */
(PID.TID 0000.0001)                 5.312500000000000E-01,      /* J =  9 */
(PID.TID 0000.0001)                 5.937500000000000E-01,      /* J = 10 */
(PID.TID 0000.0001)                 6.562500000000000E-01,      /* J = 11 */
(PID.TID 0000.0001)                 7.187500000000000E-01,      /* J = 12 */
(PID.TID 0000.0001)                 7.812500000000000E-01,      /* J = 13 */
(PID.TID 0000.0001)                 8.437500000000000E-01,      /* J = 14 */
(PID.TID 0000.0001)                 9.062500000000000E-01,      /* J = 15 */
(PID.TID 0000.0001)                 9.687500000000000E-01,      /* J = 16 */
(PID.TID 0000.0001)                 1.031250000000000E+00,      /* J = 17 */
(PID.TID 0000.0001)                 1.093750000000000E+00,      /* J = 18 */
(PID.TID 0000.0001)                 1.156250000000000E+00,      /* J = 19 */
(PID.TID 0000.0001)                 1.218750000000000E+00,      /* J = 20 */
(PID.TID 0000.0001)                 1.281250000000000E+00,      /* J = 21 */
(PID.TID 0000.0001)                 1.343750000000000E+00,      /* J = 22 */
(PID.TID 0000.0001)                 1.406250000000000E+00,      /* J = 23 */
(PID.TID 0000.0001)                 1.468750000000000E+00,      /* J = 24 */
(PID.TID 0000.0001)                 1.531250000000000E+00,      /* J = 25 */
(PID.TID 0000.0001)                 1.593750000000000E+00,      /* J = 26 */
(PID.TID 0000.0001)                 1.656250000000000E+00,      /* J = 27 */
(PID.TID 0000.0001)                 1.718750000000000E+00,      /* J = 28 */
(PID.TID 0000.0001)                 1.781250000000000E+00,      /* J = 29 */
(PID.TID 0000.0001)                 1.843750000000000E+00,      /* J = 30 */
(PID.TID 0000.0001)                 1.906250000000000E+00,      /* J = 31 */
(PID.TID 0000.0001)                 1.968750000000000E+00,      /* J = 32 */
(PID.TID 0000.0001)                 2.031250000000000E+00,      /* J = 33 */
(PID.TID 0000.0001)                 2.093750000000000E+00,      /* J = 34 */
(PID.TID 0000.0001)                 2.156250000000000E+00,      /* J = 35 */
(PID.TID 0000.0001)                 2.218750000000000E+00,      /* J = 36 */
(PID.TID 0000.0001)                 2.281250000000000E+00,      /* J = 37 */
(PID.TID 0000.0001)                 2.343750000000000E+00,      /* J = 38 */
(PID.TID 0000.0001)                 2.406250000000000E+00,      /* J = 39 */
(PID.TID 0000.0001)                 2.468750000000000E+00,      /* J = 40 */
(PID.TID 0000.0001)                 2.531250000000000E+00,      /* J = 41 */
(PID.TID 0000.0001)                 2.593750000000000E+00,      /* J = 42 */
(PID.TID 0000.0001)                 2.656250000000000E+00,      /* J = 43 */
(PID.TID 0000.0001)                 2.718750000000000E+00,      /* J = 44 */
(PID.TID 0000.0001)                 2.781250000000000E+00,      /* J = 45 */
(PID.TID 0000.0001)                 2.843750000000000E+00,      /* J = 46 */
(PID.TID 0000.0001)                 2.906250000000000E+00,      /* J = 47 */
(PID.TID 0000.0001)                 2.968750000000000E+00,      /* J = 48 */
(PID.TID 0000.0001)                 3.031250000000000E+00,      /* J = 49 */
(PID.TID 0000.0001)                 3.093750000000000E+00,      /* J = 50 */
(PID.TID 0000.0001)                 3.156250000000000E+00,      /* J = 51 */
(PID.TID 0000.0001)                 3.218750000000000E+00,      /* J = 52 */
(PID.TID 0000.0001)                 3.281250000000000E+00,      /* J = 53 */
(PID.TID 0000.0001)                 3.343750000000000E+00,      /* J = 54 */
(PID.TID 0000.0001)                 3.406250000000000E+00,      /* J = 55 */
(PID.TID 0000.0001)                 3.468750000000000E+00,      /* J = 56 */
(PID.TID 0000.0001)                 3.531250000000000E+00,      /* J = 57 */
(PID.TID 0000.0001)                 3.593750000000000E+00,      /* J = 58 */
(PID.TID 0000.0001)                 3.656250000000000E+00,      /* J = 59 */
(PID.TID 0000.0001)                 3.718750000000000E+00,      /* J = 60 */
(PID.TID 0000.0001)                 3.781250000000000E+00,      /* J = 61 */
(PID.TID 0000.0001)                 3.843750000000000E+00,      /* J = 62 */
(PID.TID 0000.0001)                 3.906250000000000E+00,      /* J = 63 */
(PID.TID 0000.0001)                 3.968750000000000E+00       /* J = 64 */
(PID.TID 0000.0001)     ;
(PID.TID 0000.0001) rcoord =   /* P-point R coordinate (  units of r ) */
(PID.TID 0000.0001)                -5.000000000000000E-02,      /* K =  1 */
(PID.TID 0000.0001)                -1.500000000000000E-01,      /* K =  2 */
(PID.TID 0000.0001)                -2.500000000000000E-01,      /* K =  3 */
(PID.TID 0000.0001)                -3.500000000000000E-01,      /* K =  4 */
(PID.TID 0000.0001)                -4.500000000000000E-01,      /* K =  5 */
(PID.TID 0000.0001)                -5.499999999999999E-01,      /* K =  6 */
(PID.TID 0000.0001)                -6.499999999999999E-01,      /* K =  7 */
(PID.TID 0000.0001)                -7.499999999999999E-01,      /* K =  8 */
(PID.TID 0000.0001)                -8.499999999999999E-01,      /* K =  9 */
(PID.TID 0000.0001)                -9.499999999999998E-01,      /* K = 10 */
(PID.TID 0000.0001)                -1.050000000000000E+00,      /* K = 11 */
(PID.TID 0000.0001)                -1.150000000000000E+00,      /* K = 12 */
(PID.TID 0000.0001)                -1.250000000000000E+00,      /* K = 13 */
(PID.TID 0000.0001)                -1.350000000000000E+00,      /* K = 14 */
(PID.TID 0000.0001)                -1.450000000000000E+00,      /* K = 15 */
(PID.TID 0000.0001)                -1.550000000000000E+00,      /* K = 16 */
(PID.TID 0000.0001)                -1.650000000000000E+00,      /* K = 17 */
(PID.TID 0000.0001)                -1.750000000000000E+00,      /* K = 18 */
(PID.TID 0000.0001)                -1.850000000000001E+00,      /* K = 19 */
(PID.TID 0000.0001)                -1.950000000000001E+00       /* K = 20 */
(PID.TID 0000.0001)     ;
(PID.TID 0000.0001) rF =   /* W-Interf. R coordinate (  units of r ) */
(PID.TID 0000.0001)                 0.000000000000000E+00,      /* K =  1 */
(PID.TID 0000.0001)                -1.000000000000000E-01,      /* K =  2 */
(PID.TID 0000.0001)                -2.000000000000000E-01,      /* K =  3 */
(PID.TID 0000.0001)                -3.000000000000000E-01,      /* K =  4 */
(PID.TID 0000.0001)                -4.000000000000000E-01,      /* K =  5 */
(PID.TID 0000.0001)                -5.000000000000000E-01,      /* K =  6 */
(PID.TID 0000.0001)                -6.000000000000000E-01,      /* K =  7 */
(PID.TID 0000.0001)                -7.000000000000000E-01,      /* K =  8 */
(PID.TID 0000.0001)                -7.999999999999999E-01,      /* K =  9 */
(PID.TID 0000.0001)                -8.999999999999999E-01,      /* K = 10 */
(PID.TID 0000.0001)                -9.999999999999999E-01,      /* K = 11 */
(PID.TID 0000.0001)                -1.100000000000000E+00,      /* K = 12 */
(PID.TID 0000.0001)                -1.200000000000000E+00,      /* K = 13 */
(PID.TID 0000.0001)                -1.300000000000000E+00,      /* K = 14 */
(PID.TID 0000.0001)                -1.400000000000000E+00,      /* K = 15 */
(PID.TID 0000.0001)                -1.500000000000000E+00,      /* K = 16 */
(PID.TID 0000.0001)                -1.600000000000000E+00,      /* K = 17 */
(PID.TID 0000.0001)                -1.700000000000000E+00,      /* K = 18 */
(PID.TID 0000.0001)                -1.800000000000000E+00,      /* K = 19 */
(PID.TID 0000.0001)                -1.900000000000001E+00,      /* K = 20 */
(PID.TID 0000.0001)                -2.000000000000000E+00       /* K = 21 */
(PID.TID 0000.0001)     ;
(PID.TID 0000.0001) dxF =  /* dxF(:,1,:,1) ( m - cartesian, degrees - spherical ) */
(PID.TID 0000.0001)    64 @  6.250000000000000E-02              /* I =  1: 64 */
(PID.TID 0000.0001)     ;
(PID.TID 0000.0001) dxF =  /* dxF(1,:,1,:) ( m - cartesian, degrees - spherical ) */
(PID.TID 0000.0001)    64 @  6.250000000000000E-02              /* J =  1: 64 */
(PID.TID 0000.0001)     ;
(PID.TID 0000.0001) dyF =  /* dyF(:,1,:,1) ( m - cartesian, degrees - spherical ) */
(PID.TID 0000.0001)    64 @  6.250000000000000E-02              /* I =  1: 64 */
(PID.TID 0000.0001)     ;
(PID.TID 0000.0001) dyF =  /* dyF(1,:,1,:) ( m - cartesian, degrees - spherical ) */
(PID.TID 0000.0001)    64 @  6.250000000000000E-02              /* J =  1: 64 */
(PID.TID 0000.0001)     ;
(PID.TID 0000.0001) dxG =  /* dxG(:,1,:,1) ( m - cartesian, degrees - spherical ) */
(PID.TID 0000.0001)    64 @  6.250000000000000E-02              /* I =  1: 64 */
(PID.TID 0000.0001)     ;
(PID.TID 0000.0001) dxG =  /* dxG(1,:,1,:) ( m - cartesian, degrees - spherical ) */
(PID.TID 0000.0001)    64 @  6.250000000000000E-02              /* J =  1: 64 */
(PID.TID 0000.0001)     ;
(PID.TID 0000.0001) dyG =  /* dyG(:,1,:,1) ( m - cartesian, degrees - spherical ) */
(PID.TID 0000.0001)    64 @  6.250000000000000E-02              /* I =  1: 64 */
(PID.TID 0000.0001)     ;
(PID.TID 0000.0001) dyG =  /* dyG(1,:,1,:) ( m - cartesian, degrees - spherical ) */
(PID.TID 0000.0001)    64 @  6.250000000000000E-02              /* J =  1: 64 */
(PID.TID 0000.0001)     ;
(PID.TID 0000.0001) dxC =  /* dxC(:,1,:,1) ( m - cartesian, degrees - spherical ) */
(PID.TID 0000.0001)    64 @  6.250000000000000E-02              /* I =  1: 64 */
(PID.TID 0000.0001)     ;
(PID.TID 0000.0001) dxC =  /* dxC(1,:,1,:) ( m - cartesian, degrees - spherical ) */
(PID.TID 0000.0001)    64 @  6.250000000000000E-02              /* J =  1: 64 */
(PID.TID 0000.0001)     ;
(PID.TID 0000.0001) dyC =  /* dyC(:,1,:,1) ( m - cartesian, degrees - spherical ) */
(PID.TID 0000.0001)    64 @  6.250000000000000E-02              /* I =  1: 64 */
(PID.TID 0000.0001)     ;
(PID.TID 0000.0001) dyC =  /* dyC(1,:,1,:) ( m - cartesian, degrees - spherical ) */
(PID.TID 0000.0001)    64 @  6.250000000000000E-02              /* J =  1: 64 */
(PID.TID 0000.0001)     ;
(PID.TID 0000.0001) dxV =  /* dxV(:,1,:,1) ( m - cartesian, degrees - spherical ) */
(PID.TID 0000.0001)    64 @  6.250000000000000E-02              /* I =  1: 64 */
(PID.TID 0000.0001)     ;
(PID.TID 0000.0001) dxV =  /* dxV(1,:,1,:) ( m - cartesian, degrees - spherical ) */
(PID.TID 0000.0001)    64 @  6.250000000000000E-02              /* J =  1: 64 */
(PID.TID 0000.0001)     ;
(PID.TID 0000.0001) dyU =  /* dyU(:,1,:,1) ( m - cartesian, degrees - spherical ) */
(PID.TID 0000.0001)    64 @  6.250000000000000E-02              /* I =  1: 64 */
(PID.TID 0000.0001)     ;
(PID.TID 0000.0001) dyU =  /* dyU(1,:,1,:) ( m - cartesian, degrees - spherical ) */
(PID.TID 0000.0001)    64 @  6.250000000000000E-02              /* J =  1: 64 */
(PID.TID 0000.0001)     ;
(PID.TID 0000.0001) rA =  /* rA(:,1,:,1) ( m - cartesian, degrees - spherical ) */
(PID.TID 0000.0001)    64 @  3.906250000000000E-03              /* I =  1: 64 */
(PID.TID 0000.0001)     ;
(PID.TID 0000.0001) rA =  /* rA(1,:,1,:) ( m - cartesian, degrees - spherical ) */
(PID.TID 0000.0001)    64 @  3.906250000000000E-03              /* J =  1: 64 */
(PID.TID 0000.0001)     ;
(PID.TID 0000.0001) rAw =  /* rAw(:,1,:,1) ( m - cartesian, degrees - spherical ) */
(PID.TID 0000.0001)    64 @  3.906250000000000E-03              /* I =  1: 64 */
(PID.TID 0000.0001)     ;
(PID.TID 0000.0001) rAw =  /* rAw(1,:,1,:) ( m - cartesian, degrees - spherical ) */
(PID.TID 0000.0001)    64 @  3.906250000000000E-03              /* J =  1: 64 */
(PID.TID 0000.0001)     ;
(PID.TID 0000.0001) rAs =  /* rAs(:,1,:,1) ( m - cartesian, degrees - spherical ) */
(PID.TID 0000.0001)    64 @  3.906250000000000E-03              /* I =  1: 64 */
(PID.TID 0000.0001)     ;
(PID.TID 0000.0001) rAs =  /* rAs(1,:,1,:) ( m - cartesian, degrees - spherical ) */
(PID.TID 0000.0001)    64 @  3.906250000000000E-03              /* J =  1: 64 */
(PID.TID 0000.0001)     ;
(PID.TID 0000.0001) 
(PID.TID 0000.0001) // =======================================================
(PID.TID 0000.0001) // Field Initial Temperature at iteration          1
(PID.TID 0000.0001) // CMIN =          1.000000000000000E+00
(PID.TID 0000.0001) // CMAX =          1.000000000000000E+00
(PID.TID 0000.0001) // CINT =          0.000000000000000E+00
(PID.TID 0000.0001) // SYMBOLS (CMIN->CMAX): -abcdefghijklmnopqrstuvwxyz+
(PID.TID 0000.0001) //                  0.0: .
(PID.TID 0000.0001) // RANGE I (Lo:Hi:Step):(   1:  64:   1)
(PID.TID 0000.0001) // RANGE J (Lo:Hi:Step):(  64:   1:  -1)
(PID.TID 0000.0001) // RANGE K (Lo:Hi:Step):(   1:   1:   1)
(PID.TID 0000.0001) // =======================================================
(PID.TID 0000.0001) // =======================================================
(PID.TID 0000.0001) // END OF FIELD                                          =
(PID.TID 0000.0001) // =======================================================
(PID.TID 0000.0001) 
(PID.TID 0000.0001) // =======================================================
(PID.TID 0000.0001) // Field Initial Salinity at iteration          1
(PID.TID 0000.0001) // CMIN =          3.500000000000000E+01
(PID.TID 0000.0001) // CMAX =          3.500000000000000E+01
(PID.TID 0000.0001) // CINT =          0.000000000000000E+00
(PID.TID 0000.0001) // SYMBOLS (CMIN->CMAX): -abcdefghijklmnopqrstuvwxyz+
(PID.TID 0000.0001) //                  0.0: .
(PID.TID 0000.0001) // RANGE I (Lo:Hi:Step):(   1:  64:   1)
(PID.TID 0000.0001) // RANGE J (Lo:Hi:Step):(  64:   1:  -1)
(PID.TID 0000.0001) // RANGE K (Lo:Hi:Step):(   1:   1:   1)
(PID.TID 0000.0001) // =======================================================
(PID.TID 0000.0001) // =======================================================
(PID.TID 0000.0001) // END OF FIELD                                          =
(PID.TID 0000.0001) // =======================================================
(PID.TID 0000.0001) 
(PID.TID 0000.0001) Start initial hydrostatic pressure computation
(PID.TID 0000.0001) Pressure is predetermined for buoyancyRelation OCEANIC
(PID.TID 0000.0001) 
(PID.TID 0000.0001)  MDSREADFIELD: opening global file: Qnet.circle
(PID.TID 0000.0001) // =======================================================
(PID.TID 0000.0001) // Model current state
(PID.TID 0000.0001) // =======================================================
(PID.TID 0000.0001) 
(PID.TID 0000.0001) // =======================================================
(PID.TID 0000.0001) // Begin MONITOR dynamic field statistics
(PID.TID 0000.0001) // =======================================================
(PID.TID 0000.0001) %MON time_tsnumber                =                     0
(PID.TID 0000.0001) %MON time_secondsf                =   0.0000000000000E+00
(PID.TID 0000.0001) %MON dynstat_eta_max              =   0.0000000000000E+00
(PID.TID 0000.0001) %MON dynstat_eta_min              =   0.0000000000000E+00
(PID.TID 0000.0001) %MON dynstat_eta_mean             =   0.0000000000000E+00
(PID.TID 0000.0001) %MON dynstat_eta_sd               =   0.0000000000000E+00
(PID.TID 0000.0001) %MON dynstat_eta_del2             =   0.0000000000000E+00
(PID.TID 0000.0001) %MON dynstat_uvel_max             =   0.0000000000000E+00
(PID.TID 0000.0001) %MON dynstat_uvel_min             =   0.0000000000000E+00
(PID.TID 0000.0001) %MON dynstat_uvel_mean            =   0.0000000000000E+00
(PID.TID 0000.0001) %MON dynstat_uvel_sd              =   0.0000000000000E+00
(PID.TID 0000.0001) %MON dynstat_uvel_del2            =   0.0000000000000E+00
(PID.TID 0000.0001) %MON dynstat_vvel_max             =   0.0000000000000E+00
(PID.TID 0000.0001) %MON dynstat_vvel_min             =   0.0000000000000E+00
(PID.TID 0000.0001) %MON dynstat_vvel_mean            =   0.0000000000000E+00
(PID.TID 0000.0001) %MON dynstat_vvel_sd              =   0.0000000000000E+00
(PID.TID 0000.0001) %MON dynstat_vvel_del2            =   0.0000000000000E+00
(PID.TID 0000.0001) %MON dynstat_wvel_max             =   0.0000000000000E+00
(PID.TID 0000.0001) %MON dynstat_wvel_min             =   0.0000000000000E+00
(PID.TID 0000.0001) %MON dynstat_wvel_mean            =   0.0000000000000E+00
(PID.TID 0000.0001) %MON dynstat_wvel_sd              =   0.0000000000000E+00
(PID.TID 0000.0001) %MON dynstat_wvel_del2            =   0.0000000000000E+00
(PID.TID 0000.0001) %MON dynstat_theta_max            =   1.0000000000000E+00
(PID.TID 0000.0001) %MON dynstat_theta_min            =   1.0000000000000E+00
(PID.TID 0000.0001) %MON dynstat_theta_mean           =   1.0000000000000E+00
(PID.TID 0000.0001) %MON dynstat_theta_sd             =   0.0000000000000E+00
(PID.TID 0000.0001) %MON dynstat_theta_del2           =   0.0000000000000E+00
(PID.TID 0000.0001) %MON dynstat_salt_max             =   3.5000000000000E+01
(PID.TID 0000.0001) %MON dynstat_salt_min             =   3.5000000000000E+01
(PID.TID 0000.0001) %MON dynstat_salt_mean            =   3.5000000000013E+01
(PID.TID 0000.0001) %MON dynstat_salt_sd              =   1.3109513474776E-11
(PID.TID 0000.0001) %MON dynstat_salt_del2            =   0.0000000000000E+00
(PID.TID 0000.0001) %MON advcfl_uvel_max              =   0.0000000000000E+00
(PID.TID 0000.0001) %MON advcfl_vvel_max              =   0.0000000000000E+00
(PID.TID 0000.0001) %MON advcfl_wvel_max              =   0.0000000000000E+00
(PID.TID 0000.0001) %MON advcfl_W_hf_max              =   0.0000000000000E+00
(PID.TID 0000.0001) %MON pe_b_mean                    =   0.0000000000000E+00
(PID.TID 0000.0001) %MON ke_max                       =   0.0000000000000E+00
(PID.TID 0000.0001) %MON ke_mean                      =   0.0000000000000E+00
(PID.TID 0000.0001) %MON ke_vol                       =   3.1999999999988E+01
(PID.TID 0000.0001) %MON vort_r_min                   =   0.0000000000000E+00
(PID.TID 0000.0001) %MON vort_r_max                   =   0.0000000000000E+00
(PID.TID 0000.0001) %MON vort_a_mean                  =   1.2500000000005E+03
(PID.TID 0000.0001) %MON vort_a_sd                    =  -5.8510340750217E-07
(PID.TID 0000.0001) %MON vort_p_mean                  =   1.2500000000005E+03
(PID.TID 0000.0001) %MON vort_p_sd                    =   0.0000000000000E+00
(PID.TID 0000.0001) %MON surfExpan_theta_mean         =   0.0000000000000E+00
(PID.TID 0000.0001) %MON surfExpan_salt_mean          =   0.0000000000000E+00
(PID.TID 0000.0001) // =======================================================
(PID.TID 0000.0001) // End MONITOR dynamic field statistics
(PID.TID 0000.0001) // =======================================================
 cg2d: Sum(rhs),rhsMax =   0.00000000000000E+00  0.00000000000000E+00
(PID.TID 0000.0001)                    cg2d_init_res =    0.00000000000000E+00
(PID.TID 0000.0001)                       cg2d_iters =     0
(PID.TID 0000.0001)                         cg2d_res =    0.00000000000000E+00
 cg3d: Sum(rhs),rhsMax =   0.00000000000000E+00  0.00000000000000E+00
(PID.TID 0000.0001)                    cg3d_init_res =    0.00000000000000E+00
(PID.TID 0000.0001)                       cg3d_iters =     0
(PID.TID 0000.0001)                         cg3d_res =    0.00000000000000E+00
(PID.TID 0000.0001) // =======================================================
(PID.TID 0000.0001) // Begin MONITOR dynamic field statistics
(PID.TID 0000.0001) // =======================================================
(PID.TID 0000.0001) %MON time_tsnumber                =                     1
(PID.TID 0000.0001) %MON time_secondsf                =   2.0000000000000E-04
(PID.TID 0000.0001) %MON dynstat_eta_max              =   0.0000000000000E+00
(PID.TID 0000.0001) %MON dynstat_eta_min              =   0.0000000000000E+00
(PID.TID 0000.0001) %MON dynstat_eta_mean             =   0.0000000000000E+00
(PID.TID 0000.0001) %MON dynstat_eta_sd               =   0.0000000000000E+00
(PID.TID 0000.0001) %MON dynstat_eta_del2             =   0.0000000000000E+00
(PID.TID 0000.0001) %MON dynstat_uvel_max             =   0.0000000000000E+00
(PID.TID 0000.0001) %MON dynstat_uvel_min             =   0.0000000000000E+00
(PID.TID 0000.0001) %MON dynstat_uvel_mean            =   0.0000000000000E+00
(PID.TID 0000.0001) %MON dynstat_uvel_sd              =   0.0000000000000E+00
(PID.TID 0000.0001) %MON dynstat_uvel_del2            =   0.0000000000000E+00
(PID.TID 0000.0001) %MON dynstat_vvel_max             =   0.0000000000000E+00
(PID.TID 0000.0001) %MON dynstat_vvel_min             =   0.0000000000000E+00
(PID.TID 0000.0001) %MON dynstat_vvel_mean            =   0.0000000000000E+00
(PID.TID 0000.0001) %MON dynstat_vvel_sd              =   0.0000000000000E+00
(PID.TID 0000.0001) %MON dynstat_vvel_del2            =   0.0000000000000E+00
(PID.TID 0000.0001) %MON dynstat_wvel_max             =   0.0000000000000E+00
(PID.TID 0000.0001) %MON dynstat_wvel_min             =   0.0000000000000E+00
(PID.TID 0000.0001) %MON dynstat_wvel_mean            =   0.0000000000000E+00
(PID.TID 0000.0001) %MON dynstat_wvel_sd              =   0.0000000000000E+00
(PID.TID 0000.0001) %MON dynstat_wvel_del2            =   0.0000000000000E+00
(PID.TID 0000.0001) %MON dynstat_theta_max            =   1.0000000000000E+00
(PID.TID 0000.0001) %MON dynstat_theta_min            =   9.9798000605500E-01
(PID.TID 0000.0001) %MON dynstat_theta_mean           =   9.9989949738809E-01
(PID.TID 0000.0001) %MON dynstat_theta_sd             =   4.3808264463957E-04
(PID.TID 0000.0001) %MON dynstat_theta_del2           =   2.7410267899896E-07
(PID.TID 0000.0001) %MON dynstat_salt_max             =   3.5000000000000E+01
(PID.TID 0000.0001) %MON dynstat_salt_min             =   3.5000000000000E+01
(PID.TID 0000.0001) %MON dynstat_salt_mean            =   3.5000000000013E+01
(PID.TID 0000.0001) %MON dynstat_salt_sd              =   1.3109513474776E-11
(PID.TID 0000.0001) %MON dynstat_salt_del2            =   0.0000000000000E+00
(PID.TID 0000.0001) %MON advcfl_uvel_max              =   0.0000000000000E+00
(PID.TID 0000.0001) %MON advcfl_vvel_max              =   0.0000000000000E+00
(PID.TID 0000.0001) %MON advcfl_wvel_max              =   0.0000000000000E+00
(PID.TID 0000.0001) %MON advcfl_W_hf_max              =   0.0000000000000E+00
(PID.TID 0000.0001) %MON pe_b_mean                    =   0.0000000000000E+00
(PID.TID 0000.0001) %MON ke_max                       =   0.0000000000000E+00
(PID.TID 0000.0001) %MON ke_mean                      =   0.0000000000000E+00
(PID.TID 0000.0001) %MON ke_vol                       =   3.1999999999988E+01
(PID.TID 0000.0001) %MON vort_r_min                   =   0.0000000000000E+00
(PID.TID 0000.0001) %MON vort_r_max                   =   0.0000000000000E+00
(PID.TID 0000.0001) %MON vort_a_mean                  =   1.2500000000005E+03
(PID.TID 0000.0001) %MON vort_a_sd                    =  -5.8510340750217E-07
(PID.TID 0000.0001) %MON vort_p_mean                  =   1.2500000000005E+03
(PID.TID 0000.0001) %MON vort_p_sd                    =   0.0000000000000E+00
(PID.TID 0000.0001) %MON surfExpan_theta_mean         =   0.0000000000000E+00
(PID.TID 0000.0001) %MON surfExpan_salt_mean          =   0.0000000000000E+00
(PID.TID 0000.0001) // =======================================================
(PID.TID 0000.0001) // End MONITOR dynamic field statistics
(PID.TID 0000.0001) // =======================================================
 cg2d: Sum(rhs),rhsMax =   2.28705943072782E-14  1.50911513742214E+03
(PID.TID 0000.0001)                    cg2d_init_res =    2.42404160368515E+01
(PID.TID 0000.0001)                       cg2d_iters =    75
(PID.TID 0000.0001)                         cg2d_res =    9.32959722495470E-10
 cg3d: Sum(rhs),rhsMax =  -1.26156030066937E-13  7.36595953809400E+02
(PID.TID 0000.0001)                    cg3d_init_res =    2.48899184039110E+01
(PID.TID 0000.0001)                       cg3d_iters =    40
(PID.TID 0000.0001)                         cg3d_res =    1.61891696351306E-03
(PID.TID 0000.0001) // =======================================================
(PID.TID 0000.0001) // Begin MONITOR dynamic field statistics
(PID.TID 0000.0001) // =======================================================
(PID.TID 0000.0001) %MON time_tsnumber                =                     2
(PID.TID 0000.0001) %MON time_secondsf                =   4.0000000000000E-04
(PID.TID 0000.0001) %MON dynstat_eta_max              =   1.5686841383176E-06
(PID.TID 0000.0001) %MON dynstat_eta_min              =  -1.5507256684406E-06
(PID.TID 0000.0001) %MON dynstat_eta_mean             =  -1.8466807175247E-20
(PID.TID 0000.0001) %MON dynstat_eta_sd               =   9.0361577448633E-07
(PID.TID 0000.0001) %MON dynstat_eta_del2             =   8.5513822738755E-07
(PID.TID 0000.0001) %MON dynstat_uvel_max             =   7.0216889713737E-02
(PID.TID 0000.0001) %MON dynstat_uvel_min             =  -7.4928095877981E-02
(PID.TID 0000.0001) %MON dynstat_uvel_mean            =  -1.5699755677364E-18
(PID.TID 0000.0001) %MON dynstat_uvel_sd              =   7.4206188918144E-03
(PID.TID 0000.0001) %MON dynstat_uvel_del2            =   2.0085134251778E-03
(PID.TID 0000.0001) %MON dynstat_vvel_max             =   7.2247889546269E-02
(PID.TID 0000.0001) %MON dynstat_vvel_min             =  -7.0010756879722E-02
(PID.TID 0000.0001) %MON dynstat_vvel_mean            =  -4.1949306712785E-19
(PID.TID 0000.0001) %MON dynstat_vvel_sd              =   7.4910956781796E-03
(PID.TID 0000.0001) %MON dynstat_vvel_del2            =   2.0088359001109E-03
(PID.TID 0000.0001) %MON dynstat_wvel_max             =   2.1724642419259E-01
(PID.TID 0000.0001) %MON dynstat_wvel_min             =  -2.2498624176822E-01
(PID.TID 0000.0001) %MON dynstat_wvel_mean            =   5.6143081247517E-20
(PID.TID 0000.0001) %MON dynstat_wvel_sd              =   2.3874024312731E-02
(PID.TID 0000.0001) %MON dynstat_wvel_del2            =   5.9340238031011E-03
(PID.TID 0000.0001) %MON dynstat_theta_max            =   1.0000000000000E+00
(PID.TID 0000.0001) %MON dynstat_theta_min            =   9.9602619555180E-01
(PID.TID 0000.0001) %MON dynstat_theta_mean           =   9.9979899477618E-01
(PID.TID 0000.0001) %MON dynstat_theta_sd             =   8.6152144466959E-04
(PID.TID 0000.0001) %MON dynstat_theta_del2           =   4.2473317293494E-07
(PID.TID 0000.0001) %MON dynstat_salt_max             =   3.5000000000000E+01
(PID.TID 0000.0001) %MON dynstat_salt_min             =   3.5000000000000E+01
(PID.TID 0000.0001) %MON dynstat_salt_mean            =   3.5000000000013E+01
(PID.TID 0000.0001) %MON dynstat_salt_sd              =   1.3109513474776E-11
(PID.TID 0000.0001) %MON dynstat_salt_del2            =   0.0000000000000E+00
(PID.TID 0000.0001) %MON advcfl_uvel_max              =   2.3976990680954E-04
(PID.TID 0000.0001) %MON advcfl_vvel_max              =   2.3119324654806E-04
(PID.TID 0000.0001) %MON advcfl_wvel_max              =   4.4997248353644E-04
(PID.TID 0000.0001) %MON advcfl_W_hf_max              =   8.9994496707288E-04
(PID.TID 0000.0001) %MON pe_b_mean                    =   2.8578251376529E-05
(PID.TID 0000.0001) %MON ke_max                       =   2.2811713405712E-03
(PID.TID 0000.0001) %MON ke_mean                      =   5.5591049598597E-05
(PID.TID 0000.0001) %MON ke_vol                       =   3.1999999999988E+01
(PID.TID 0000.0001) %MON vort_r_min                   =  -8.9372953482325E-15
(PID.TID 0000.0001) %MON vort_r_max                   =   8.3266726846887E-15
(PID.TID 0000.0001) %MON vort_a_mean                  =   1.2500000000005E+03
(PID.TID 0000.0001) %MON vort_a_sd                    =  -5.8510340750217E-07
(PID.TID 0000.0001) %MON vort_p_mean                  =   1.2500000000005E+03
(PID.TID 0000.0001) %MON vort_p_sd                    =   0.0000000000000E+00
(PID.TID 0000.0001) %MON surfExpan_theta_mean         =   2.4661679722586E-08
(PID.TID 0000.0001) %MON surfExpan_salt_mean          =  -2.9273458657109E-18
(PID.TID 0000.0001) // =======================================================
(PID.TID 0000.0001) // End MONITOR dynamic field statistics
(PID.TID 0000.0001) // =======================================================
 cg2d: Sum(rhs),rhsMax =   8.88178419700125E-15  1.66196401097919E+03
(PID.TID 0000.0001)                    cg2d_init_res =    4.47384594157495E+00
(PID.TID 0000.0001)                       cg2d_iters =    70
(PID.TID 0000.0001)                         cg2d_res =    9.90603692970729E-10
 cg3d: Sum(rhs),rhsMax =  -6.87644385877206E-15  8.30748036583781E+02
(PID.TID 0000.0001)                    cg3d_init_res =    5.00628629122903E+00
(PID.TID 0000.0001)                       cg3d_iters =    40
(PID.TID 0000.0001)                         cg3d_res =    1.91282978761066E-04
(PID.TID 0000.0001) // =======================================================
(PID.TID 0000.0001) // Begin MONITOR dynamic field statistics
(PID.TID 0000.0001) // =======================================================
(PID.TID 0000.0001) %MON time_tsnumber                =                     3
(PID.TID 0000.0001) %MON time_secondsf                =   6.0000000000000E-04
(PID.TID 0000.0001) %MON dynstat_eta_max              =   2.3220420342451E-06
(PID.TID 0000.0001) %MON dynstat_eta_min              =  -2.2905738570998E-06
(PID.TID 0000.0001) %MON dynstat_eta_mean             =  -2.3863643684272E-20
(PID.TID 0000.0001) %MON dynstat_eta_sd               =   1.1793394878507E-06
(PID.TID 0000.0001) %MON dynstat_eta_del2             =   1.0043297110646E-06
(PID.TID 0000.0001) %MON dynstat_uvel_max             =   1.7303224455154E-01
(PID.TID 0000.0001) %MON dynstat_uvel_min             =  -1.6746470440942E-01
(PID.TID 0000.0001) %MON dynstat_uvel_mean            =  -8.0341075047100E-19
(PID.TID 0000.0001) %MON dynstat_uvel_sd              =   1.5316383652460E-02
(PID.TID 0000.0001) %MON dynstat_uvel_del2            =   3.5327215232912E-03
(PID.TID 0000.0001) %MON dynstat_vvel_max             =   1.5975494532606E-01
(PID.TID 0000.0001) %MON dynstat_vvel_min             =  -1.5844669181919E-01
(PID.TID 0000.0001) %MON dynstat_vvel_mean            =  -2.4106557678866E-18
(PID.TID 0000.0001) %MON dynstat_vvel_sd              =   1.5410089468434E-02
(PID.TID 0000.0001) %MON dynstat_vvel_del2            =   3.5277201819959E-03
(PID.TID 0000.0001) %MON dynstat_wvel_max             =   4.0298340420270E-01
(PID.TID 0000.0001) %MON dynstat_wvel_min             =  -3.9579708407552E-01
(PID.TID 0000.0001) %MON dynstat_wvel_mean            =   3.9962580075602E-20
(PID.TID 0000.0001) %MON dynstat_wvel_sd              =   4.4907537506565E-02
(PID.TID 0000.0001) %MON dynstat_wvel_del2            =   1.0107847999397E-02
(PID.TID 0000.0001) %MON dynstat_theta_max            =   1.0000000000000E+00
(PID.TID 0000.0001) %MON dynstat_theta_min            =   9.9410812997046E-01
(PID.TID 0000.0001) %MON dynstat_theta_mean           =   9.9969849216032E-01
(PID.TID 0000.0001) %MON dynstat_theta_sd             =   1.2769446051890E-03
(PID.TID 0000.0001) %MON dynstat_theta_del2           =   6.2565647251303E-07
(PID.TID 0000.0001) %MON dynstat_salt_max             =   3.5000000000000E+01
(PID.TID 0000.0001) %MON dynstat_salt_min             =   3.5000000000000E+01
(PID.TID 0000.0001) %MON dynstat_salt_mean            =   3.5000000000013E+01
(PID.TID 0000.0001) %MON dynstat_salt_sd              =   1.3109513474776E-11
(PID.TID 0000.0001) %MON dynstat_salt_del2            =   0.0000000000000E+00
(PID.TID 0000.0001) %MON advcfl_uvel_max              =   5.5370318256493E-04
(PID.TID 0000.0001) %MON advcfl_vvel_max              =   5.1121582504339E-04
(PID.TID 0000.0001) %MON advcfl_wvel_max              =   8.0596680840540E-04
(PID.TID 0000.0001) %MON advcfl_W_hf_max              =   1.6119336168108E-03
(PID.TID 0000.0001) %MON pe_b_mean                    =   4.8679456966155E-05
(PID.TID 0000.0001) %MON ke_max                       =   1.1203091840843E-02
(PID.TID 0000.0001) %MON ke_mean                      =   2.3603123280725E-04
(PID.TID 0000.0001) %MON ke_vol                       =   3.1999999999988E+01
(PID.TID 0000.0001) %MON vort_r_min                   =  -5.3066546765687E-01
(PID.TID 0000.0001) %MON vort_r_max                   =   5.2374931595678E-01
(PID.TID 0000.0001) %MON vort_a_mean                  =   1.2500000000005E+03
(PID.TID 0000.0001) %MON vort_a_sd                    =   5.1470191286864E-02
(PID.TID 0000.0001) %MON vort_p_mean                  =   1.2500000000005E+03
(PID.TID 0000.0001) %MON vort_p_sd                    =   5.1470191286864E-02
(PID.TID 0000.0001) %MON surfExpan_theta_mean         =   1.0908591478550E-08
(PID.TID 0000.0001) %MON surfExpan_salt_mean          =  -4.9331198848090E-18
(PID.TID 0000.0001) // =======================================================
(PID.TID 0000.0001) // End MONITOR dynamic field statistics
(PID.TID 0000.0001) // =======================================================
 cg2d: Sum(rhs),rhsMax =  -3.36272484080524E-07  2.38416291451147E+03
(PID.TID 0000.0001)                    cg2d_init_res =    7.90564781765512E+00
(PID.TID 0000.0001)                       cg2d_iters =    86
(PID.TID 0000.0001)                         cg2d_res =    8.71575821916108E-10
 cg3d: Sum(rhs),rhsMax =  -2.70970364202316E-11  1.27920334761011E+03
(PID.TID 0000.0001)                    cg3d_init_res =    9.40857821591165E+00
(PID.TID 0000.0001)                       cg3d_iters =    40
(PID.TID 0000.0001)                         cg3d_res =    5.58588322843888E-04
(PID.TID 0000.0001) // =======================================================
(PID.TID 0000.0001) // Begin MONITOR dynamic field statistics
(PID.TID 0000.0001) // =======================================================
(PID.TID 0000.0001) %MON time_tsnumber                =                     4
(PID.TID 0000.0001) %MON time_secondsf                =   8.0000000000000E-04
(PID.TID 0000.0001) %MON dynstat_eta_max              =   3.3220146002101E-06
(PID.TID 0000.0001) %MON dynstat_eta_min              =  -3.2841667513145E-06
(PID.TID 0000.0001) %MON dynstat_eta_mean             =   4.0086332175120E-12
(PID.TID 0000.0001) %MON dynstat_eta_sd               =   1.6937724029130E-06
(PID.TID 0000.0001) %MON dynstat_eta_del2             =   1.4475374611423E-06
(PID.TID 0000.0001) %MON dynstat_uvel_max             =   3.1875315878657E-01
(PID.TID 0000.0001) %MON dynstat_uvel_min             =  -2.9544605706818E-01
(PID.TID 0000.0001) %MON dynstat_uvel_mean            =  -2.6036302020620E-15
(PID.TID 0000.0001) %MON dynstat_uvel_sd              =   2.6446920731319E-02
(PID.TID 0000.0001) %MON dynstat_uvel_del2            =   5.8962533435385E-03
(PID.TID 0000.0001) %MON dynstat_vvel_max             =   2.8692025450588E-01
(PID.TID 0000.0001) %MON dynstat_vvel_min             =  -2.7696786078794E-01
(PID.TID 0000.0001) %MON dynstat_vvel_mean            =   1.9905505076962E-15
(PID.TID 0000.0001) %MON dynstat_vvel_sd              =   2.6499201633688E-02
(PID.TID 0000.0001) %MON dynstat_vvel_del2            =   5.8795503492445E-03
(PID.TID 0000.0001) %MON dynstat_wvel_max             =   6.7754354332351E-01
(PID.TID 0000.0001) %MON dynstat_wvel_min             =  -6.7200526926729E-01
(PID.TID 0000.0001) %MON dynstat_wvel_mean            =   6.6025132298821E-20
(PID.TID 0000.0001) %MON dynstat_wvel_sd              =   7.6578919276937E-02
(PID.TID 0000.0001) %MON dynstat_wvel_del2            =   1.7514664979106E-02
(PID.TID 0000.0001) %MON dynstat_theta_max            =   1.0000000000000E+00
(PID.TID 0000.0001) %MON dynstat_theta_min            =   9.9222421608739E-01
(PID.TID 0000.0001) %MON dynstat_theta_mean           =   9.9959798954813E-01
(PID.TID 0000.0001) %MON dynstat_theta_sd             =   1.6845968606209E-03
(PID.TID 0000.0001) %MON dynstat_theta_del2           =   8.3802863308155E-07
(PID.TID 0000.0001) %MON dynstat_salt_max             =   3.5000000000000E+01
(PID.TID 0000.0001) %MON dynstat_salt_min             =   3.5000000000000E+01
(PID.TID 0000.0001) %MON dynstat_salt_mean            =   3.5000000000013E+01
(PID.TID 0000.0001) %MON dynstat_salt_sd              =   1.3109513474776E-11
(PID.TID 0000.0001) %MON dynstat_salt_del2            =   0.0000000000000E+00
(PID.TID 0000.0001) %MON advcfl_uvel_max              =   1.0200101081170E-03
(PID.TID 0000.0001) %MON advcfl_vvel_max              =   9.1814481441883E-04
(PID.TID 0000.0001) %MON advcfl_wvel_max              =   1.3550870866470E-03
(PID.TID 0000.0001) %MON advcfl_W_hf_max              =   2.7101741732940E-03
(PID.TID 0000.0001) %MON pe_b_mean                    =   1.0041027335104E-04
(PID.TID 0000.0001) %MON ke_max                       =   3.6098084167220E-02
(PID.TID 0000.0001) %MON ke_mean                      =   7.0082365169577E-04
(PID.TID 0000.0001) %MON ke_vol                       =   3.1999999999988E+01
(PID.TID 0000.0001) %MON vort_r_min                   =  -1.3729994917368E+00
(PID.TID 0000.0001) %MON vort_r_max                   =   1.2598483911133E+00
(PID.TID 0000.0001) %MON vort_a_mean                  =   1.2500000000005E+03
(PID.TID 0000.0001) %MON vort_a_sd                    =   1.2912332795691E-01
(PID.TID 0000.0001) %MON vort_p_mean                  =   1.2500000000005E+03
(PID.TID 0000.0001) %MON vort_p_sd                    =   1.2912332795691E-01
(PID.TID 0000.0001) %MON surfExpan_theta_mean         =   2.2108548763410E-08
(PID.TID 0000.0001) %MON surfExpan_salt_mean          =  -6.7762635780344E-18
(PID.TID 0000.0001) // =======================================================
(PID.TID 0000.0001) // End MONITOR dynamic field statistics
(PID.TID 0000.0001) // =======================================================
 cg2d: Sum(rhs),rhsMax =  -9.71776265457081E-07  3.07615221988745E+03
(PID.TID 0000.0001)                    cg2d_init_res =    5.87575433034073E+00
(PID.TID 0000.0001)                       cg2d_iters =    85
(PID.TID 0000.0001)                         cg2d_res =    9.57019591047003E-10
 cg3d: Sum(rhs),rhsMax =  -1.47643355874472E-11  1.73835321727962E+03
(PID.TID 0000.0001)                    cg3d_init_res =    7.25734721437157E+00
(PID.TID 0000.0001)                       cg3d_iters =    40
(PID.TID 0000.0001)                         cg3d_res =    4.44996994131059E-04
(PID.TID 0000.0001) // =======================================================
(PID.TID 0000.0001) // Begin MONITOR dynamic field statistics
(PID.TID 0000.0001) // =======================================================
(PID.TID 0000.0001) %MON time_tsnumber                =                     5
(PID.TID 0000.0001) %MON time_secondsf                =   1.0000000000000E-03
(PID.TID 0000.0001) %MON dynstat_eta_max              =   4.7352004201184E-06
(PID.TID 0000.0001) %MON dynstat_eta_min              =  -4.6551642032299E-06
(PID.TID 0000.0001) %MON dynstat_eta_mean             =   1.4946652226101E-11
(PID.TID 0000.0001) %MON dynstat_eta_sd               =   2.2881890902445E-06
(PID.TID 0000.0001) %MON dynstat_eta_del2             =   1.8686001157094E-06
(PID.TID 0000.0001) %MON dynstat_uvel_max             =   5.2216773579939E-01
(PID.TID 0000.0001) %MON dynstat_uvel_min             =  -4.6643797745359E-01
(PID.TID 0000.0001) %MON dynstat_uvel_mean            =   2.2325925017148E-14
(PID.TID 0000.0001) %MON dynstat_uvel_sd              =   4.0933283959131E-02
(PID.TID 0000.0001) %MON dynstat_uvel_del2            =   8.6796157182589E-03
(PID.TID 0000.0001) %MON dynstat_vvel_max             =   4.6109569168525E-01
(PID.TID 0000.0001) %MON dynstat_vvel_min             =  -4.4050052262502E-01
(PID.TID 0000.0001) %MON dynstat_vvel_mean            =  -1.3635439823149E-14
(PID.TID 0000.0001) %MON dynstat_vvel_sd              =   4.0880956050992E-02
(PID.TID 0000.0001) %MON dynstat_vvel_del2            =   8.6428122798083E-03
(PID.TID 0000.0001) %MON dynstat_wvel_max             =   1.0524425459330E+00
(PID.TID 0000.0001) %MON dynstat_wvel_min             =  -1.0413159005788E+00
(PID.TID 0000.0001) %MON dynstat_wvel_mean            =  -4.0310080771912E-19
(PID.TID 0000.0001) %MON dynstat_wvel_sd              =   1.1686860859342E-01
(PID.TID 0000.0001) %MON dynstat_wvel_del2            =   2.6415234470208E-02
(PID.TID 0000.0001) %MON dynstat_theta_max            =   1.0000000000000E+00
(PID.TID 0000.0001) %MON dynstat_theta_min            =   9.9037230316349E-01
(PID.TID 0000.0001) %MON dynstat_theta_mean           =   9.9949748693333E-01
(PID.TID 0000.0001) %MON dynstat_theta_sd             =   2.0848671049615E-03
(PID.TID 0000.0001) %MON dynstat_theta_del2           =   1.1524217573259E-06
(PID.TID 0000.0001) %MON dynstat_salt_max             =   3.5000000000000E+01
(PID.TID 0000.0001) %MON dynstat_salt_min             =   3.5000000000000E+01
(PID.TID 0000.0001) %MON dynstat_salt_mean            =   3.5000000000013E+01
(PID.TID 0000.0001) %MON dynstat_salt_sd              =   1.3109513474776E-11
(PID.TID 0000.0001) %MON dynstat_salt_del2            =   0.0000000000000E+00
(PID.TID 0000.0001) %MON advcfl_uvel_max              =   1.6709367545580E-03
(PID.TID 0000.0001) %MON advcfl_vvel_max              =   1.4755062133928E-03
(PID.TID 0000.0001) %MON advcfl_wvel_max              =   2.1048850918660E-03
(PID.TID 0000.0001) %MON advcfl_W_hf_max              =   4.2097701837319E-03
(PID.TID 0000.0001) %MON pe_b_mean                    =   1.8325332595288E-04
(PID.TID 0000.0001) %MON ke_max                       =   9.2897452315305E-02
(PID.TID 0000.0001) %MON ke_mean                      =   1.6733931516610E-03
(PID.TID 0000.0001) %MON ke_vol                       =   3.1999999999988E+01
(PID.TID 0000.0001) %MON vort_r_min                   =  -2.7238092331397E+00
(PID.TID 0000.0001) %MON vort_r_max                   =   2.4724483100333E+00
(PID.TID 0000.0001) %MON vort_a_mean                  =   1.2500000000005E+03
(PID.TID 0000.0001) %MON vort_a_sd                    =   2.5121965862239E-01
(PID.TID 0000.0001) %MON vort_p_mean                  =   1.2500000000005E+03
(PID.TID 0000.0001) %MON vort_p_sd                    =   2.5121965862239E-01
(PID.TID 0000.0001) %MON surfExpan_theta_mean         =   3.0500058717207E-08
(PID.TID 0000.0001) %MON surfExpan_salt_mean          =  -4.6783323742750E-17
(PID.TID 0000.0001) // =======================================================
(PID.TID 0000.0001) // End MONITOR dynamic field statistics
(PID.TID 0000.0001) // =======================================================
 cg2d: Sum(rhs),rhsMax =  -2.26003617909143E-06  4.22923677340460E+03
(PID.TID 0000.0001)                    cg2d_init_res =    7.12958283464095E+00
(PID.TID 0000.0001)                       cg2d_iters =    86
(PID.TID 0000.0001)                         cg2d_res =    6.85650032988636E-10
 cg3d: Sum(rhs),rhsMax =  -3.55932991413788E-12  2.54647254178724E+03
(PID.TID 0000.0001)                    cg3d_init_res =    8.86911939278522E+00
(PID.TID 0000.0001)                       cg3d_iters =    40
(PID.TID 0000.0001)                         cg3d_res =    3.48974026170174E-04
(PID.TID 0000.0001) // =======================================================
(PID.TID 0000.0001) // Begin MONITOR dynamic field statistics
(PID.TID 0000.0001) // =======================================================
(PID.TID 0000.0001) %MON time_tsnumber                =                     6
(PID.TID 0000.0001) %MON time_secondsf                =   1.2000000000000E-03
(PID.TID 0000.0001) %MON dynstat_eta_max              =   6.7622010497980E-06
(PID.TID 0000.0001) %MON dynstat_eta_min              =  -6.6107751103594E-06
(PID.TID 0000.0001) %MON dynstat_eta_mean             =   4.7791138221985E-11
(PID.TID 0000.0001) %MON dynstat_eta_sd               =   3.2106625854598E-06
(PID.TID 0000.0001) %MON dynstat_eta_del2             =   2.5837381570161E-06
(PID.TID 0000.0001) %MON dynstat_uvel_max             =   8.1061833241753E-01
(PID.TID 0000.0001) %MON dynstat_uvel_min             =  -7.1182456382667E-01
(PID.TID 0000.0001) %MON dynstat_uvel_mean            =   1.7902226035760E-13
(PID.TID 0000.0001) %MON dynstat_uvel_sd              =   6.1168245815039E-02
(PID.TID 0000.0001) %MON dynstat_uvel_del2            =   1.2661640251667E-02
(PID.TID 0000.0001) %MON dynstat_vvel_max             =   7.0674488825536E-01
(PID.TID 0000.0001) %MON dynstat_vvel_min             =  -6.7111764894064E-01
(PID.TID 0000.0001) %MON dynstat_vvel_mean            =  -1.2149190285875E-13
(PID.TID 0000.0001) %MON dynstat_vvel_sd              =   6.0976004805399E-02
(PID.TID 0000.0001) %MON dynstat_vvel_del2            =   1.2603037334522E-02
(PID.TID 0000.0001) %MON dynstat_wvel_max             =   1.5950982041850E+00
(PID.TID 0000.0001) %MON dynstat_wvel_min             =  -1.5580597372101E+00
(PID.TID 0000.0001) %MON dynstat_wvel_mean            =  -6.3940128120963E-19
(PID.TID 0000.0001) %MON dynstat_wvel_sd              =   1.7578251401506E-01
(PID.TID 0000.0001) %MON dynstat_wvel_del2            =   4.0141475811055E-02
(PID.TID 0000.0001) %MON dynstat_theta_max            =   1.0000000000000E+00
(PID.TID 0000.0001) %MON dynstat_theta_min            =   9.8854919109276E-01
(PID.TID 0000.0001) %MON dynstat_theta_mean           =   9.9939698431785E-01
(PID.TID 0000.0001) %MON dynstat_theta_sd             =   2.4781152469252E-03
(PID.TID 0000.0001) %MON dynstat_theta_del2           =   1.5760299283348E-06
(PID.TID 0000.0001) %MON dynstat_salt_max             =   3.5000000000000E+01
(PID.TID 0000.0001) %MON dynstat_salt_min             =   3.5000000000000E+01
(PID.TID 0000.0001) %MON dynstat_salt_mean            =   3.5000000000013E+01
(PID.TID 0000.0001) %MON dynstat_salt_sd              =   1.3109513474776E-11
(PID.TID 0000.0001) %MON dynstat_salt_del2            =   0.0000000000000E+00
(PID.TID 0000.0001) %MON advcfl_uvel_max              =   2.5939786637361E-03
(PID.TID 0000.0001) %MON advcfl_vvel_max              =   2.2615836424171E-03
(PID.TID 0000.0001) %MON advcfl_wvel_max              =   3.1901964083700E-03
(PID.TID 0000.0001) %MON advcfl_W_hf_max              =   6.3803928167400E-03
(PID.TID 0000.0001) %MON pe_b_mean                    =   3.6079239839857E-04
(PID.TID 0000.0001) %MON ke_max                       =   2.1857702209507E-01
(PID.TID 0000.0001) %MON ke_mean                      =   3.7298137290585E-03
(PID.TID 0000.0001) %MON ke_vol                       =   3.1999999999988E+01
(PID.TID 0000.0001) %MON vort_r_min                   =  -4.6949146239219E+00
(PID.TID 0000.0001) %MON vort_r_max                   =   4.2845518414264E+00
(PID.TID 0000.0001) %MON vort_a_mean                  =   1.2500000000005E+03
(PID.TID 0000.0001) %MON vort_a_sd                    =   4.2718600450028E-01
(PID.TID 0000.0001) %MON vort_p_mean                  =   1.2500000000005E+03
(PID.TID 0000.0001) %MON vort_p_sd                    =   4.2718600450028E-01
(PID.TID 0000.0001) %MON surfExpan_theta_mean         =   5.4971562873750E-08
(PID.TID 0000.0001) %MON surfExpan_salt_mean          =  -2.7105054312138E-19
(PID.TID 0000.0001) // =======================================================
(PID.TID 0000.0001) // End MONITOR dynamic field statistics
(PID.TID 0000.0001) // =======================================================
 cg2d: Sum(rhs),rhsMax =  -4.47968510575159E-06  5.75057441807885E+03
(PID.TID 0000.0001)                    cg2d_init_res =    6.87568437377406E+00
(PID.TID 0000.0001)                       cg2d_iters =    86
(PID.TID 0000.0001)                         cg2d_res =    5.31128123931484E-10
 cg3d: Sum(rhs),rhsMax =  -1.19230493533795E-12  3.64131298476727E+03
(PID.TID 0000.0001)                    cg3d_init_res =    8.39806980490057E+00
(PID.TID 0000.0001)                       cg3d_iters =    40
(PID.TID 0000.0001)                         cg3d_res =    2.91958528813448E-04
(PID.TID 0000.0001) // =======================================================
(PID.TID 0000.0001) // Begin MONITOR dynamic field statistics
(PID.TID 0000.0001) // =======================================================
(PID.TID 0000.0001) %MON time_tsnumber                =                     7
(PID.TID 0000.0001) %MON time_secondsf                =   1.4000000000000E-03
(PID.TID 0000.0001) %MON dynstat_eta_max              =   1.0012454783311E-05
(PID.TID 0000.0001) %MON dynstat_eta_min              =  -9.6337482498299E-06
(PID.TID 0000.0001) %MON dynstat_eta_mean             =   1.2880381172944E-10
(PID.TID 0000.0001) %MON dynstat_eta_sd               =   4.5364489998907E-06
(PID.TID 0000.0001) %MON dynstat_eta_del2             =   3.5146687558984E-06
(PID.TID 0000.0001) %MON dynstat_uvel_max             =   1.2294908934540E+00
(PID.TID 0000.0001) %MON dynstat_uvel_min             =  -1.0599656127214E+00
(PID.TID 0000.0001) %MON dynstat_uvel_mean            =   5.4072266802327E-13
(PID.TID 0000.0001) %MON dynstat_uvel_sd              =   9.0020307360903E-02
(PID.TID 0000.0001) %MON dynstat_uvel_del2            =   1.8115378712394E-02
(PID.TID 0000.0001) %MON dynstat_vvel_max             =   1.0581996597523E+00
(PID.TID 0000.0001) %MON dynstat_vvel_min             =  -1.0010302063496E+00
(PID.TID 0000.0001) %MON dynstat_vvel_mean            =  -4.0999368283340E-13
(PID.TID 0000.0001) %MON dynstat_vvel_sd              =   8.9702146288113E-02
(PID.TID 0000.0001) %MON dynstat_vvel_del2            =   1.8034619143365E-02
(PID.TID 0000.0001) %MON dynstat_wvel_max             =   2.3890844212660E+00
(PID.TID 0000.0001) %MON dynstat_wvel_min             =  -2.3584181404873E+00
(PID.TID 0000.0001) %MON dynstat_wvel_mean            =   2.0294040664480E-18
(PID.TID 0000.0001) %MON dynstat_wvel_sd              =   2.6140904032199E-01
(PID.TID 0000.0001) %MON dynstat_wvel_del2            =   5.9382501764042E-02
(PID.TID 0000.0001) %MON dynstat_theta_max            =   1.0000000000000E+00
(PID.TID 0000.0001) %MON dynstat_theta_min            =   9.8675116950408E-01
(PID.TID 0000.0001) %MON dynstat_theta_mean           =   9.9929648169897E-01
(PID.TID 0000.0001) %MON dynstat_theta_sd             =   2.8646788876098E-03
(PID.TID 0000.0001) %MON dynstat_theta_del2           =   2.2254622567915E-06
(PID.TID 0000.0001) %MON dynstat_salt_max             =   3.5000000000000E+01
(PID.TID 0000.0001) %MON dynstat_salt_min             =   3.5000000000000E+01
(PID.TID 0000.0001) %MON dynstat_salt_mean            =   3.5000000000013E+01
(PID.TID 0000.0001) %MON dynstat_salt_sd              =   1.3109513474776E-11
(PID.TID 0000.0001) %MON dynstat_salt_del2            =   0.0000000000000E+00
(PID.TID 0000.0001) %MON advcfl_uvel_max              =   3.9343708590527E-03
(PID.TID 0000.0001) %MON advcfl_vvel_max              =   3.3862389112074E-03
(PID.TID 0000.0001) %MON advcfl_wvel_max              =   4.7781688425319E-03
(PID.TID 0000.0001) %MON advcfl_W_hf_max              =   9.5563376850639E-03
(PID.TID 0000.0001) %MON pe_b_mean                    =   7.2027793408226E-04
(PID.TID 0000.0001) %MON ke_max                       =   4.9056786153324E-01
(PID.TID 0000.0001) %MON ke_mean                      =   8.0750653930227E-03
(PID.TID 0000.0001) %MON ke_vol                       =   3.1999999999988E+01
(PID.TID 0000.0001) %MON vort_r_min                   =  -7.5762049064567E+00
(PID.TID 0000.0001) %MON vort_r_max                   =   6.9683151095390E+00
(PID.TID 0000.0001) %MON vort_a_mean                  =   1.2500000000005E+03
(PID.TID 0000.0001) %MON vort_a_sd                    =   6.8157762441952E-01
(PID.TID 0000.0001) %MON vort_p_mean                  =   1.2500000000005E+03
(PID.TID 0000.0001) %MON vort_p_sd                    =   6.8157762441952E-01
(PID.TID 0000.0001) %MON surfExpan_theta_mean         =   9.9457679399186E-08
(PID.TID 0000.0001) %MON surfExpan_salt_mean          =   5.9170333563396E-17
(PID.TID 0000.0001) // =======================================================
(PID.TID 0000.0001) // End MONITOR dynamic field statistics
(PID.TID 0000.0001) // =======================================================
 cg2d: Sum(rhs),rhsMax =  -8.12768540225939E-06  8.18619829093023E+03
(PID.TID 0000.0001)                    cg2d_init_res =    7.66017798737658E+00
(PID.TID 0000.0001)                       cg2d_iters =    86
(PID.TID 0000.0001)                         cg2d_res =    6.42871557528889E-10
 cg3d: Sum(rhs),rhsMax =  -9.45151075459894E-13  5.42765091252870E+03
(PID.TID 0000.0001)                    cg3d_init_res =    9.14906371717655E+00
(PID.TID 0000.0001)                       cg3d_iters =    40
(PID.TID 0000.0001)                         cg3d_res =    2.42722858900374E-04
(PID.TID 0000.0001) // =======================================================
(PID.TID 0000.0001) // Begin MONITOR dynamic field statistics
(PID.TID 0000.0001) // =======================================================
(PID.TID 0000.0001) %MON time_tsnumber                =                     8
(PID.TID 0000.0001) %MON time_secondsf                =   1.6000000000000E-03
(PID.TID 0000.0001) %MON dynstat_eta_max              =   1.5138695210148E-05
(PID.TID 0000.0001) %MON dynstat_eta_min              =  -1.4409802750648E-05
(PID.TID 0000.0001) %MON dynstat_eta_mean             =   3.3267422023944E-10
(PID.TID 0000.0001) %MON dynstat_eta_sd               =   6.6264471311546E-06
(PID.TID 0000.0001) %MON dynstat_eta_del2             =   5.0044690065142E-06
(PID.TID 0000.0001) %MON dynstat_uvel_max             =   1.8515275388802E+00
(PID.TID 0000.0001) %MON dynstat_uvel_min             =  -1.5952513491469E+00
(PID.TID 0000.0001) %MON dynstat_uvel_mean            =   1.8767057538105E-12
(PID.TID 0000.0001) %MON dynstat_uvel_sd              =   1.3304108152329E-01
(PID.TID 0000.0001) %MON dynstat_uvel_del2            =   2.6242267001839E-02
(PID.TID 0000.0001) %MON dynstat_vvel_max             =   1.5772322810481E+00
(PID.TID 0000.0001) %MON dynstat_vvel_min             =  -1.4868752933262E+00
(PID.TID 0000.0001) %MON dynstat_vvel_mean            =  -1.3419831050790E-12
(PID.TID 0000.0001) %MON dynstat_vvel_sd              =   1.3269154350840E-01
(PID.TID 0000.0001) %MON dynstat_vvel_del2            =   2.6137857475672E-02
(PID.TID 0000.0001) %MON dynstat_wvel_max             =   3.6103030568314E+00
(PID.TID 0000.0001) %MON dynstat_wvel_min             =  -3.5594959742452E+00
(PID.TID 0000.0001) %MON dynstat_wvel_mean            =  -3.1136062389339E-18
(PID.TID 0000.0001) %MON dynstat_wvel_sd              =   3.9319333167816E-01
(PID.TID 0000.0001) %MON dynstat_wvel_del2            =   8.9058259250047E-02
(PID.TID 0000.0001) %MON dynstat_theta_max            =   1.0000000000000E+00
(PID.TID 0000.0001) %MON dynstat_theta_min            =   9.8497242760423E-01
(PID.TID 0000.0001) %MON dynstat_theta_mean           =   9.9919597907446E-01
(PID.TID 0000.0001) %MON dynstat_theta_sd             =   3.2448738603297E-03
(PID.TID 0000.0001) %MON dynstat_theta_del2           =   3.1892564227107E-06
(PID.TID 0000.0001) %MON dynstat_salt_max             =   3.5000000000000E+01
(PID.TID 0000.0001) %MON dynstat_salt_min             =   3.5000000000000E+01
(PID.TID 0000.0001) %MON dynstat_salt_mean            =   3.5000000000013E+01
(PID.TID 0000.0001) %MON dynstat_salt_sd              =   1.3109513474776E-11
(PID.TID 0000.0001) %MON dynstat_salt_del2            =   0.0000000000000E+00
(PID.TID 0000.0001) %MON advcfl_uvel_max              =   5.9248881244168E-03
(PID.TID 0000.0001) %MON advcfl_vvel_max              =   5.0471432993540E-03
(PID.TID 0000.0001) %MON advcfl_wvel_max              =   7.2206061136628E-03
(PID.TID 0000.0001) %MON advcfl_W_hf_max              =   1.4441212227326E-02
(PID.TID 0000.0001) %MON pe_b_mean                    =   1.5368430592436E-03
(PID.TID 0000.0001) %MON ke_max                       =   1.0930587111696E+00
(PID.TID 0000.0001) %MON ke_mean                      =   1.7653487545764E-02
(PID.TID 0000.0001) %MON ke_vol                       =   3.1999999999988E+01
(PID.TID 0000.0001) %MON vort_r_min                   =  -1.1778069718447E+01
(PID.TID 0000.0001) %MON vort_r_max                   =   1.0955367165228E+01
(PID.TID 0000.0001) %MON vort_a_mean                  =   1.2500000000005E+03
(PID.TID 0000.0001) %MON vort_a_sd                    =   1.0525210966020E+00
(PID.TID 0000.0001) %MON vort_p_mean                  =   1.2500000000005E+03
(PID.TID 0000.0001) %MON vort_p_sd                    =   1.0525210966020E+00
(PID.TID 0000.0001) %MON surfExpan_theta_mean         =   2.0394616516732E-07
(PID.TID 0000.0001) %MON surfExpan_salt_mean          =  -1.0814916670543E-17
(PID.TID 0000.0001) // =======================================================
(PID.TID 0000.0001) // End MONITOR dynamic field statistics
(PID.TID 0000.0001) // =======================================================
 cg2d: Sum(rhs),rhsMax =  -1.41507445858835E-05  1.17257798686693E+04
(PID.TID 0000.0001)                    cg2d_init_res =    7.90158762512112E+00
(PID.TID 0000.0001)                       cg2d_iters =    86
(PID.TID 0000.0001)                         cg2d_res =    5.66486064142934E-10
 cg3d: Sum(rhs),rhsMax =  -3.96839679173144E-13  8.04919086204224E+03
(PID.TID 0000.0001)                    cg3d_init_res =    9.23868548349594E+00
(PID.TID 0000.0001)                       cg3d_iters =    40
(PID.TID 0000.0001)                         cg3d_res =    2.13741042245138E-04
(PID.TID 0000.0001) // =======================================================
(PID.TID 0000.0001) // Begin MONITOR dynamic field statistics
(PID.TID 0000.0001) // =======================================================
(PID.TID 0000.0001) %MON time_tsnumber                =                     9
(PID.TID 0000.0001) %MON time_secondsf                =   1.8000000000000E-03
(PID.TID 0000.0001) %MON dynstat_eta_max              =   2.3489357639007E-05
(PID.TID 0000.0001) %MON dynstat_eta_min              =  -2.2060463135419E-05
(PID.TID 0000.0001) %MON dynstat_eta_mean             =   8.2964257864618E-10
(PID.TID 0000.0001) %MON dynstat_eta_sd               =   9.8891357354875E-06
(PID.TID 0000.0001) %MON dynstat_eta_del2             =   7.1907472768542E-06
(PID.TID 0000.0001) %MON dynstat_uvel_max             =   2.8004274804504E+00
(PID.TID 0000.0001) %MON dynstat_uvel_min             =  -2.4262330743868E+00
(PID.TID 0000.0001) %MON dynstat_uvel_mean            =   6.1480321663574E-12
(PID.TID 0000.0001) %MON dynstat_uvel_sd              =   1.9891339154831E-01
(PID.TID 0000.0001) %MON dynstat_uvel_del2            =   3.8357641167975E-02
(PID.TID 0000.0001) %MON dynstat_vvel_max             =   2.3606628885253E+00
(PID.TID 0000.0001) %MON dynstat_vvel_min             =  -2.2555442935407E+00
(PID.TID 0000.0001) %MON dynstat_vvel_mean            =  -3.7213591049646E-12
(PID.TID 0000.0001) %MON dynstat_vvel_sd              =   1.9874527813449E-01
(PID.TID 0000.0001) %MON dynstat_vvel_del2            =   3.8242356097189E-02
(PID.TID 0000.0001) %MON dynstat_wvel_max             =   5.5474122545667E+00
(PID.TID 0000.0001) %MON dynstat_wvel_min             =  -5.4494298607604E+00
(PID.TID 0000.0001) %MON dynstat_wvel_mean            =  -2.5576051248385E-18
(PID.TID 0000.0001) %MON dynstat_wvel_sd              =   5.9822144783811E-01
(PID.TID 0000.0001) %MON dynstat_wvel_del2            =   1.3370816359785E-01
(PID.TID 0000.0001) %MON dynstat_theta_max            =   1.0000000000000E+00
(PID.TID 0000.0001) %MON dynstat_theta_min            =   9.8320316894209E-01
(PID.TID 0000.0001) %MON dynstat_theta_mean           =   9.9909547643583E-01
(PID.TID 0000.0001) %MON dynstat_theta_sd             =   3.6189957244970E-03
(PID.TID 0000.0001) %MON dynstat_theta_del2           =   4.7119449977899E-06
(PID.TID 0000.0001) %MON dynstat_salt_max             =   3.5000000000000E+01
(PID.TID 0000.0001) %MON dynstat_salt_min             =   3.5000000000000E+01
(PID.TID 0000.0001) %MON dynstat_salt_mean            =   3.5000000000013E+01
(PID.TID 0000.0001) %MON dynstat_salt_sd              =   1.3109513474776E-11
(PID.TID 0000.0001) %MON dynstat_salt_del2            =   0.0000000000000E+00
(PID.TID 0000.0001) %MON advcfl_uvel_max              =   8.9613679374412E-03
(PID.TID 0000.0001) %MON advcfl_vvel_max              =   7.5541212432809E-03
(PID.TID 0000.0001) %MON advcfl_wvel_max              =   1.1094824509133E-02
(PID.TID 0000.0001) %MON advcfl_W_hf_max              =   2.2189649018267E-02
(PID.TID 0000.0001) %MON pe_b_mean                    =   3.4228252199134E-03
(PID.TID 0000.0001) %MON ke_max                       =   2.4679058151620E+00
(PID.TID 0000.0001) %MON ke_mean                      =   3.9533111459005E-02
(PID.TID 0000.0001) %MON ke_vol                       =   3.1999999999988E+01
(PID.TID 0000.0001) %MON vort_r_min                   =  -1.8010029085951E+01
(PID.TID 0000.0001) %MON vort_r_max                   =   1.7008006840850E+01
(PID.TID 0000.0001) %MON vort_a_mean                  =   1.2500000000005E+03
(PID.TID 0000.0001) %MON vort_a_sd                    =   1.6063914309541E+00
(PID.TID 0000.0001) %MON vort_p_mean                  =   1.2500000000005E+03
(PID.TID 0000.0001) %MON vort_p_sd                    =   1.6063914309541E+00
(PID.TID 0000.0001) %MON surfExpan_theta_mean         =   4.3971677799192E-07
(PID.TID 0000.0001) %MON surfExpan_salt_mean          =   1.3612158275556E-16
(PID.TID 0000.0001) // =======================================================
(PID.TID 0000.0001) // End MONITOR dynamic field statistics
(PID.TID 0000.0001) // =======================================================
 cg2d: Sum(rhs),rhsMax =  -2.36855737787423E-05  1.74127043050999E+04
(PID.TID 0000.0001)                    cg2d_init_res =    8.52970487728373E+00
(PID.TID 0000.0001)                       cg2d_iters =    86
(PID.TID 0000.0001)                         cg2d_res =    6.34303202543369E-10
 cg3d: Sum(rhs),rhsMax =  -3.81124385523401E-13  1.22905743862464E+04
(PID.TID 0000.0001)                    cg3d_init_res =    9.79379977462309E+00
(PID.TID 0000.0001)                       cg3d_iters =    40
(PID.TID 0000.0001)                         cg3d_res =    2.15388272021755E-04
(PID.TID 0000.0001) // =======================================================
(PID.TID 0000.0001) // Begin MONITOR dynamic field statistics
(PID.TID 0000.0001) // =======================================================
(PID.TID 0000.0001) %MON time_tsnumber                =                    10
(PID.TID 0000.0001) %MON time_secondsf                =   2.0000000000000E-03
(PID.TID 0000.0001) %MON dynstat_eta_max              =   3.7208876397978E-05
(PID.TID 0000.0001) %MON dynstat_eta_min              =  -3.4663649881231E-05
(PID.TID 0000.0001) %MON dynstat_eta_mean             =   2.0621494613397E-09
(PID.TID 0000.0001) %MON dynstat_eta_sd               =   1.5197782895807E-05
(PID.TID 0000.0001) %MON dynstat_eta_del2             =   1.0712520997144E-05
(PID.TID 0000.0001) %MON dynstat_uvel_max             =   4.2801661663956E+00
(PID.TID 0000.0001) %MON dynstat_uvel_min             =  -3.7309351722764E+00
(PID.TID 0000.0001) %MON dynstat_uvel_mean            =   2.1339676118233E-11
(PID.TID 0000.0001) %MON dynstat_uvel_sd              =   3.0281332972426E-01
(PID.TID 0000.0001) %MON dynstat_uvel_del2            =   5.7278170440937E-02
(PID.TID 0000.0001) %MON dynstat_vvel_max             =   3.5735819944498E+00
(PID.TID 0000.0001) %MON dynstat_vvel_min             =  -3.4848717103922E+00
(PID.TID 0000.0001) %MON dynstat_vvel_mean            =  -1.0730979046172E-11
(PID.TID 0000.0001) %MON dynstat_vvel_sd              =   3.0323064730044E-01
(PID.TID 0000.0001) %MON dynstat_vvel_del2            =   5.7147775891318E-02
(PID.TID 0000.0001) %MON dynstat_wvel_max             =   8.6476314941162E+00
(PID.TID 0000.0001) %MON dynstat_wvel_min             =  -8.4414033645222E+00
(PID.TID 0000.0001) %MON dynstat_wvel_mean            =   3.2248064617529E-18
(PID.TID 0000.0001) %MON dynstat_wvel_sd              =   9.2665759390206E-01
(PID.TID 0000.0001) %MON dynstat_wvel_del2            =   2.0421206383819E-01
(PID.TID 0000.0001) %MON dynstat_theta_max            =   1.0000000000000E+00
(PID.TID 0000.0001) %MON dynstat_theta_min            =   9.8142937795687E-01
(PID.TID 0000.0001) %MON dynstat_theta_mean           =   9.9899497376586E-01
(PID.TID 0000.0001) %MON dynstat_theta_sd             =   3.9873194702635E-03
(PID.TID 0000.0001) %MON dynstat_theta_del2           =   7.1091330047959E-06
(PID.TID 0000.0001) %MON dynstat_salt_max             =   3.5000000000000E+01
(PID.TID 0000.0001) %MON dynstat_salt_min             =   3.5000000000000E+01
(PID.TID 0000.0001) %MON dynstat_salt_mean            =   3.5000000000013E+01
(PID.TID 0000.0001) %MON dynstat_salt_sd              =   1.3109513474776E-11
(PID.TID 0000.0001) %MON dynstat_salt_del2            =   0.0000000000000E+00
(PID.TID 0000.0001) %MON advcfl_uvel_max              =   1.3696531732466E-02
(PID.TID 0000.0001) %MON advcfl_vvel_max              =   1.1435462382239E-02
(PID.TID 0000.0001) %MON advcfl_wvel_max              =   1.7295262988232E-02
(PID.TID 0000.0001) %MON advcfl_W_hf_max              =   3.4590525976465E-02
(PID.TID 0000.0001) %MON pe_b_mean                    =   8.0840413220221E-03
(PID.TID 0000.0001) %MON ke_max                       =   5.7170131223724E+00
(PID.TID 0000.0001) %MON ke_mean                      =   9.1822369060468E-02
(PID.TID 0000.0001) %MON ke_vol                       =   3.1999999999988E+01
(PID.TID 0000.0001) %MON vort_r_min                   =  -2.7401359376991E+01
(PID.TID 0000.0001) %MON vort_r_max                   =   2.6409002050812E+01
(PID.TID 0000.0001) %MON vort_a_mean                  =   1.2500000000005E+03
(PID.TID 0000.0001) %MON vort_a_sd                    =   2.4537103077697E+00
(PID.TID 0000.0001) %MON vort_p_mean                  =   1.2500000000005E+03
(PID.TID 0000.0001) %MON vort_p_sd                    =   2.4537103077697E+00
(PID.TID 0000.0001) %MON surfExpan_theta_mean         =   1.0301047833237E-06
(PID.TID 0000.0001) %MON surfExpan_salt_mean          =   1.1882855810441E-16
(PID.TID 0000.0001) // =======================================================
(PID.TID 0000.0001) // End MONITOR dynamic field statistics
(PID.TID 0000.0001) // =======================================================
(PID.TID 0000.0001) %CHECKPOINT        10 ckptA
(PID.TID 0000.0001)   Seconds in section "ALL                    [THE_MODEL_MAIN]":
(PID.TID 0000.0001)           User time:  26.9599991
(PID.TID 0000.0001)         System time:  0.349999994
(PID.TID 0000.0001)     Wall clock time:  28.0167499
(PID.TID 0000.0001)          No. starts: 1
(PID.TID 0000.0001)           No. stops: 1
(PID.TID 0000.0001)   Seconds in section "INITIALISE_FIXED       [THE_MODEL_MAIN]":
(PID.TID 0000.0001)           User time:  0.200000003
(PID.TID 0000.0001)         System time:  0.0700000003
(PID.TID 0000.0001)     Wall clock time:  0.341717958
(PID.TID 0000.0001)          No. starts: 1
(PID.TID 0000.0001)           No. stops: 1
(PID.TID 0000.0001)   Seconds in section "THE_MAIN_LOOP          [THE_MODEL_MAIN]":
(PID.TID 0000.0001)           User time:  26.5700005
(PID.TID 0000.0001)         System time:  0.160000004
(PID.TID 0000.0001)     Wall clock time:  26.8559792
(PID.TID 0000.0001)          No. starts: 1
(PID.TID 0000.0001)           No. stops: 1
(PID.TID 0000.0001)   Seconds in section "INITIALISE_VARIA    [THE_MAIN_LOOP]":
(PID.TID 0000.0001)           User time:  0.0799999982
(PID.TID 0000.0001)         System time:  0.00999999791
(PID.TID 0000.0001)     Wall clock time:  0.0976600647
(PID.TID 0000.0001)          No. starts: 1
(PID.TID 0000.0001)           No. stops: 1
(PID.TID 0000.0001)   Seconds in section "MONITOR             [THE_MAIN_LOOP]":
(PID.TID 0000.0001)           User time:  0.159999996
(PID.TID 0000.0001)         System time:  0.
(PID.TID 0000.0001)     Wall clock time:  0.15754199
(PID.TID 0000.0001)          No. starts: 1
(PID.TID 0000.0001)           No. stops: 1
(PID.TID 0000.0001)   Seconds in section "DO_THE_MODEL_IO     [THE_MAIN_LOOP]":
(PID.TID 0000.0001)           User time:  0.100000024
(PID.TID 0000.0001)         System time:  0.049999997
(PID.TID 0000.0001)     Wall clock time:  0.169035196
(PID.TID 0000.0001)          No. starts: 1
(PID.TID 0000.0001)           No. stops: 1
(PID.TID 0000.0001)   Seconds in section "MAIN LOOP           [THE_MAIN_LOOP]":
(PID.TID 0000.0001)           User time:  26.2300004
(PID.TID 0000.0001)         System time:  0.100000009
(PID.TID 0000.0001)     Wall clock time:  26.4315879
(PID.TID 0000.0001)          No. starts: 1
(PID.TID 0000.0001)           No. stops: 1
(PID.TID 0000.0001)   Seconds in section "FORWARD_STEP        [THE_MAIN_LOOP]":
(PID.TID 0000.0001)           User time:  26.2300004
(PID.TID 0000.0001)         System time:  0.100000009
(PID.TID 0000.0001)     Wall clock time:  26.4312689
(PID.TID 0000.0001)          No. starts: 10
(PID.TID 0000.0001)           No. stops: 10
(PID.TID 0000.0001)   Seconds in section "EXTERNAL_FIELDS_LOAD[FORWARD_STEP]":
(PID.TID 0000.0001)           User time:  0.
(PID.TID 0000.0001)         System time:  0.
(PID.TID 0000.0001)     Wall clock time:  0.000288963318
(PID.TID 0000.0001)          No. starts: 10
(PID.TID 0000.0001)           No. stops: 10
(PID.TID 0000.0001)   Seconds in section "DO_ATMOSPHERIC_PHYS [FORWARD_STEP]":
(PID.TID 0000.0001)           User time:  0.
(PID.TID 0000.0001)         System time:  0.
(PID.TID 0000.0001)     Wall clock time:  0.000288009644
(PID.TID 0000.0001)          No. starts: 10
(PID.TID 0000.0001)           No. stops: 10
(PID.TID 0000.0001)   Seconds in section "DO_OCEANIC_PHYS     [FORWARD_STEP]":
(PID.TID 0000.0001)           User time:  0.0399997234
(PID.TID 0000.0001)         System time:  0.
(PID.TID 0000.0001)     Wall clock time:  0.0475308895
(PID.TID 0000.0001)          No. starts: 10
(PID.TID 0000.0001)           No. stops: 10
(PID.TID 0000.0001)   Seconds in section "THERMODYNAMICS      [FORWARD_STEP]":
(PID.TID 0000.0001)           User time:  1.44999695
(PID.TID 0000.0001)         System time:  0.
(PID.TID 0000.0001)     Wall clock time:  1.44101191
(PID.TID 0000.0001)          No. starts: 10
(PID.TID 0000.0001)           No. stops: 10
(PID.TID 0000.0001)   Seconds in section "DYNAMICS            [FORWARD_STEP]":
(PID.TID 0000.0001)           User time:  2.15000415
(PID.TID 0000.0001)         System time:  0.
(PID.TID 0000.0001)     Wall clock time:  2.14952612
(PID.TID 0000.0001)          No. starts: 10
(PID.TID 0000.0001)           No. stops: 10
(PID.TID 0000.0001)   Seconds in section "CALC_GW          [FORWARD_STEP]":
(PID.TID 0000.0001)           User time:  0.459997654
(PID.TID 0000.0001)         System time:  0.0200000107
(PID.TID 0000.0001)     Wall clock time:  0.478074074
(PID.TID 0000.0001)          No. starts: 10
(PID.TID 0000.0001)           No. stops: 10
(PID.TID 0000.0001)   Seconds in section "SOLVE_FOR_PRESSURE  [FORWARD_STEP]":
(PID.TID 0000.0001)           User time:  20.059998
(PID.TID 0000.0001)         System time:  0.
(PID.TID 0000.0001)     Wall clock time:  20.0727201
(PID.TID 0000.0001)          No. starts: 10
(PID.TID 0000.0001)           No. stops: 10
(PID.TID 0000.0001)   Seconds in section "UV_CORRECTION_STEP  [FORWARD_STEP]":
(PID.TID 0000.0001)           User time:  0.260002375
(PID.TID 0000.0001)         System time:  0.
(PID.TID 0000.0001)     Wall clock time:  0.253373623
(PID.TID 0000.0001)          No. starts: 10
(PID.TID 0000.0001)           No. stops: 10
(PID.TID 0000.0001)   Seconds in section "TS_CORRECTION_STEP  [FORWARD_STEP]":
(PID.TID 0000.0001)           User time:  0.060000658
(PID.TID 0000.0001)         System time:  0.
(PID.TID 0000.0001)     Wall clock time:  0.0560657978
(PID.TID 0000.0001)          No. starts: 10
(PID.TID 0000.0001)           No. stops: 10
(PID.TID 0000.0001)   Seconds in section "BLOCKING_EXCHANGES  [FORWARD_STEP]":
(PID.TID 0000.0001)           User time:  0.070001483
(PID.TID 0000.0001)         System time:  0.
(PID.TID 0000.0001)     Wall clock time:  0.0705933571
(PID.TID 0000.0001)          No. starts: 10
(PID.TID 0000.0001)           No. stops: 10
(PID.TID 0000.0001)   Seconds in section "DO_STATEVARS_TAVE   [FORWARD_STEP]":
(PID.TID 0000.0001)           User time:  0.
(PID.TID 0000.0001)         System time:  0.
(PID.TID 0000.0001)     Wall clock time:  0.000289201736
(PID.TID 0000.0001)          No. starts: 10
(PID.TID 0000.0001)           No. stops: 10
(PID.TID 0000.0001)   Seconds in section "MONITOR             [FORWARD_STEP]":
(PID.TID 0000.0001)           User time:  1.57999909
(PID.TID 0000.0001)         System time:  0.
(PID.TID 0000.0001)     Wall clock time:  1.5776155
(PID.TID 0000.0001)          No. starts: 10
(PID.TID 0000.0001)           No. stops: 10
(PID.TID 0000.0001)   Seconds in section "DO_THE_MODEL_IO     [FORWARD_STEP]":
(PID.TID 0000.0001)           User time:  0.100000381
(PID.TID 0000.0001)         System time:  0.0799999982
(PID.TID 0000.0001)     Wall clock time:  0.279134035
(PID.TID 0000.0001)          No. starts: 10
(PID.TID 0000.0001)           No. stops: 10
(PID.TID 0000.0001)   Seconds in section "WRITE_CHECKPOINT    [FORWARD_STEP]":
(PID.TID 0000.0001)           User time:  0.
(PID.TID 0000.0001)         System time:  0.
(PID.TID 0000.0001)     Wall clock time:  0.000299930573
(PID.TID 0000.0001)          No. starts: 10
(PID.TID 0000.0001)           No. stops: 10
(PID.TID 0000.0001)   Seconds in section "WRITE_CHECKPOINT       [THE_MODEL_MAIN]":
(PID.TID 0000.0001)           User time:  0.189998627
(PID.TID 0000.0001)         System time:  0.11999999
(PID.TID 0000.0001)     Wall clock time:  0.81891799
(PID.TID 0000.0001)          No. starts: 1
(PID.TID 0000.0001)           No. stops: 1
(PID.TID 0000.0001) // ======================================================
(PID.TID 0000.0001) // Tile <-> Tile communication statistics
(PID.TID 0000.0001) // ======================================================
(PID.TID 0000.0001) // o Tile number: 000001
(PID.TID 0000.0001) //         No. X exchanges =              0
(PID.TID 0000.0001) //            Max. X spins =              0
(PID.TID 0000.0001) //            Min. X spins =     1000000000
(PID.TID 0000.0001) //          Total. X spins =              0
(PID.TID 0000.0001) //            Avg. X spins =       0.00E+00
(PID.TID 0000.0001) //         No. Y exchanges =              0
(PID.TID 0000.0001) //            Max. Y spins =              0
(PID.TID 0000.0001) //            Min. Y spins =     1000000000
(PID.TID 0000.0001) //          Total. Y spins =              0
(PID.TID 0000.0001) //            Avg. Y spins =       0.00E+00
(PID.TID 0000.0001) // o Tile number: 000002
(PID.TID 0000.0001) //         No. X exchanges =              0
(PID.TID 0000.0001) //            Max. X spins =              0
(PID.TID 0000.0001) //            Min. X spins =     1000000000
(PID.TID 0000.0001) //          Total. X spins =              0
(PID.TID 0000.0001) //            Avg. X spins =       0.00E+00
(PID.TID 0000.0001) //         No. Y exchanges =              0
(PID.TID 0000.0001) //            Max. Y spins =              0
(PID.TID 0000.0001) //            Min. Y spins =     1000000000
(PID.TID 0000.0001) //          Total. Y spins =              0
(PID.TID 0000.0001) //            Avg. Y spins =       0.00E+00
(PID.TID 0000.0001) // o Tile number: 000003
(PID.TID 0000.0001) //         No. X exchanges =              0
(PID.TID 0000.0001) //            Max. X spins =              0
(PID.TID 0000.0001) //            Min. X spins =     1000000000
(PID.TID 0000.0001) //          Total. X spins =              0
(PID.TID 0000.0001) //            Avg. X spins =       0.00E+00
(PID.TID 0000.0001) //         No. Y exchanges =              0
(PID.TID 0000.0001) //            Max. Y spins =              0
(PID.TID 0000.0001) //            Min. Y spins =     1000000000
(PID.TID 0000.0001) //          Total. Y spins =              0
(PID.TID 0000.0001) //            Avg. Y spins =       0.00E+00
(PID.TID 0000.0001) // o Tile number: 000004
(PID.TID 0000.0001) //         No. X exchanges =              0
(PID.TID 0000.0001) //            Max. X spins =              0
(PID.TID 0000.0001) //            Min. X spins =     1000000000
(PID.TID 0000.0001) //          Total. X spins =              0
(PID.TID 0000.0001) //            Avg. X spins =       0.00E+00
(PID.TID 0000.0001) //         No. Y exchanges =              0
(PID.TID 0000.0001) //            Max. Y spins =              0
(PID.TID 0000.0001) //            Min. Y spins =     1000000000
(PID.TID 0000.0001) //          Total. Y spins =              0
(PID.TID 0000.0001) //            Avg. Y spins =       0.00E+00
(PID.TID 0000.0001) // o Thread number: 000001
(PID.TID 0000.0001) //            No. barriers =          17158
(PID.TID 0000.0001) //      Max. barrier spins =              1
(PID.TID 0000.0001) //      Min. barrier spins =              1
(PID.TID 0000.0001) //     Total barrier spins =          17158
(PID.TID 0000.0001) //      Avg. barrier spins =       1.00E+00
