(PID.TID 0000.0001) 
(PID.TID 0000.0001) // ======================================================
(PID.TID 0000.0001) //                      MITgcm UV
(PID.TID 0000.0001) //                      =========
(PID.TID 0000.0001) // ======================================================
(PID.TID 0000.0001) // execution environment starting up...
(PID.TID 0000.0001) // Run starting Wed Apr  1 14:19:48 1998
(PID.TID 0000.0001) // on melville.lcs.mit.edu
(PID.TID 0000.0001) // account cnh
(PID.TID 0000.0001) // MITgcm UV Release: $Name:  $
(PID.TID 0000.0001) 
(PID.TID 0000.0001) // =======================================================
(PID.TID 0000.0001) // Execution Environment parameter file "eedata"
(PID.TID 0000.0001) // =======================================================
(PID.TID 0000.0001) ># Example "eedata" file
(PID.TID 0000.0001) ># Lines beginning "#" are comments
(PID.TID 0000.0001) ># nTx - No. threads per process in X
(PID.TID 0000.0001) ># nTy - No. threads per process in Y
(PID.TID 0000.0001) > &EEPARMS
(PID.TID 0000.0001) > &
(PID.TID 0000.0001) ># Note: Some systems use & as the
(PID.TID 0000.0001) ># namelist terminator. Other systems
(PID.TID 0000.0001) ># use a / character (as shown here).
(PID.TID 0000.0001) 
(PID.TID 0000.0001) // =======================================================
(PID.TID 0000.0001) // Computational Grid Specification ( see files "SIZE.h" )
(PID.TID 0000.0001) //                                  ( and "eedata"       )
(PID.TID 0000.0001) // =======================================================
(PID.TID 0000.0001)      nPx =    1 ; /* No. processes in X */
(PID.TID 0000.0001)      nPy =    1 ; /* No. processes in Y */
(PID.TID 0000.0001)      nSx =    1 ; /* No. tiles in X per process */
(PID.TID 0000.0001)      nSy =    1 ; /* No. tiles in Y per process */
(PID.TID 0000.0001)      sNx =   64 ; /* Tile size in X */
(PID.TID 0000.0001)      sNy =   64 ; /* Tile size in Y */
(PID.TID 0000.0001)      OLx =    3 ; /* Tile overlap distance in X */
(PID.TID 0000.0001)      OLy =    3 ; /* Tile overlap distance in Y */
(PID.TID 0000.0001)      nTx =    1 ; /* No. threads in X per process */
(PID.TID 0000.0001)      nTy =    1 ; /* No. threads in Y per process */
(PID.TID 0000.0001)       Nr =   20 ; /* No. levels in the vertical   */
(PID.TID 0000.0001)       nX =   64 ; /* Total domain size in X ( = nPx*nSx*sNx ) */
(PID.TID 0000.0001)       nY =   64 ; /* Total domain size in Y ( = nPy*nSy*sNy ) */
(PID.TID 0000.0001)   nTiles =    1 ; /* Total no. tiles per process ( = nSx*nSy ) */
(PID.TID 0000.0001)   nProcs =    1 ; /* Total no. processes ( = nPx*nPy ) */
(PID.TID 0000.0001) nThreads =    1 ; /* Total no. threads per process ( = nTx*nTy ) */
(PID.TID 0000.0001) usingMPI =    F ; /* Flag used to control whether MPI is in use */
(PID.TID 0000.0001)                   /*  note: To execute a program with MPI calls */
(PID.TID 0000.0001)                   /*  it must be launched appropriately e.g     */
(PID.TID 0000.0001)                   /*  "mpirun -np 64 ......"                    */
(PID.TID 0000.0001) 
(PID.TID 0000.0001) // ======================================================
(PID.TID 0000.0001) // Mapping of tiles to threads
(PID.TID 0000.0001) // ======================================================
(PID.TID 0000.0001) // -o- Thread   1, tiles (   1:   1,   1:   1)
(PID.TID 0000.0001) 
(PID.TID 0000.0001) // ======================================================
(PID.TID 0000.0001) // Tile <-> Tile connectvity table
(PID.TID 0000.0001) // ======================================================
(PID.TID 0000.0001) // Tile number: 000001 (process no. = 000001)
(PID.TID 0000.0001) //        WEST: Tile = 000001, Process = 000001, Comm = put
(PID.TID 0000.0001) //                bi = 000001, bj = 000001
(PID.TID 0000.0001) //        EAST: Tile = 000001, Process = 000001, Comm = put
(PID.TID 0000.0001) //                bi = 000001, bj = 000001
(PID.TID 0000.0001) //       SOUTH: Tile = 000001, Process = 000001, Comm = put
(PID.TID 0000.0001) //                bi = 000001, bj = 000001
(PID.TID 0000.0001) //       NORTH: Tile = 000001, Process = 000001, Comm = put
(PID.TID 0000.0001) //                bi = 000001, bj = 000001
(PID.TID 0000.0001) 
(PID.TID 0000.0001) // =======================================================
(PID.TID 0000.0001) // Model parameter file "data"
(PID.TID 0000.0001) // =======================================================
(PID.TID 0000.0001) ># ====================
(PID.TID 0000.0001) ># | Model parameters |
(PID.TID 0000.0001) ># ====================
(PID.TID 0000.0001) >#
(PID.TID 0000.0001) ># Continuous equation parameters
(PID.TID 0000.0001) > &PARM01
(PID.TID 0000.0001) > tRef=20*1.
(PID.TID 0000.0001) > sRef=20*35.,
(PID.TID 0000.0001) > viscAh=1.E0,
(PID.TID 0000.0001) > viscAz=1.E0,
(PID.TID 0000.0001) > no_slip_sides=.FALSE.,
(PID.TID 0000.0001) > no_slip_bottom=.FALSE.,
(PID.TID 0000.0001) > viscA4=0.E12,
(PID.TID 0000.0001) > diffKhT=1.E0,
(PID.TID 0000.0001) > diffKzT=1.E0,
(PID.TID 0000.0001) > diffKhS=1.E0,
(PID.TID 0000.0001) > diffKzS=1.E0,
(PID.TID 0000.0001) > f0=1250.,
(PID.TID 0000.0001) > beta=0.E-11,
(PID.TID 0000.0001) > tAlpha=1.,
(PID.TID 0000.0001) > sBeta =0.,
(PID.TID 0000.0001) > gravity=1.4E8,
(PID.TID 0000.0001) > rhoConst=1.,
(PID.TID 0000.0001) > rhoNil=1.,
(PID.TID 0000.0001) > heatCapacity_Cp=1.,
(PID.TID 0000.0001) > rigidLid=.FALSE.,
(PID.TID 0000.0001) > implicitFreeSurface=.TRUE.,
(PID.TID 0000.0001) > eosType='LINEAR',
(PID.TID 0000.0001) > nonHydrostatic=.TRUE.,
(PID.TID 0000.0001) > readBinaryPrec=64,
(PID.TID 0000.0001) > &
(PID.TID 0000.0001) >
(PID.TID 0000.0001) ># Elliptic solver parameters
(PID.TID 0000.0001) > &PARM02
(PID.TID 0000.0001) > cg2dMaxIters=1000,
(PID.TID 0000.0001) > cg2dTargetResidual=1.E-9,
(PID.TID 0000.0001) > cg3dMaxIters=40,
(PID.TID 0000.0001) > cg3dTargetResidual=1.E-9,
(PID.TID 0000.0001) > &
(PID.TID 0000.0001) >
(PID.TID 0000.0001) ># Time stepping parameters
(PID.TID 0000.0001) > &PARM03
(PID.TID 0000.0001) > nIter0=0,
(PID.TID 0000.0001) > nTimeSteps=10,
(PID.TID 0000.0001) > deltaT=2.0E-4,
(PID.TID 0000.0001) > abEps=0.1,
(PID.TID 0000.0001) > pChkptFreq=0.0,
(PID.TID 0000.0001) > chkptFreq=0.0,
(PID.TID 0000.0001) > dumpFreq=0.1,
(PID.TID 0000.0001) > monitorFreq=1.E-5,
(PID.TID 0000.0001) > &
(PID.TID 0000.0001) >
(PID.TID 0000.0001) ># Gridding parameters
(PID.TID 0000.0001) > &PARM04
(PID.TID 0000.0001) > usingCartesianGrid=.TRUE.,
(PID.TID 0000.0001) > usingSphericalPolarGrid=.FALSE.,
(PID.TID 0000.0001) > dXspacing=0.0625,
(PID.TID 0000.0001) > dYspacing=0.0625,
(PID.TID 0000.0001) > delZ=20*0.1,
(PID.TID 0000.0001) > &
(PID.TID 0000.0001) >
(PID.TID 0000.0001) ># Input datasets
(PID.TID 0000.0001) > &PARM05
(PID.TID 0000.0001) > surfQfile='Qnet.circle',
(PID.TID 0000.0001) > &
(PID.TID 0000.0001) 
(PID.TID 0000.0001) %MON XC_max                       =   3.9687500000000E+00
(PID.TID 0000.0001) %MON XC_min                       =   3.1250000000000E-02
(PID.TID 0000.0001) %MON XC_mean                      =   2.0000000000000E+00
(PID.TID 0000.0001) %MON XC_sd                        =   1.1545595751194E+00
(PID.TID 0000.0001) %MON XG_max                       =   3.9375000000000E+00
(PID.TID 0000.0001) %MON XG_min                       =   6.2500000000000E-02
(PID.TID 0000.0001) %MON XG_mean                      =   2.0000000000000E+00
(PID.TID 0000.0001) %MON XG_sd                        =   1.1365151414155E+00
(PID.TID 0000.0001) %MON DXC_max                      =   6.2500000000000E-02
(PID.TID 0000.0001) %MON DXC_min                      =   6.2500000000000E-02
(PID.TID 0000.0001) %MON DXC_mean                     =   6.2500000000000E-02
(PID.TID 0000.0001) %MON DXC_sd                       =   0.0000000000000E+00
(PID.TID 0000.0001) %MON DXF_max                      =   6.2500000000000E-02
(PID.TID 0000.0001) %MON DXF_min                      =   6.2500000000000E-02
(PID.TID 0000.0001) %MON DXF_mean                     =   6.2500000000000E-02
(PID.TID 0000.0001) %MON DXF_sd                       =   0.0000000000000E+00
(PID.TID 0000.0001) %MON DXG_max                      =   6.2500000000000E-02
(PID.TID 0000.0001) %MON DXG_min                      =   6.2500000000000E-02
(PID.TID 0000.0001) %MON DXG_mean                     =   6.2500000000000E-02
(PID.TID 0000.0001) %MON DXG_sd                       =   0.0000000000000E+00
(PID.TID 0000.0001) %MON DXV_max                      =   6.2500000000000E-02
(PID.TID 0000.0001) %MON DXV_min                      =   6.2500000000000E-02
(PID.TID 0000.0001) %MON DXV_mean                     =   6.2500000000000E-02
(PID.TID 0000.0001) %MON DXV_sd                       =   0.0000000000000E+00
(PID.TID 0000.0001) %MON YC_max                       =   3.9687500000000E+00
(PID.TID 0000.0001) %MON YC_min                       =   3.1250000000000E-02
(PID.TID 0000.0001) %MON YC_mean                      =   2.0000000000000E+00
(PID.TID 0000.0001) %MON YC_sd                        =   1.1545595751194E+00
(PID.TID 0000.0001) %MON YG_max                       =   3.9375000000000E+00
(PID.TID 0000.0001) %MON YG_min                       =   6.2500000000000E-02
(PID.TID 0000.0001) %MON YG_mean                      =   2.0000000000000E+00
(PID.TID 0000.0001) %MON YG_sd                        =   1.1365151414155E+00
(PID.TID 0000.0001) %MON DYC_max                      =   6.2500000000000E-02
(PID.TID 0000.0001) %MON DYC_min                      =   6.2500000000000E-02
(PID.TID 0000.0001) %MON DYC_mean                     =   6.2500000000000E-02
(PID.TID 0000.0001) %MON DYC_sd                       =   0.0000000000000E+00
(PID.TID 0000.0001) %MON DYF_max                      =   6.2500000000000E-02
(PID.TID 0000.0001) %MON DYF_min                      =   6.2500000000000E-02
(PID.TID 0000.0001) %MON DYF_mean                     =   6.2500000000000E-02
(PID.TID 0000.0001) %MON DYF_sd                       =   0.0000000000000E+00
(PID.TID 0000.0001) %MON DYG_max                      =   6.2500000000000E-02
(PID.TID 0000.0001) %MON DYG_min                      =   6.2500000000000E-02
(PID.TID 0000.0001) %MON DYG_mean                     =   6.2500000000000E-02
(PID.TID 0000.0001) %MON DYG_sd                       =   0.0000000000000E+00
(PID.TID 0000.0001) %MON DYU_max                      =   6.2500000000000E-02
(PID.TID 0000.0001) %MON DYU_min                      =   6.2500000000000E-02
(PID.TID 0000.0001) %MON DYU_mean                     =   6.2500000000000E-02
(PID.TID 0000.0001) %MON DYU_sd                       =   0.0000000000000E+00
(PID.TID 0000.0001) %MON RA_max                       =   3.9062500000000E-03
(PID.TID 0000.0001) %MON RA_min                       =   3.9062500000000E-03
(PID.TID 0000.0001) %MON RA_mean                      =   3.9062500000000E-03
(PID.TID 0000.0001) %MON RA_sd                        =   0.0000000000000E+00
(PID.TID 0000.0001) %MON RAW_max                      =   3.9062500000000E-03
(PID.TID 0000.0001) %MON RAW_min                      =   3.9062500000000E-03
(PID.TID 0000.0001) %MON RAW_mean                     =   3.9062500000000E-03
(PID.TID 0000.0001) %MON RAW_sd                       =   0.0000000000000E+00
(PID.TID 0000.0001) %MON RAS_max                      =   3.9062500000000E-03
(PID.TID 0000.0001) %MON RAS_min                      =   3.9062500000000E-03
(PID.TID 0000.0001) %MON RAS_mean                     =   3.9062500000000E-03
(PID.TID 0000.0001) %MON RAS_sd                       =   0.0000000000000E+00
(PID.TID 0000.0001) %MON RAZ_max                      =   3.9062500000000E-03
(PID.TID 0000.0001) %MON RAZ_min                      =   3.9062500000000E-03
(PID.TID 0000.0001) %MON RAZ_mean                     =   3.9062500000000E-03
(PID.TID 0000.0001) %MON RAZ_sd                       =   0.0000000000000E+00
(PID.TID 0000.0001) // =======================================================
(PID.TID 0000.0001) // Field Model R_low (ini_masks_etc) at iteration          1
(PID.TID 0000.0001) // CMIN =         -2.000000000000000E+00
(PID.TID 0000.0001) // CMAX =         -2.000000000000000E+00
(PID.TID 0000.0001) // CINT =          0.000000000000000E+00
(PID.TID 0000.0001) // SYMBOLS (CMIN->CMAX): -abcdefghijklmnopqrstuvwxyz+
(PID.TID 0000.0001) //                  0.0: .
(PID.TID 0000.0001) // RANGE I (Lo:Hi:Step):(  -2:  67:   1)
(PID.TID 0000.0001) // RANGE J (Lo:Hi:Step):(  67:  -2:  -1)
(PID.TID 0000.0001) // RANGE K (Lo:Hi:Step):(   1:   1:   1)
(PID.TID 0000.0001) // =======================================================
(PID.TID 0000.0001) K =   1
(PID.TID 0000.0001) //                I=7       I=17      I=27      I=37      I=47      I=57      I=67
(PID.TID 0000.0001) // |--J--|**0123456|890123456|890123456|890123456|890123456|890123456|890123456|
(PID.TID 0000.0001) //     67 ----------------------------------------------------------------------
(PID.TID 0000.0001) //     66 ----------------------------------------------------------------------
(PID.TID 0000.0001) //     65 ----------------------------------------------------------------------
(PID.TID 0000.0001) //     64 ----------------------------------------------------------------------
(PID.TID 0000.0001) //     63 ----------------------------------------------------------------------
(PID.TID 0000.0001) //     62 ----------------------------------------------------------------------
(PID.TID 0000.0001) //     61 ----------------------------------------------------------------------
(PID.TID 0000.0001) //     60 ----------------------------------------------------------------------
(PID.TID 0000.0001) //     59 ----------------------------------------------------------------------
(PID.TID 0000.0001) //     58 ----------------------------------------------------------------------
(PID.TID 0000.0001) //     57 ----------------------------------------------------------------------
(PID.TID 0000.0001) //     56 ----------------------------------------------------------------------
(PID.TID 0000.0001) //     55 ----------------------------------------------------------------------
(PID.TID 0000.0001) //     54 ----------------------------------------------------------------------
(PID.TID 0000.0001) //     53 ----------------------------------------------------------------------
(PID.TID 0000.0001) //     52 ----------------------------------------------------------------------
(PID.TID 0000.0001) //     51 ----------------------------------------------------------------------
(PID.TID 0000.0001) //     50 ----------------------------------------------------------------------
(PID.TID 0000.0001) //     49 ----------------------------------------------------------------------
(PID.TID 0000.0001) //     48 ----------------------------------------------------------------------
(PID.TID 0000.0001) //     47 ----------------------------------------------------------------------
(PID.TID 0000.0001) //     46 ----------------------------------------------------------------------
(PID.TID 0000.0001) //     45 ----------------------------------------------------------------------
(PID.TID 0000.0001) //     44 ----------------------------------------------------------------------
(PID.TID 0000.0001) //     43 ----------------------------------------------------------------------
(PID.TID 0000.0001) //     42 ----------------------------------------------------------------------
(PID.TID 0000.0001) //     41 ----------------------------------------------------------------------
(PID.TID 0000.0001) //     40 ----------------------------------------------------------------------
(PID.TID 0000.0001) //     39 ----------------------------------------------------------------------
(PID.TID 0000.0001) //     38 ----------------------------------------------------------------------
(PID.TID 0000.0001) //     37 ----------------------------------------------------------------------
(PID.TID 0000.0001) //     36 ----------------------------------------------------------------------
(PID.TID 0000.0001) //     35 ----------------------------------------------------------------------
(PID.TID 0000.0001) //     34 ----------------------------------------------------------------------
(PID.TID 0000.0001) //     33 ----------------------------------------------------------------------
(PID.TID 0000.0001) //     32 ----------------------------------------------------------------------
(PID.TID 0000.0001) //     31 ----------------------------------------------------------------------
(PID.TID 0000.0001) //     30 ----------------------------------------------------------------------
(PID.TID 0000.0001) //     29 ----------------------------------------------------------------------
(PID.TID 0000.0001) //     28 ----------------------------------------------------------------------
(PID.TID 0000.0001) //     27 ----------------------------------------------------------------------
(PID.TID 0000.0001) //     26 ----------------------------------------------------------------------
(PID.TID 0000.0001) //     25 ----------------------------------------------------------------------
(PID.TID 0000.0001) //     24 ----------------------------------------------------------------------
(PID.TID 0000.0001) //     23 ----------------------------------------------------------------------
(PID.TID 0000.0001) //     22 ----------------------------------------------------------------------
(PID.TID 0000.0001) //     21 ----------------------------------------------------------------------
(PID.TID 0000.0001) //     20 ----------------------------------------------------------------------
(PID.TID 0000.0001) //     19 ----------------------------------------------------------------------
(PID.TID 0000.0001) //     18 ----------------------------------------------------------------------
(PID.TID 0000.0001) //     17 ----------------------------------------------------------------------
(PID.TID 0000.0001) //     16 ----------------------------------------------------------------------
(PID.TID 0000.0001) //     15 ----------------------------------------------------------------------
(PID.TID 0000.0001) //     14 ----------------------------------------------------------------------
(PID.TID 0000.0001) //     13 ----------------------------------------------------------------------
(PID.TID 0000.0001) //     12 ----------------------------------------------------------------------
(PID.TID 0000.0001) //     11 ----------------------------------------------------------------------
(PID.TID 0000.0001) //     10 ----------------------------------------------------------------------
(PID.TID 0000.0001) //      9 ----------------------------------------------------------------------
(PID.TID 0000.0001) //      8 ----------------------------------------------------------------------
(PID.TID 0000.0001) //      7 ----------------------------------------------------------------------
(PID.TID 0000.0001) //      6 ----------------------------------------------------------------------
(PID.TID 0000.0001) //      5 ----------------------------------------------------------------------
(PID.TID 0000.0001) //      4 ----------------------------------------------------------------------
(PID.TID 0000.0001) //      3 ----------------------------------------------------------------------
(PID.TID 0000.0001) //      2 ----------------------------------------------------------------------
(PID.TID 0000.0001) //      1 ----------------------------------------------------------------------
(PID.TID 0000.0001) //      0 ----------------------------------------------------------------------
(PID.TID 0000.0001) //     -1 ----------------------------------------------------------------------
(PID.TID 0000.0001) //     -2 ----------------------------------------------------------------------
(PID.TID 0000.0001) // =======================================================
(PID.TID 0000.0001) // END OF FIELD                                          =
(PID.TID 0000.0001) // =======================================================
(PID.TID 0000.0001) 
(PID.TID 0000.0001) // =======================================================
(PID.TID 0000.0001) // Field Model Ro_surf (ini_masks_etc) at iteration          1
(PID.TID 0000.0001) // CMIN =          6.383782391594650E-16
(PID.TID 0000.0001) // CMAX =          6.383782391594650E-16
(PID.TID 0000.0001) // CINT =          0.000000000000000E+00
(PID.TID 0000.0001) // SYMBOLS (CMIN->CMAX): -abcdefghijklmnopqrstuvwxyz+
(PID.TID 0000.0001) //                  0.0: .
(PID.TID 0000.0001) // RANGE I (Lo:Hi:Step):(  -2:  67:   1)
(PID.TID 0000.0001) // RANGE J (Lo:Hi:Step):(  67:  -2:  -1)
(PID.TID 0000.0001) // RANGE K (Lo:Hi:Step):(   1:   1:   1)
(PID.TID 0000.0001) // =======================================================
(PID.TID 0000.0001) K =   1
(PID.TID 0000.0001) //                I=7       I=17      I=27      I=37      I=47      I=57      I=67
(PID.TID 0000.0001) // |--J--|**0123456|890123456|890123456|890123456|890123456|890123456|890123456|
(PID.TID 0000.0001) //     67 ----------------------------------------------------------------------
(PID.TID 0000.0001) //     66 ----------------------------------------------------------------------
(PID.TID 0000.0001) //     65 ----------------------------------------------------------------------
(PID.TID 0000.0001) //     64 ----------------------------------------------------------------------
(PID.TID 0000.0001) //     63 ----------------------------------------------------------------------
(PID.TID 0000.0001) //     62 ----------------------------------------------------------------------
(PID.TID 0000.0001) //     61 ----------------------------------------------------------------------
(PID.TID 0000.0001) //     60 ----------------------------------------------------------------------
(PID.TID 0000.0001) //     59 ----------------------------------------------------------------------
(PID.TID 0000.0001) //     58 ----------------------------------------------------------------------
(PID.TID 0000.0001) //     57 ----------------------------------------------------------------------
(PID.TID 0000.0001) //     56 ----------------------------------------------------------------------
(PID.TID 0000.0001) //     55 ----------------------------------------------------------------------
(PID.TID 0000.0001) //     54 ----------------------------------------------------------------------
(PID.TID 0000.0001) //     53 ----------------------------------------------------------------------
(PID.TID 0000.0001) //     52 ----------------------------------------------------------------------
(PID.TID 0000.0001) //     51 ----------------------------------------------------------------------
(PID.TID 0000.0001) //     50 ----------------------------------------------------------------------
(PID.TID 0000.0001) //     49 ----------------------------------------------------------------------
(PID.TID 0000.0001) //     48 ----------------------------------------------------------------------
(PID.TID 0000.0001) //     47 ----------------------------------------------------------------------
(PID.TID 0000.0001) //     46 ----------------------------------------------------------------------
(PID.TID 0000.0001) //     45 ----------------------------------------------------------------------
(PID.TID 0000.0001) //     44 ----------------------------------------------------------------------
(PID.TID 0000.0001) //     43 ----------------------------------------------------------------------
(PID.TID 0000.0001) //     42 ----------------------------------------------------------------------
(PID.TID 0000.0001) //     41 ----------------------------------------------------------------------
(PID.TID 0000.0001) //     40 ----------------------------------------------------------------------
(PID.TID 0000.0001) //     39 ----------------------------------------------------------------------
(PID.TID 0000.0001) //     38 ----------------------------------------------------------------------
(PID.TID 0000.0001) //     37 ----------------------------------------------------------------------
(PID.TID 0000.0001) //     36 ----------------------------------------------------------------------
(PID.TID 0000.0001) //     35 ----------------------------------------------------------------------
(PID.TID 0000.0001) //     34 ----------------------------------------------------------------------
(PID.TID 0000.0001) //     33 ----------------------------------------------------------------------
(PID.TID 0000.0001) //     32 ----------------------------------------------------------------------
(PID.TID 0000.0001) //     31 ----------------------------------------------------------------------
(PID.TID 0000.0001) //     30 ----------------------------------------------------------------------
(PID.TID 0000.0001) //     29 ----------------------------------------------------------------------
(PID.TID 0000.0001) //     28 ----------------------------------------------------------------------
(PID.TID 0000.0001) //     27 ----------------------------------------------------------------------
(PID.TID 0000.0001) //     26 ----------------------------------------------------------------------
(PID.TID 0000.0001) //     25 ----------------------------------------------------------------------
(PID.TID 0000.0001) //     24 ----------------------------------------------------------------------
(PID.TID 0000.0001) //     23 ----------------------------------------------------------------------
(PID.TID 0000.0001) //     22 ----------------------------------------------------------------------
(PID.TID 0000.0001) //     21 ----------------------------------------------------------------------
(PID.TID 0000.0001) //     20 ----------------------------------------------------------------------
(PID.TID 0000.0001) //     19 ----------------------------------------------------------------------
(PID.TID 0000.0001) //     18 ----------------------------------------------------------------------
(PID.TID 0000.0001) //     17 ----------------------------------------------------------------------
(PID.TID 0000.0001) //     16 ----------------------------------------------------------------------
(PID.TID 0000.0001) //     15 ----------------------------------------------------------------------
(PID.TID 0000.0001) //     14 ----------------------------------------------------------------------
(PID.TID 0000.0001) //     13 ----------------------------------------------------------------------
(PID.TID 0000.0001) //     12 ----------------------------------------------------------------------
(PID.TID 0000.0001) //     11 ----------------------------------------------------------------------
(PID.TID 0000.0001) //     10 ----------------------------------------------------------------------
(PID.TID 0000.0001) //      9 ----------------------------------------------------------------------
(PID.TID 0000.0001) //      8 ----------------------------------------------------------------------
(PID.TID 0000.0001) //      7 ----------------------------------------------------------------------
(PID.TID 0000.0001) //      6 ----------------------------------------------------------------------
(PID.TID 0000.0001) //      5 ----------------------------------------------------------------------
(PID.TID 0000.0001) //      4 ----------------------------------------------------------------------
(PID.TID 0000.0001) //      3 ----------------------------------------------------------------------
(PID.TID 0000.0001) //      2 ----------------------------------------------------------------------
(PID.TID 0000.0001) //      1 ----------------------------------------------------------------------
(PID.TID 0000.0001) //      0 ----------------------------------------------------------------------
(PID.TID 0000.0001) //     -1 ----------------------------------------------------------------------
(PID.TID 0000.0001) //     -2 ----------------------------------------------------------------------
(PID.TID 0000.0001) // =======================================================
(PID.TID 0000.0001) // END OF FIELD                                          =
(PID.TID 0000.0001) // =======================================================
(PID.TID 0000.0001) 
(PID.TID 0000.0001) // =======================================================
(PID.TID 0000.0001) // Field hFacC at iteration          1
(PID.TID 0000.0001) // CMIN =          1.000000000000000E+00
(PID.TID 0000.0001) // CMAX =          1.000000000000000E+00
(PID.TID 0000.0001) // CINT =          0.000000000000000E+00
(PID.TID 0000.0001) // SYMBOLS (CMIN->CMAX): -abcdefghijklmnopqrstuvwxyz+
(PID.TID 0000.0001) //                  0.0: .
(PID.TID 0000.0001) // RANGE I (Lo:Hi:Step):(  -2:  67:   1)
(PID.TID 0000.0001) // RANGE J (Lo:Hi:Step):(  67:  -2:  -1)
(PID.TID 0000.0001) // RANGE K (Lo:Hi:Step):(   1:   1:   1)
(PID.TID 0000.0001) // =======================================================
(PID.TID 0000.0001) K =   1
(PID.TID 0000.0001) //                I=7       I=17      I=27      I=37      I=47      I=57      I=67
(PID.TID 0000.0001) // |--J--|**0123456|890123456|890123456|890123456|890123456|890123456|890123456|
(PID.TID 0000.0001) //     67 ----------------------------------------------------------------------
(PID.TID 0000.0001) //     66 ----------------------------------------------------------------------
(PID.TID 0000.0001) //     65 ----------------------------------------------------------------------
(PID.TID 0000.0001) //     64 ----------------------------------------------------------------------
(PID.TID 0000.0001) //     63 ----------------------------------------------------------------------
(PID.TID 0000.0001) //     62 ----------------------------------------------------------------------
(PID.TID 0000.0001) //     61 ----------------------------------------------------------------------
(PID.TID 0000.0001) //     60 ----------------------------------------------------------------------
(PID.TID 0000.0001) //     59 ----------------------------------------------------------------------
(PID.TID 0000.0001) //     58 ----------------------------------------------------------------------
(PID.TID 0000.0001) //     57 ----------------------------------------------------------------------
(PID.TID 0000.0001) //     56 ----------------------------------------------------------------------
(PID.TID 0000.0001) //     55 ----------------------------------------------------------------------
(PID.TID 0000.0001) //     54 ----------------------------------------------------------------------
(PID.TID 0000.0001) //     53 ----------------------------------------------------------------------
(PID.TID 0000.0001) //     52 ----------------------------------------------------------------------
(PID.TID 0000.0001) //     51 ----------------------------------------------------------------------
(PID.TID 0000.0001) //     50 ----------------------------------------------------------------------
(PID.TID 0000.0001) //     49 ----------------------------------------------------------------------
(PID.TID 0000.0001) //     48 ----------------------------------------------------------------------
(PID.TID 0000.0001) //     47 ----------------------------------------------------------------------
(PID.TID 0000.0001) //     46 ----------------------------------------------------------------------
(PID.TID 0000.0001) //     45 ----------------------------------------------------------------------
(PID.TID 0000.0001) //     44 ----------------------------------------------------------------------
(PID.TID 0000.0001) //     43 ----------------------------------------------------------------------
(PID.TID 0000.0001) //     42 ----------------------------------------------------------------------
(PID.TID 0000.0001) //     41 ----------------------------------------------------------------------
(PID.TID 0000.0001) //     40 ----------------------------------------------------------------------
(PID.TID 0000.0001) //     39 ----------------------------------------------------------------------
(PID.TID 0000.0001) //     38 ----------------------------------------------------------------------
(PID.TID 0000.0001) //     37 ----------------------------------------------------------------------
(PID.TID 0000.0001) //     36 ----------------------------------------------------------------------
(PID.TID 0000.0001) //     35 ----------------------------------------------------------------------
(PID.TID 0000.0001) //     34 ----------------------------------------------------------------------
(PID.TID 0000.0001) //     33 ----------------------------------------------------------------------
(PID.TID 0000.0001) //     32 ----------------------------------------------------------------------
(PID.TID 0000.0001) //     31 ----------------------------------------------------------------------
(PID.TID 0000.0001) //     30 ----------------------------------------------------------------------
(PID.TID 0000.0001) //     29 ----------------------------------------------------------------------
(PID.TID 0000.0001) //     28 ----------------------------------------------------------------------
(PID.TID 0000.0001) //     27 ----------------------------------------------------------------------
(PID.TID 0000.0001) //     26 ----------------------------------------------------------------------
(PID.TID 0000.0001) //     25 ----------------------------------------------------------------------
(PID.TID 0000.0001) //     24 ----------------------------------------------------------------------
(PID.TID 0000.0001) //     23 ----------------------------------------------------------------------
(PID.TID 0000.0001) //     22 ----------------------------------------------------------------------
(PID.TID 0000.0001) //     21 ----------------------------------------------------------------------
(PID.TID 0000.0001) //     20 ----------------------------------------------------------------------
(PID.TID 0000.0001) //     19 ----------------------------------------------------------------------
(PID.TID 0000.0001) //     18 ----------------------------------------------------------------------
(PID.TID 0000.0001) //     17 ----------------------------------------------------------------------
(PID.TID 0000.0001) //     16 ----------------------------------------------------------------------
(PID.TID 0000.0001) //     15 ----------------------------------------------------------------------
(PID.TID 0000.0001) //     14 ----------------------------------------------------------------------
(PID.TID 0000.0001) //     13 ----------------------------------------------------------------------
(PID.TID 0000.0001) //     12 ----------------------------------------------------------------------
(PID.TID 0000.0001) //     11 ----------------------------------------------------------------------
(PID.TID 0000.0001) //     10 ----------------------------------------------------------------------
(PID.TID 0000.0001) //      9 ----------------------------------------------------------------------
(PID.TID 0000.0001) //      8 ----------------------------------------------------------------------
(PID.TID 0000.0001) //      7 ----------------------------------------------------------------------
(PID.TID 0000.0001) //      6 ----------------------------------------------------------------------
(PID.TID 0000.0001) //      5 ----------------------------------------------------------------------
(PID.TID 0000.0001) //      4 ----------------------------------------------------------------------
(PID.TID 0000.0001) //      3 ----------------------------------------------------------------------
(PID.TID 0000.0001) //      2 ----------------------------------------------------------------------
(PID.TID 0000.0001) //      1 ----------------------------------------------------------------------
(PID.TID 0000.0001) //      0 ----------------------------------------------------------------------
(PID.TID 0000.0001) //     -1 ----------------------------------------------------------------------
(PID.TID 0000.0001) //     -2 ----------------------------------------------------------------------
(PID.TID 0000.0001) // =======================================================
(PID.TID 0000.0001) // END OF FIELD                                          =
(PID.TID 0000.0001) // =======================================================
(PID.TID 0000.0001) 
(PID.TID 0000.0001) // =======================================================
(PID.TID 0000.0001) // Field hFacW at iteration          1
(PID.TID 0000.0001) // CMIN =          1.000000000000000E+00
(PID.TID 0000.0001) // CMAX =          1.000000000000000E+00
(PID.TID 0000.0001) // CINT =          0.000000000000000E+00
(PID.TID 0000.0001) // SYMBOLS (CMIN->CMAX): -abcdefghijklmnopqrstuvwxyz+
(PID.TID 0000.0001) //                  0.0: .
(PID.TID 0000.0001) // RANGE I (Lo:Hi:Step):(  -2:  67:   1)
(PID.TID 0000.0001) // RANGE J (Lo:Hi:Step):(  67:  -2:  -1)
(PID.TID 0000.0001) // RANGE K (Lo:Hi:Step):(   1:   1:   1)
(PID.TID 0000.0001) // =======================================================
(PID.TID 0000.0001) K =   1
(PID.TID 0000.0001) //                I=7       I=17      I=27      I=37      I=47      I=57      I=67
(PID.TID 0000.0001) // |--J--|**0123456|890123456|890123456|890123456|890123456|890123456|890123456|
(PID.TID 0000.0001) //     67 ----------------------------------------------------------------------
(PID.TID 0000.0001) //     66 ----------------------------------------------------------------------
(PID.TID 0000.0001) //     65 ----------------------------------------------------------------------
(PID.TID 0000.0001) //     64 ----------------------------------------------------------------------
(PID.TID 0000.0001) //     63 ----------------------------------------------------------------------
(PID.TID 0000.0001) //     62 ----------------------------------------------------------------------
(PID.TID 0000.0001) //     61 ----------------------------------------------------------------------
(PID.TID 0000.0001) //     60 ----------------------------------------------------------------------
(PID.TID 0000.0001) //     59 ----------------------------------------------------------------------
(PID.TID 0000.0001) //     58 ----------------------------------------------------------------------
(PID.TID 0000.0001) //     57 ----------------------------------------------------------------------
(PID.TID 0000.0001) //     56 ----------------------------------------------------------------------
(PID.TID 0000.0001) //     55 ----------------------------------------------------------------------
(PID.TID 0000.0001) //     54 ----------------------------------------------------------------------
(PID.TID 0000.0001) //     53 ----------------------------------------------------------------------
(PID.TID 0000.0001) //     52 ----------------------------------------------------------------------
(PID.TID 0000.0001) //     51 ----------------------------------------------------------------------
(PID.TID 0000.0001) //     50 ----------------------------------------------------------------------
(PID.TID 0000.0001) //     49 ----------------------------------------------------------------------
(PID.TID 0000.0001) //     48 ----------------------------------------------------------------------
(PID.TID 0000.0001) //     47 ----------------------------------------------------------------------
(PID.TID 0000.0001) //     46 ----------------------------------------------------------------------
(PID.TID 0000.0001) //     45 ----------------------------------------------------------------------
(PID.TID 0000.0001) //     44 ----------------------------------------------------------------------
(PID.TID 0000.0001) //     43 ----------------------------------------------------------------------
(PID.TID 0000.0001) //     42 ----------------------------------------------------------------------
(PID.TID 0000.0001) //     41 ----------------------------------------------------------------------
(PID.TID 0000.0001) //     40 ----------------------------------------------------------------------
(PID.TID 0000.0001) //     39 ----------------------------------------------------------------------
(PID.TID 0000.0001) //     38 ----------------------------------------------------------------------
(PID.TID 0000.0001) //     37 ----------------------------------------------------------------------
(PID.TID 0000.0001) //     36 ----------------------------------------------------------------------
(PID.TID 0000.0001) //     35 ----------------------------------------------------------------------
(PID.TID 0000.0001) //     34 ----------------------------------------------------------------------
(PID.TID 0000.0001) //     33 ----------------------------------------------------------------------
(PID.TID 0000.0001) //     32 ----------------------------------------------------------------------
(PID.TID 0000.0001) //     31 ----------------------------------------------------------------------
(PID.TID 0000.0001) //     30 ----------------------------------------------------------------------
(PID.TID 0000.0001) //     29 ----------------------------------------------------------------------
(PID.TID 0000.0001) //     28 ----------------------------------------------------------------------
(PID.TID 0000.0001) //     27 ----------------------------------------------------------------------
(PID.TID 0000.0001) //     26 ----------------------------------------------------------------------
(PID.TID 0000.0001) //     25 ----------------------------------------------------------------------
(PID.TID 0000.0001) //     24 ----------------------------------------------------------------------
(PID.TID 0000.0001) //     23 ----------------------------------------------------------------------
(PID.TID 0000.0001) //     22 ----------------------------------------------------------------------
(PID.TID 0000.0001) //     21 ----------------------------------------------------------------------
(PID.TID 0000.0001) //     20 ----------------------------------------------------------------------
(PID.TID 0000.0001) //     19 ----------------------------------------------------------------------
(PID.TID 0000.0001) //     18 ----------------------------------------------------------------------
(PID.TID 0000.0001) //     17 ----------------------------------------------------------------------
(PID.TID 0000.0001) //     16 ----------------------------------------------------------------------
(PID.TID 0000.0001) //     15 ----------------------------------------------------------------------
(PID.TID 0000.0001) //     14 ----------------------------------------------------------------------
(PID.TID 0000.0001) //     13 ----------------------------------------------------------------------
(PID.TID 0000.0001) //     12 ----------------------------------------------------------------------
(PID.TID 0000.0001) //     11 ----------------------------------------------------------------------
(PID.TID 0000.0001) //     10 ----------------------------------------------------------------------
(PID.TID 0000.0001) //      9 ----------------------------------------------------------------------
(PID.TID 0000.0001) //      8 ----------------------------------------------------------------------
(PID.TID 0000.0001) //      7 ----------------------------------------------------------------------
(PID.TID 0000.0001) //      6 ----------------------------------------------------------------------
(PID.TID 0000.0001) //      5 ----------------------------------------------------------------------
(PID.TID 0000.0001) //      4 ----------------------------------------------------------------------
(PID.TID 0000.0001) //      3 ----------------------------------------------------------------------
(PID.TID 0000.0001) //      2 ----------------------------------------------------------------------
(PID.TID 0000.0001) //      1 ----------------------------------------------------------------------
(PID.TID 0000.0001) //      0 ----------------------------------------------------------------------
(PID.TID 0000.0001) //     -1 ----------------------------------------------------------------------
(PID.TID 0000.0001) //     -2 ----------------------------------------------------------------------
(PID.TID 0000.0001) // =======================================================
(PID.TID 0000.0001) // END OF FIELD                                          =
(PID.TID 0000.0001) // =======================================================
(PID.TID 0000.0001) 
(PID.TID 0000.0001) // =======================================================
(PID.TID 0000.0001) // Field hFacS at iteration          1
(PID.TID 0000.0001) // CMIN =          1.000000000000000E+00
(PID.TID 0000.0001) // CMAX =          1.000000000000000E+00
(PID.TID 0000.0001) // CINT =          0.000000000000000E+00
(PID.TID 0000.0001) // SYMBOLS (CMIN->CMAX): -abcdefghijklmnopqrstuvwxyz+
(PID.TID 0000.0001) //                  0.0: .
(PID.TID 0000.0001) // RANGE I (Lo:Hi:Step):(  -2:  67:   1)
(PID.TID 0000.0001) // RANGE J (Lo:Hi:Step):(  67:  -2:  -1)
(PID.TID 0000.0001) // RANGE K (Lo:Hi:Step):(   1:   1:   1)
(PID.TID 0000.0001) // =======================================================
(PID.TID 0000.0001) K =   1
(PID.TID 0000.0001) //                I=7       I=17      I=27      I=37      I=47      I=57      I=67
(PID.TID 0000.0001) // |--J--|**0123456|890123456|890123456|890123456|890123456|890123456|890123456|
(PID.TID 0000.0001) //     67 ----------------------------------------------------------------------
(PID.TID 0000.0001) //     66 ----------------------------------------------------------------------
(PID.TID 0000.0001) //     65 ----------------------------------------------------------------------
(PID.TID 0000.0001) //     64 ----------------------------------------------------------------------
(PID.TID 0000.0001) //     63 ----------------------------------------------------------------------
(PID.TID 0000.0001) //     62 ----------------------------------------------------------------------
(PID.TID 0000.0001) //     61 ----------------------------------------------------------------------
(PID.TID 0000.0001) //     60 ----------------------------------------------------------------------
(PID.TID 0000.0001) //     59 ----------------------------------------------------------------------
(PID.TID 0000.0001) //     58 ----------------------------------------------------------------------
(PID.TID 0000.0001) //     57 ----------------------------------------------------------------------
(PID.TID 0000.0001) //     56 ----------------------------------------------------------------------
(PID.TID 0000.0001) //     55 ----------------------------------------------------------------------
(PID.TID 0000.0001) //     54 ----------------------------------------------------------------------
(PID.TID 0000.0001) //     53 ----------------------------------------------------------------------
(PID.TID 0000.0001) //     52 ----------------------------------------------------------------------
(PID.TID 0000.0001) //     51 ----------------------------------------------------------------------
(PID.TID 0000.0001) //     50 ----------------------------------------------------------------------
(PID.TID 0000.0001) //     49 ----------------------------------------------------------------------
(PID.TID 0000.0001) //     48 ----------------------------------------------------------------------
(PID.TID 0000.0001) //     47 ----------------------------------------------------------------------
(PID.TID 0000.0001) //     46 ----------------------------------------------------------------------
(PID.TID 0000.0001) //     45 ----------------------------------------------------------------------
(PID.TID 0000.0001) //     44 ----------------------------------------------------------------------
(PID.TID 0000.0001) //     43 ----------------------------------------------------------------------
(PID.TID 0000.0001) //     42 ----------------------------------------------------------------------
(PID.TID 0000.0001) //     41 ----------------------------------------------------------------------
(PID.TID 0000.0001) //     40 ----------------------------------------------------------------------
(PID.TID 0000.0001) //     39 ----------------------------------------------------------------------
(PID.TID 0000.0001) //     38 ----------------------------------------------------------------------
(PID.TID 0000.0001) //     37 ----------------------------------------------------------------------
(PID.TID 0000.0001) //     36 ----------------------------------------------------------------------
(PID.TID 0000.0001) //     35 ----------------------------------------------------------------------
(PID.TID 0000.0001) //     34 ----------------------------------------------------------------------
(PID.TID 0000.0001) //     33 ----------------------------------------------------------------------
(PID.TID 0000.0001) //     32 ----------------------------------------------------------------------
(PID.TID 0000.0001) //     31 ----------------------------------------------------------------------
(PID.TID 0000.0001) //     30 ----------------------------------------------------------------------
(PID.TID 0000.0001) //     29 ----------------------------------------------------------------------
(PID.TID 0000.0001) //     28 ----------------------------------------------------------------------
(PID.TID 0000.0001) //     27 ----------------------------------------------------------------------
(PID.TID 0000.0001) //     26 ----------------------------------------------------------------------
(PID.TID 0000.0001) //     25 ----------------------------------------------------------------------
(PID.TID 0000.0001) //     24 ----------------------------------------------------------------------
(PID.TID 0000.0001) //     23 ----------------------------------------------------------------------
(PID.TID 0000.0001) //     22 ----------------------------------------------------------------------
(PID.TID 0000.0001) //     21 ----------------------------------------------------------------------
(PID.TID 0000.0001) //     20 ----------------------------------------------------------------------
(PID.TID 0000.0001) //     19 ----------------------------------------------------------------------
(PID.TID 0000.0001) //     18 ----------------------------------------------------------------------
(PID.TID 0000.0001) //     17 ----------------------------------------------------------------------
(PID.TID 0000.0001) //     16 ----------------------------------------------------------------------
(PID.TID 0000.0001) //     15 ----------------------------------------------------------------------
(PID.TID 0000.0001) //     14 ----------------------------------------------------------------------
(PID.TID 0000.0001) //     13 ----------------------------------------------------------------------
(PID.TID 0000.0001) //     12 ----------------------------------------------------------------------
(PID.TID 0000.0001) //     11 ----------------------------------------------------------------------
(PID.TID 0000.0001) //     10 ----------------------------------------------------------------------
(PID.TID 0000.0001) //      9 ----------------------------------------------------------------------
(PID.TID 0000.0001) //      8 ----------------------------------------------------------------------
(PID.TID 0000.0001) //      7 ----------------------------------------------------------------------
(PID.TID 0000.0001) //      6 ----------------------------------------------------------------------
(PID.TID 0000.0001) //      5 ----------------------------------------------------------------------
(PID.TID 0000.0001) //      4 ----------------------------------------------------------------------
(PID.TID 0000.0001) //      3 ----------------------------------------------------------------------
(PID.TID 0000.0001) //      2 ----------------------------------------------------------------------
(PID.TID 0000.0001) //      1 ----------------------------------------------------------------------
(PID.TID 0000.0001) //      0 ----------------------------------------------------------------------
(PID.TID 0000.0001) //     -1 ----------------------------------------------------------------------
(PID.TID 0000.0001) //     -2 ----------------------------------------------------------------------
(PID.TID 0000.0001) // =======================================================
(PID.TID 0000.0001) // END OF FIELD                                          =
(PID.TID 0000.0001) // =======================================================
(PID.TID 0000.0001) 
(PID.TID 0000.0001) %MON fCori_max                    =   1.2500000000000E+03
(PID.TID 0000.0001) %MON fCori_min                    =   1.2500000000000E+03
(PID.TID 0000.0001) %MON fCori_mean                   =   1.2500000000000E+03
(PID.TID 0000.0001) %MON fCori_sd                     =   0.0000000000000E+00
(PID.TID 0000.0001) %MON fCoriG_max                   =   1.2500000000000E+03
(PID.TID 0000.0001) %MON fCoriG_min                   =   1.2500000000000E+03
(PID.TID 0000.0001) %MON fCoriG_mean                  =   1.2500000000000E+03
(PID.TID 0000.0001) %MON fCoriG_sd                    =   0.0000000000000E+00
(PID.TID 0000.0001)  PACKAGE_INIT: opening data.pkg
(PID.TID 0000.0001)  OPEN_COPY_DATA_FILE: opening file data.pkg
(PID.TID 0000.0001) // =======================================================
(PID.TID 0000.0001) // Parameter file "data.pkg"
(PID.TID 0000.0001) // =======================================================
(PID.TID 0000.0001) ># Packages
(PID.TID 0000.0001) > &PACKAGES
(PID.TID 0000.0001) > &
(PID.TID 0000.0001) 
(PID.TID 0000.0001)  PACKAGE_INIT: finished reading data.pkg
(PID.TID 0000.0001) // CG2D normalisation factor =          0.4999999999999998889776975E+00
(PID.TID 0000.0001) 
(PID.TID 0000.0001) // CG3D normalisation factor =          0.1000000000000000000000000E+02
(PID.TID 0000.0001) 
(PID.TID 0000.0001) // =======================================================
(PID.TID 0000.0001) // Model configuration
(PID.TID 0000.0001) // =======================================================
(PID.TID 0000.0001) //
(PID.TID 0000.0001) // "Physical" paramters ( PARM01 in namelist )
(PID.TID 0000.0001) //
(PID.TID 0000.0001) tRef =   /* Reference temperature profile ( oC or oK ) */
(PID.TID 0000.0001)    20 @  1.000000000000000E+00              /* K =  1: 20 */
(PID.TID 0000.0001)     ;
(PID.TID 0000.0001) sRef =   /* Reference salinity profile ( ppt ) */
(PID.TID 0000.0001)    20 @  3.500000000000000E+01              /* K =  1: 20 */
(PID.TID 0000.0001)     ;
(PID.TID 0000.0001) viscAh =   /* Lateral eddy viscosity ( m^2/s ) */
(PID.TID 0000.0001)                 1.000000000000000E+00
(PID.TID 0000.0001)     ;
(PID.TID 0000.0001) viscAh =   /* Lateral biharmonic viscosity ( m^4/s ) */
(PID.TID 0000.0001)                 0.000000000000000E+00
(PID.TID 0000.0001)     ;
(PID.TID 0000.0001) no_slip_sides =  /* Viscous BCs: No-slip sides */
(PID.TID 0000.0001)                   F
(PID.TID 0000.0001)     ;
(PID.TID 0000.0001) viscAz =   /* Vertical eddy viscosity ( m^2/s ) */
(PID.TID 0000.0001)                 1.000000000000000E+00
(PID.TID 0000.0001)     ;
(PID.TID 0000.0001) viscAr =   /* Vertical eddy viscosity ( units of r^2/s ) */
(PID.TID 0000.0001)                 1.000000000000000E+00
(PID.TID 0000.0001)     ;
(PID.TID 0000.0001) diffKhT =   /* Laplacian diffusion of heat laterally ( m^2/s ) */
(PID.TID 0000.0001)                 1.000000000000000E+00
(PID.TID 0000.0001)     ;
(PID.TID 0000.0001) diffK4T =   /* Bihaarmonic diffusion of heat laterally ( m^4/s ) */
(PID.TID 0000.0001)                 0.000000000000000E+00
(PID.TID 0000.0001)     ;
(PID.TID 0000.0001) diffKzT =   /* Laplacian diffusion of heat vertically ( m^2/s ) */
(PID.TID 0000.0001)                 1.000000000000000E+00
(PID.TID 0000.0001)     ;
(PID.TID 0000.0001) diffKrT =   /* Laplacian diffusion of heat vertically ( m^2/s ) */
(PID.TID 0000.0001)                 1.000000000000000E+00
(PID.TID 0000.0001)     ;
(PID.TID 0000.0001) diffKhS =   /* Laplacian diffusion of salt laterally ( m^2/s ) */
(PID.TID 0000.0001)                 1.000000000000000E+00
(PID.TID 0000.0001)     ;
(PID.TID 0000.0001) diffK4S =   /* Bihaarmonic diffusion of salt laterally ( m^4/s ) */
(PID.TID 0000.0001)                 0.000000000000000E+00
(PID.TID 0000.0001)     ;
(PID.TID 0000.0001) diffKzS =   /* Laplacian diffusion of salt vertically ( m^2/s ) */
(PID.TID 0000.0001)                 1.000000000000000E+00
(PID.TID 0000.0001)     ;
(PID.TID 0000.0001) diffKrS =   /* Laplacian diffusion of salt vertically ( m^2/s ) */
(PID.TID 0000.0001)                 1.000000000000000E+00
(PID.TID 0000.0001)     ;
(PID.TID 0000.0001) tAlpha =   /* Linear EOS thermal expansion coefficient ( 1/degree ) */
(PID.TID 0000.0001)                 1.000000000000000E+00
(PID.TID 0000.0001)     ;
(PID.TID 0000.0001) sBeta =   /* Linear EOS haline contraction coefficient ( 1/ppt ) */
(PID.TID 0000.0001)                 0.000000000000000E+00
(PID.TID 0000.0001)     ;
(PID.TID 0000.0001) rhonil =   /* Reference density ( kg/m^3 ) */
(PID.TID 0000.0001)                 1.000000000000000E+00
(PID.TID 0000.0001)     ;
(PID.TID 0000.0001) rhoConst =   /* Reference density ( kg/m^3 ) */
(PID.TID 0000.0001)                 1.000000000000000E+00
(PID.TID 0000.0001)     ;
(PID.TID 0000.0001) gravity =   /* Gravitational acceleration ( m/s^2 ) */
(PID.TID 0000.0001)                 1.400000000000000E+08
(PID.TID 0000.0001)     ;
(PID.TID 0000.0001) gBaro =   /* Barotropic gravity ( m/s^2 ) */
(PID.TID 0000.0001)                 1.400000000000000E+08
(PID.TID 0000.0001)     ;
(PID.TID 0000.0001) f0 =   /* Reference coriolis parameter ( 1/s ) */
(PID.TID 0000.0001)                 1.250000000000000E+03
(PID.TID 0000.0001)     ;
(PID.TID 0000.0001) beta =   /* Beta ( 1/(m.s) ) */
(PID.TID 0000.0001)                 0.000000000000000E+00
(PID.TID 0000.0001)     ;
(PID.TID 0000.0001) freeSurfFac =   /* Implicit free surface factor */
(PID.TID 0000.0001)                 1.000000000000000E+00
(PID.TID 0000.0001)     ;
(PID.TID 0000.0001) implicitFreeSurface =   /* Implicit free surface on/off flag */
(PID.TID 0000.0001)                   T
(PID.TID 0000.0001)     ;
(PID.TID 0000.0001) rigidLid =   /* Rigid lid on/off flag */
(PID.TID 0000.0001)                   F
(PID.TID 0000.0001)     ;
(PID.TID 0000.0001) implicSurfPress =   /* Surface Pressure implicit factor (0-1)*/
(PID.TID 0000.0001)                 1.000000000000000E+00
(PID.TID 0000.0001)     ;
(PID.TID 0000.0001) implicDiv2Dflow =   /* Barot. Flow Div. implicit factor (0-1)*/
(PID.TID 0000.0001)                 1.000000000000000E+00
(PID.TID 0000.0001)     ;
(PID.TID 0000.0001) staggerTimeStep =   /* Stagger time stepping on/off flag */
(PID.TID 0000.0001)                   F
(PID.TID 0000.0001)     ;
(PID.TID 0000.0001) momStepping =  /* Momentum equation on/off flag */
(PID.TID 0000.0001)                   T
(PID.TID 0000.0001)     ;
(PID.TID 0000.0001) momAdvection =  /* Momentum advection on/off flag */
(PID.TID 0000.0001)                   T
(PID.TID 0000.0001)     ;
(PID.TID 0000.0001) momViscosity =  /* Momentum viscosity on/off flag */
(PID.TID 0000.0001)                   T
(PID.TID 0000.0001)     ;
(PID.TID 0000.0001) useCoriolis =  /* Coriolis on/off flag */
(PID.TID 0000.0001)                   T
(PID.TID 0000.0001)     ;
(PID.TID 0000.0001) momForcing =  /* Momentum forcing on/off flag */
(PID.TID 0000.0001)                   T
(PID.TID 0000.0001)     ;
(PID.TID 0000.0001) momPressureForcing =  /* Momentum pressure term on/off flag */
(PID.TID 0000.0001)                   T
(PID.TID 0000.0001)     ;
(PID.TID 0000.0001) tempStepping =  /* Temperature equation on/off flag */
(PID.TID 0000.0001)                   T
(PID.TID 0000.0001)     ;
(PID.TID 0000.0001) nonHydrostatic =  /* Non-Hydrostatic on/off flag */
(PID.TID 0000.0001)                   T
(PID.TID 0000.0001)     ;
(PID.TID 0000.0001) //
(PID.TID 0000.0001) // Elliptic solver(s) paramters ( PARM02 in namelist )
(PID.TID 0000.0001) //
(PID.TID 0000.0001) cg2dMaxIters =   /* Upper limit on 2d con. grad iterations  */
(PID.TID 0000.0001)                    1000
(PID.TID 0000.0001)     ;
(PID.TID 0000.0001) cg2dChkResFreq =   /* 2d con. grad convergence test frequency */
(PID.TID 0000.0001)                       1
(PID.TID 0000.0001)     ;
(PID.TID 0000.0001) cg2dTargetResidual =   /* 2d con. grad target residual  */
(PID.TID 0000.0001)                 1.000000000000000E-09
(PID.TID 0000.0001)     ;
(PID.TID 0000.0001) //
(PID.TID 0000.0001) // Time stepping paramters ( PARM03 in namelist )
(PID.TID 0000.0001) //
(PID.TID 0000.0001) nIter0 =   /* Base timestep number  */
(PID.TID 0000.0001)                       0
(PID.TID 0000.0001)     ;
(PID.TID 0000.0001) nTimeSteps =   /* Number of timesteps */
(PID.TID 0000.0001)                      10
(PID.TID 0000.0001)     ;
(PID.TID 0000.0001) deltatTmom =   /* Momentum equation timestep ( s ) */
(PID.TID 0000.0001)                 2.000000000000000E-04
(PID.TID 0000.0001)     ;
(PID.TID 0000.0001) deltatTtracer =   /* Tracer equation timestep ( s ) */
(PID.TID 0000.0001)                 2.000000000000000E-04
(PID.TID 0000.0001)     ;
(PID.TID 0000.0001) deltatTClock  =   /* Model clock timestep ( s ) */
(PID.TID 0000.0001)                 2.000000000000000E-04
(PID.TID 0000.0001)     ;
(PID.TID 0000.0001) cAdjFreq =   /* Convective adjustment interval ( s ) */
(PID.TID 0000.0001)                 0.000000000000000E+00
(PID.TID 0000.0001)     ;
(PID.TID 0000.0001) abeps =   /* Adams-Bashforth stabilizing weight */
(PID.TID 0000.0001)                 1.000000000000000E-01
(PID.TID 0000.0001)     ;
(PID.TID 0000.0001) tauCD =   /* CD coupling time-scale ( s ) */
(PID.TID 0000.0001)                 2.000000000000000E-04
(PID.TID 0000.0001)     ;
(PID.TID 0000.0001) rCD =   /* Normalised CD coupling parameter */
(PID.TID 0000.0001)                 0.000000000000000E+00
(PID.TID 0000.0001)     ;
(PID.TID 0000.0001) startTime =   /* Run start time ( s ). */
(PID.TID 0000.0001)                 0.000000000000000E+00
(PID.TID 0000.0001)     ;
(PID.TID 0000.0001) endTime =   /* Integration ending time ( s ). */
(PID.TID 0000.0001)                 2.000000000000000E-03
(PID.TID 0000.0001)     ;
(PID.TID 0000.0001) pChkPtFreq =   /* Permanent restart/checkpoint file interval ( s ). */
(PID.TID 0000.0001)                 0.000000000000000E+00
(PID.TID 0000.0001)     ;
(PID.TID 0000.0001) chkPtFreq =   /* Rolling restart/checkpoint file interval ( s ). */
(PID.TID 0000.0001)                 0.000000000000000E+00
(PID.TID 0000.0001)     ;
(PID.TID 0000.0001) dumpFreq =   /* Model state write out interval ( s ). */
(PID.TID 0000.0001)                 1.000000000000000E-01
(PID.TID 0000.0001)     ;
(PID.TID 0000.0001) //
(PID.TID 0000.0001) // Gridding paramters ( PARM04 in namelist )
(PID.TID 0000.0001) //
(PID.TID 0000.0001) usingCartesianGrid =   /* Cartesian coordinates flag ( True / False ) */
(PID.TID 0000.0001)                   T
(PID.TID 0000.0001)     ;
(PID.TID 0000.0001) usingSphericalPolarGrid =   /* Spherical coordinates flag ( True / False ) */
(PID.TID 0000.0001)                   F
(PID.TID 0000.0001)     ;
(PID.TID 0000.0001) groundAtK1 =   /* Lower Boundary (ground) at the surface(k=1) ( T / F ) */
(PID.TID 0000.0001)                   F
(PID.TID 0000.0001)     ;
(PID.TID 0000.0001) Ro_SeaLevel =   /* r(1) ( units of r ) */
(PID.TID 0000.0001)                 0.000000000000000E+00
(PID.TID 0000.0001)     ;
(PID.TID 0000.0001) rkFac =   /* minus Vertical index orientation  */
(PID.TID 0000.0001)                 1.000000000000000E+00
(PID.TID 0000.0001)     ;
(PID.TID 0000.0001) horiVertRatio =   /* Ratio on units : Horiz - Vertical */
(PID.TID 0000.0001)                 1.000000000000000E+00
(PID.TID 0000.0001)     ;
(PID.TID 0000.0001) delZ =   /* W spacing ( m ) */
(PID.TID 0000.0001)    20 @  1.000000000000000E-01              /* K =  1: 20 */
(PID.TID 0000.0001)     ;
(PID.TID 0000.0001) delP =   /* W spacing ( Pa ) */
(PID.TID 0000.0001)    20 @  1.234567000000000E+05              /* K =  1: 20 */
(PID.TID 0000.0001)     ;
(PID.TID 0000.0001) delR =   /* W spacing ( units of r ) */
(PID.TID 0000.0001)    20 @  1.000000000000000E-01              /* K =  1: 20 */
(PID.TID 0000.0001)     ;
(PID.TID 0000.0001) delX =   /* U spacing ( m - cartesian, degrees - spherical ) */
(PID.TID 0000.0001)    64 @  6.250000000000000E-02              /* I =  1: 64 */
(PID.TID 0000.0001)     ;
(PID.TID 0000.0001) delY =   /* V spacing ( m - cartesian, degrees - spherical ) */
(PID.TID 0000.0001)    64 @  6.250000000000000E-02              /* J =  1: 64 */
(PID.TID 0000.0001)     ;
(PID.TID 0000.0001) phiMin =    /* South edge (ignored - cartesian, degrees - spherical ) */
(PID.TID 0000.0001)                 0.000000000000000E+00
(PID.TID 0000.0001)     ;
(PID.TID 0000.0001) thetaMin =    /* West edge ( ignored - cartesian, degrees - spherical ) */
(PID.TID 0000.0001)                 0.000000000000000E+00
(PID.TID 0000.0001)     ;
(PID.TID 0000.0001) rSphere =    /* Radius ( ignored - cartesian, m - spherical ) */
(PID.TID 0000.0001)                 6.370000000000000E+06
(PID.TID 0000.0001)     ;
(PID.TID 0000.0001) xcoord =   /* P-point X coord ( m - cartesian, degrees - spherical ) */
(PID.TID 0000.0001)                 3.125000000000000E-02,      /* I =  1 */
(PID.TID 0000.0001)                 9.375000000000000E-02,      /* I =  2 */
(PID.TID 0000.0001)                 1.562500000000000E-01,      /* I =  3 */
(PID.TID 0000.0001)                 2.187500000000000E-01,      /* I =  4 */
(PID.TID 0000.0001)                 2.812500000000000E-01,      /* I =  5 */
(PID.TID 0000.0001)                 3.437500000000000E-01,      /* I =  6 */
(PID.TID 0000.0001)                 4.062500000000000E-01,      /* I =  7 */
(PID.TID 0000.0001)                 4.687500000000000E-01,      /* I =  8 */
(PID.TID 0000.0001)                 5.312500000000000E-01,      /* I =  9 */
(PID.TID 0000.0001)                 5.937500000000000E-01,      /* I = 10 */
(PID.TID 0000.0001)                 6.562500000000000E-01,      /* I = 11 */
(PID.TID 0000.0001)                 7.187500000000000E-01,      /* I = 12 */
(PID.TID 0000.0001)                 7.812500000000000E-01,      /* I = 13 */
(PID.TID 0000.0001)                 8.437500000000000E-01,      /* I = 14 */
(PID.TID 0000.0001)                 9.062500000000000E-01,      /* I = 15 */
(PID.TID 0000.0001)                 9.687500000000000E-01,      /* I = 16 */
(PID.TID 0000.0001)                 1.031250000000000E+00,      /* I = 17 */
(PID.TID 0000.0001)                 1.093750000000000E+00,      /* I = 18 */
(PID.TID 0000.0001)                 1.156250000000000E+00,      /* I = 19 */
(PID.TID 0000.0001)                 1.218750000000000E+00,      /* I = 20 */
(PID.TID 0000.0001)                 1.281250000000000E+00,      /* I = 21 */
(PID.TID 0000.0001)                 1.343750000000000E+00,      /* I = 22 */
(PID.TID 0000.0001)                 1.406250000000000E+00,      /* I = 23 */
(PID.TID 0000.0001)                 1.468750000000000E+00,      /* I = 24 */
(PID.TID 0000.0001)                 1.531250000000000E+00,      /* I = 25 */
(PID.TID 0000.0001)                 1.593750000000000E+00,      /* I = 26 */
(PID.TID 0000.0001)                 1.656250000000000E+00,      /* I = 27 */
(PID.TID 0000.0001)                 1.718750000000000E+00,      /* I = 28 */
(PID.TID 0000.0001)                 1.781250000000000E+00,      /* I = 29 */
(PID.TID 0000.0001)                 1.843750000000000E+00,      /* I = 30 */
(PID.TID 0000.0001)                 1.906250000000000E+00,      /* I = 31 */
(PID.TID 0000.0001)                 1.968750000000000E+00,      /* I = 32 */
(PID.TID 0000.0001)                 2.031250000000000E+00,      /* I = 33 */
(PID.TID 0000.0001)                 2.093750000000000E+00,      /* I = 34 */
(PID.TID 0000.0001)                 2.156250000000000E+00,      /* I = 35 */
(PID.TID 0000.0001)                 2.218750000000000E+00,      /* I = 36 */
(PID.TID 0000.0001)                 2.281250000000000E+00,      /* I = 37 */
(PID.TID 0000.0001)                 2.343750000000000E+00,      /* I = 38 */
(PID.TID 0000.0001)                 2.406250000000000E+00,      /* I = 39 */
(PID.TID 0000.0001)                 2.468750000000000E+00,      /* I = 40 */
(PID.TID 0000.0001)                 2.531250000000000E+00,      /* I = 41 */
(PID.TID 0000.0001)                 2.593750000000000E+00,      /* I = 42 */
(PID.TID 0000.0001)                 2.656250000000000E+00,      /* I = 43 */
(PID.TID 0000.0001)                 2.718750000000000E+00,      /* I = 44 */
(PID.TID 0000.0001)                 2.781250000000000E+00,      /* I = 45 */
(PID.TID 0000.0001)                 2.843750000000000E+00,      /* I = 46 */
(PID.TID 0000.0001)                 2.906250000000000E+00,      /* I = 47 */
(PID.TID 0000.0001)                 2.968750000000000E+00,      /* I = 48 */
(PID.TID 0000.0001)                 3.031250000000000E+00,      /* I = 49 */
(PID.TID 0000.0001)                 3.093750000000000E+00,      /* I = 50 */
(PID.TID 0000.0001)                 3.156250000000000E+00,      /* I = 51 */
(PID.TID 0000.0001)                 3.218750000000000E+00,      /* I = 52 */
(PID.TID 0000.0001)                 3.281250000000000E+00,      /* I = 53 */
(PID.TID 0000.0001)                 3.343750000000000E+00,      /* I = 54 */
(PID.TID 0000.0001)                 3.406250000000000E+00,      /* I = 55 */
(PID.TID 0000.0001)                 3.468750000000000E+00,      /* I = 56 */
(PID.TID 0000.0001)                 3.531250000000000E+00,      /* I = 57 */
(PID.TID 0000.0001)                 3.593750000000000E+00,      /* I = 58 */
(PID.TID 0000.0001)                 3.656250000000000E+00,      /* I = 59 */
(PID.TID 0000.0001)                 3.718750000000000E+00,      /* I = 60 */
(PID.TID 0000.0001)                 3.781250000000000E+00,      /* I = 61 */
(PID.TID 0000.0001)                 3.843750000000000E+00,      /* I = 62 */
(PID.TID 0000.0001)                 3.906250000000000E+00,      /* I = 63 */
(PID.TID 0000.0001)                 3.968750000000000E+00       /* I = 64 */
(PID.TID 0000.0001)     ;
(PID.TID 0000.0001) ycoord =   /* P-point Y coord ( m - cartesian, degrees - spherical ) */
(PID.TID 0000.0001)                 3.125000000000000E-02,      /* J =  1 */
(PID.TID 0000.0001)                 9.375000000000000E-02,      /* J =  2 */
(PID.TID 0000.0001)                 1.562500000000000E-01,      /* J =  3 */
(PID.TID 0000.0001)                 2.187500000000000E-01,      /* J =  4 */
(PID.TID 0000.0001)                 2.812500000000000E-01,      /* J =  5 */
(PID.TID 0000.0001)                 3.437500000000000E-01,      /* J =  6 */
(PID.TID 0000.0001)                 4.062500000000000E-01,      /* J =  7 */
(PID.TID 0000.0001)                 4.687500000000000E-01,      /* J =  8 */
(PID.TID 0000.0001)                 5.312500000000000E-01,      /* J =  9 */
(PID.TID 0000.0001)                 5.937500000000000E-01,      /* J = 10 */
(PID.TID 0000.0001)                 6.562500000000000E-01,      /* J = 11 */
(PID.TID 0000.0001)                 7.187500000000000E-01,      /* J = 12 */
(PID.TID 0000.0001)                 7.812500000000000E-01,      /* J = 13 */
(PID.TID 0000.0001)                 8.437500000000000E-01,      /* J = 14 */
(PID.TID 0000.0001)                 9.062500000000000E-01,      /* J = 15 */
(PID.TID 0000.0001)                 9.687500000000000E-01,      /* J = 16 */
(PID.TID 0000.0001)                 1.031250000000000E+00,      /* J = 17 */
(PID.TID 0000.0001)                 1.093750000000000E+00,      /* J = 18 */
(PID.TID 0000.0001)                 1.156250000000000E+00,      /* J = 19 */
(PID.TID 0000.0001)                 1.218750000000000E+00,      /* J = 20 */
(PID.TID 0000.0001)                 1.281250000000000E+00,      /* J = 21 */
(PID.TID 0000.0001)                 1.343750000000000E+00,      /* J = 22 */
(PID.TID 0000.0001)                 1.406250000000000E+00,      /* J = 23 */
(PID.TID 0000.0001)                 1.468750000000000E+00,      /* J = 24 */
(PID.TID 0000.0001)                 1.531250000000000E+00,      /* J = 25 */
(PID.TID 0000.0001)                 1.593750000000000E+00,      /* J = 26 */
(PID.TID 0000.0001)                 1.656250000000000E+00,      /* J = 27 */
(PID.TID 0000.0001)                 1.718750000000000E+00,      /* J = 28 */
(PID.TID 0000.0001)                 1.781250000000000E+00,      /* J = 29 */
(PID.TID 0000.0001)                 1.843750000000000E+00,      /* J = 30 */
(PID.TID 0000.0001)                 1.906250000000000E+00,      /* J = 31 */
(PID.TID 0000.0001)                 1.968750000000000E+00,      /* J = 32 */
(PID.TID 0000.0001)                 2.031250000000000E+00,      /* J = 33 */
(PID.TID 0000.0001)                 2.093750000000000E+00,      /* J = 34 */
(PID.TID 0000.0001)                 2.156250000000000E+00,      /* J = 35 */
(PID.TID 0000.0001)                 2.218750000000000E+00,      /* J = 36 */
(PID.TID 0000.0001)                 2.281250000000000E+00,      /* J = 37 */
(PID.TID 0000.0001)                 2.343750000000000E+00,      /* J = 38 */
(PID.TID 0000.0001)                 2.406250000000000E+00,      /* J = 39 */
(PID.TID 0000.0001)                 2.468750000000000E+00,      /* J = 40 */
(PID.TID 0000.0001)                 2.531250000000000E+00,      /* J = 41 */
(PID.TID 0000.0001)                 2.593750000000000E+00,      /* J = 42 */
(PID.TID 0000.0001)                 2.656250000000000E+00,      /* J = 43 */
(PID.TID 0000.0001)                 2.718750000000000E+00,      /* J = 44 */
(PID.TID 0000.0001)                 2.781250000000000E+00,      /* J = 45 */
(PID.TID 0000.0001)                 2.843750000000000E+00,      /* J = 46 */
(PID.TID 0000.0001)                 2.906250000000000E+00,      /* J = 47 */
(PID.TID 0000.0001)                 2.968750000000000E+00,      /* J = 48 */
(PID.TID 0000.0001)                 3.031250000000000E+00,      /* J = 49 */
(PID.TID 0000.0001)                 3.093750000000000E+00,      /* J = 50 */
(PID.TID 0000.0001)                 3.156250000000000E+00,      /* J = 51 */
(PID.TID 0000.0001)                 3.218750000000000E+00,      /* J = 52 */
(PID.TID 0000.0001)                 3.281250000000000E+00,      /* J = 53 */
(PID.TID 0000.0001)                 3.343750000000000E+00,      /* J = 54 */
(PID.TID 0000.0001)                 3.406250000000000E+00,      /* J = 55 */
(PID.TID 0000.0001)                 3.468750000000000E+00,      /* J = 56 */
(PID.TID 0000.0001)                 3.531250000000000E+00,      /* J = 57 */
(PID.TID 0000.0001)                 3.593750000000000E+00,      /* J = 58 */
(PID.TID 0000.0001)                 3.656250000000000E+00,      /* J = 59 */
(PID.TID 0000.0001)                 3.718750000000000E+00,      /* J = 60 */
(PID.TID 0000.0001)                 3.781250000000000E+00,      /* J = 61 */
(PID.TID 0000.0001)                 3.843750000000000E+00,      /* J = 62 */
(PID.TID 0000.0001)                 3.906250000000000E+00,      /* J = 63 */
(PID.TID 0000.0001)                 3.968750000000000E+00       /* J = 64 */
(PID.TID 0000.0001)     ;
(PID.TID 0000.0001) rcoord =   /* P-point R coordinate (  units of r ) */
(PID.TID 0000.0001)                -5.000000000000000E-02,      /* K =  1 */
(PID.TID 0000.0001)                -1.500000000000000E-01,      /* K =  2 */
(PID.TID 0000.0001)                -2.500000000000000E-01,      /* K =  3 */
(PID.TID 0000.0001)                -3.500000000000000E-01,      /* K =  4 */
(PID.TID 0000.0001)                -4.500000000000001E-01,      /* K =  5 */
(PID.TID 0000.0001)                -5.500000000000000E-01,      /* K =  6 */
(PID.TID 0000.0001)                -6.500000000000000E-01,      /* K =  7 */
(PID.TID 0000.0001)                -7.500000000000000E-01,      /* K =  8 */
(PID.TID 0000.0001)                -8.500000000000000E-01,      /* K =  9 */
(PID.TID 0000.0001)                -9.500000000000000E-01,      /* K = 10 */
(PID.TID 0000.0001)                -1.050000000000000E+00,      /* K = 11 */
(PID.TID 0000.0001)                -1.150000000000000E+00,      /* K = 12 */
(PID.TID 0000.0001)                -1.250000000000000E+00,      /* K = 13 */
(PID.TID 0000.0001)                -1.350000000000000E+00,      /* K = 14 */
(PID.TID 0000.0001)                -1.450000000000000E+00,      /* K = 15 */
(PID.TID 0000.0001)                -1.550000000000000E+00,      /* K = 16 */
(PID.TID 0000.0001)                -1.650000000000001E+00,      /* K = 17 */
(PID.TID 0000.0001)                -1.750000000000001E+00,      /* K = 18 */
(PID.TID 0000.0001)                -1.850000000000001E+00,      /* K = 19 */
(PID.TID 0000.0001)                -1.950000000000001E+00       /* K = 20 */
(PID.TID 0000.0001)     ;
(PID.TID 0000.0001) dxF =  /* dxF(:,1,:,1) ( m - cartesian, degrees - spherical ) */
(PID.TID 0000.0001)    64 @  6.250000000000000E-02              /* I =  1: 64 */
(PID.TID 0000.0001)     ;
(PID.TID 0000.0001) dxF =  /* dxF(1,:,1,:) ( m - cartesian, degrees - spherical ) */
(PID.TID 0000.0001)    64 @  6.250000000000000E-02              /* J =  1: 64 */
(PID.TID 0000.0001)     ;
(PID.TID 0000.0001) dyF =  /* dyF(:,1,:,1) ( m - cartesian, degrees - spherical ) */
(PID.TID 0000.0001)    64 @  6.250000000000000E-02              /* I =  1: 64 */
(PID.TID 0000.0001)     ;
(PID.TID 0000.0001) dyF =  /* dyF(1,:,1,:) ( m - cartesian, degrees - spherical ) */
(PID.TID 0000.0001)    64 @  6.250000000000000E-02              /* J =  1: 64 */
(PID.TID 0000.0001)     ;
(PID.TID 0000.0001) dxG =  /* dxG(:,1,:,1) ( m - cartesian, degrees - spherical ) */
(PID.TID 0000.0001)    64 @  6.250000000000000E-02              /* I =  1: 64 */
(PID.TID 0000.0001)     ;
(PID.TID 0000.0001) dxG =  /* dxG(1,:,1,:) ( m - cartesian, degrees - spherical ) */
(PID.TID 0000.0001)    64 @  6.250000000000000E-02              /* J =  1: 64 */
(PID.TID 0000.0001)     ;
(PID.TID 0000.0001) dyG =  /* dyG(:,1,:,1) ( m - cartesian, degrees - spherical ) */
(PID.TID 0000.0001)    64 @  6.250000000000000E-02              /* I =  1: 64 */
(PID.TID 0000.0001)     ;
(PID.TID 0000.0001) dyG =  /* dyG(1,:,1,:) ( m - cartesian, degrees - spherical ) */
(PID.TID 0000.0001)    64 @  6.250000000000000E-02              /* J =  1: 64 */
(PID.TID 0000.0001)     ;
(PID.TID 0000.0001) dxC =  /* dxC(:,1,:,1) ( m - cartesian, degrees - spherical ) */
(PID.TID 0000.0001)    64 @  6.250000000000000E-02              /* I =  1: 64 */
(PID.TID 0000.0001)     ;
(PID.TID 0000.0001) dxC =  /* dxC(1,:,1,:) ( m - cartesian, degrees - spherical ) */
(PID.TID 0000.0001)    64 @  6.250000000000000E-02              /* J =  1: 64 */
(PID.TID 0000.0001)     ;
(PID.TID 0000.0001) dyC =  /* dyC(:,1,:,1) ( m - cartesian, degrees - spherical ) */
(PID.TID 0000.0001)    64 @  6.250000000000000E-02              /* I =  1: 64 */
(PID.TID 0000.0001)     ;
(PID.TID 0000.0001) dyC =  /* dyC(1,:,1,:) ( m - cartesian, degrees - spherical ) */
(PID.TID 0000.0001)    64 @  6.250000000000000E-02              /* J =  1: 64 */
(PID.TID 0000.0001)     ;
(PID.TID 0000.0001) dxV =  /* dxV(:,1,:,1) ( m - cartesian, degrees - spherical ) */
(PID.TID 0000.0001)    64 @  6.250000000000000E-02              /* I =  1: 64 */
(PID.TID 0000.0001)     ;
(PID.TID 0000.0001) dxV =  /* dxV(1,:,1,:) ( m - cartesian, degrees - spherical ) */
(PID.TID 0000.0001)    64 @  6.250000000000000E-02              /* J =  1: 64 */
(PID.TID 0000.0001)     ;
(PID.TID 0000.0001) dyU =  /* dyU(:,1,:,1) ( m - cartesian, degrees - spherical ) */
(PID.TID 0000.0001)    64 @  6.250000000000000E-02              /* I =  1: 64 */
(PID.TID 0000.0001)     ;
(PID.TID 0000.0001) dyU =  /* dyU(1,:,1,:) ( m - cartesian, degrees - spherical ) */
(PID.TID 0000.0001)    64 @  6.250000000000000E-02              /* J =  1: 64 */
(PID.TID 0000.0001)     ;
(PID.TID 0000.0001) rA =  /* rA(:,1,:,1) ( m - cartesian, degrees - spherical ) */
(PID.TID 0000.0001)    64 @  3.906250000000000E-03              /* I =  1: 64 */
(PID.TID 0000.0001)     ;
(PID.TID 0000.0001) rA =  /* rA(1,:,1,:) ( m - cartesian, degrees - spherical ) */
(PID.TID 0000.0001)    64 @  3.906250000000000E-03              /* J =  1: 64 */
(PID.TID 0000.0001)     ;
(PID.TID 0000.0001) rAw =  /* rAw(:,1,:,1) ( m - cartesian, degrees - spherical ) */
(PID.TID 0000.0001)    64 @  3.906250000000000E-03              /* I =  1: 64 */
(PID.TID 0000.0001)     ;
(PID.TID 0000.0001) rAw =  /* rAw(1,:,1,:) ( m - cartesian, degrees - spherical ) */
(PID.TID 0000.0001)    64 @  3.906250000000000E-03              /* J =  1: 64 */
(PID.TID 0000.0001)     ;
(PID.TID 0000.0001) rAs =  /* rAs(:,1,:,1) ( m - cartesian, degrees - spherical ) */
(PID.TID 0000.0001)    64 @  3.906250000000000E-03              /* I =  1: 64 */
(PID.TID 0000.0001)     ;
(PID.TID 0000.0001) rAs =  /* rAs(1,:,1,:) ( m - cartesian, degrees - spherical ) */
(PID.TID 0000.0001)    64 @  3.906250000000000E-03              /* J =  1: 64 */
(PID.TID 0000.0001)     ;
(PID.TID 0000.0001) 
(PID.TID 0000.0001) // =======================================================
(PID.TID 0000.0001) // Field Initial Temperature at iteration          1
(PID.TID 0000.0001) // CMIN =          1.000000000000000E+00
(PID.TID 0000.0001) // CMAX =          1.000000000000000E+00
(PID.TID 0000.0001) // CINT =          0.000000000000000E+00
(PID.TID 0000.0001) // SYMBOLS (CMIN->CMAX): -abcdefghijklmnopqrstuvwxyz+
(PID.TID 0000.0001) //                  0.0: .
(PID.TID 0000.0001) // RANGE I (Lo:Hi:Step):(   1:  64:   1)
(PID.TID 0000.0001) // RANGE J (Lo:Hi:Step):(  64:   1:  -1)
(PID.TID 0000.0001) // RANGE K (Lo:Hi:Step):(   1:   1:   1)
(PID.TID 0000.0001) // =======================================================
(PID.TID 0000.0001) K =   1
(PID.TID 0000.0001)                I=10      I=20      I=30      I=40      I=50      I=60
(PID.TID 0000.0001) |--J--|123456789|123456789|123456789|123456789|123456789|123456789|1234
(PID.TID 0000.0001)     64 ----------------------------------------------------------------
(PID.TID 0000.0001)     63 ----------------------------------------------------------------
(PID.TID 0000.0001)     62 ----------------------------------------------------------------
(PID.TID 0000.0001)     61 ----------------------------------------------------------------
(PID.TID 0000.0001)     60 ----------------------------------------------------------------
(PID.TID 0000.0001)     59 ----------------------------------------------------------------
(PID.TID 0000.0001)     58 ----------------------------------------------------------------
(PID.TID 0000.0001)     57 ----------------------------------------------------------------
(PID.TID 0000.0001)     56 ----------------------------------------------------------------
(PID.TID 0000.0001)     55 ----------------------------------------------------------------
(PID.TID 0000.0001)     54 ----------------------------------------------------------------
(PID.TID 0000.0001)     53 ----------------------------------------------------------------
(PID.TID 0000.0001)     52 ----------------------------------------------------------------
(PID.TID 0000.0001)     51 ----------------------------------------------------------------
(PID.TID 0000.0001)     50 ----------------------------------------------------------------
(PID.TID 0000.0001)     49 ----------------------------------------------------------------
(PID.TID 0000.0001)     48 ----------------------------------------------------------------
(PID.TID 0000.0001)     47 ----------------------------------------------------------------
(PID.TID 0000.0001)     46 ----------------------------------------------------------------
(PID.TID 0000.0001)     45 ----------------------------------------------------------------
(PID.TID 0000.0001)     44 ----------------------------------------------------------------
(PID.TID 0000.0001)     43 ----------------------------------------------------------------
(PID.TID 0000.0001)     42 ----------------------------------------------------------------
(PID.TID 0000.0001)     41 ----------------------------------------------------------------
(PID.TID 0000.0001)     40 ----------------------------------------------------------------
(PID.TID 0000.0001)     39 ----------------------------------------------------------------
(PID.TID 0000.0001)     38 ----------------------------------------------------------------
(PID.TID 0000.0001)     37 ----------------------------------------------------------------
(PID.TID 0000.0001)     36 ----------------------------------------------------------------
(PID.TID 0000.0001)     35 ----------------------------------------------------------------
(PID.TID 0000.0001)     34 ----------------------------------------------------------------
(PID.TID 0000.0001)     33 ----------------------------------------------------------------
(PID.TID 0000.0001)     32 ----------------------------------------------------------------
(PID.TID 0000.0001)     31 ----------------------------------------------------------------
(PID.TID 0000.0001)     30 ----------------------------------------------------------------
(PID.TID 0000.0001)     29 ----------------------------------------------------------------
(PID.TID 0000.0001)     28 ----------------------------------------------------------------
(PID.TID 0000.0001)     27 ----------------------------------------------------------------
(PID.TID 0000.0001)     26 ----------------------------------------------------------------
(PID.TID 0000.0001)     25 ----------------------------------------------------------------
(PID.TID 0000.0001)     24 ----------------------------------------------------------------
(PID.TID 0000.0001)     23 ----------------------------------------------------------------
(PID.TID 0000.0001)     22 ----------------------------------------------------------------
(PID.TID 0000.0001)     21 ----------------------------------------------------------------
(PID.TID 0000.0001)     20 ----------------------------------------------------------------
(PID.TID 0000.0001)     19 ----------------------------------------------------------------
(PID.TID 0000.0001)     18 ----------------------------------------------------------------
(PID.TID 0000.0001)     17 ----------------------------------------------------------------
(PID.TID 0000.0001)     16 ----------------------------------------------------------------
(PID.TID 0000.0001)     15 ----------------------------------------------------------------
(PID.TID 0000.0001)     14 ----------------------------------------------------------------
(PID.TID 0000.0001)     13 ----------------------------------------------------------------
(PID.TID 0000.0001)     12 ----------------------------------------------------------------
(PID.TID 0000.0001)     11 ----------------------------------------------------------------
(PID.TID 0000.0001)     10 ----------------------------------------------------------------
(PID.TID 0000.0001)      9 ----------------------------------------------------------------
(PID.TID 0000.0001)      8 ----------------------------------------------------------------
(PID.TID 0000.0001)      7 ----------------------------------------------------------------
(PID.TID 0000.0001)      6 ----------------------------------------------------------------
(PID.TID 0000.0001)      5 ----------------------------------------------------------------
(PID.TID 0000.0001)      4 ----------------------------------------------------------------
(PID.TID 0000.0001)      3 ----------------------------------------------------------------
(PID.TID 0000.0001)      2 ----------------------------------------------------------------
(PID.TID 0000.0001)      1 ----------------------------------------------------------------
(PID.TID 0000.0001) // =======================================================
(PID.TID 0000.0001) // END OF FIELD                                          =
(PID.TID 0000.0001) // =======================================================
(PID.TID 0000.0001) 
(PID.TID 0000.0001) // =======================================================
(PID.TID 0000.0001) // Field Initial Salinity at iteration          1
(PID.TID 0000.0001) // CMIN =          3.500000000000000E+01
(PID.TID 0000.0001) // CMAX =          3.500000000000000E+01
(PID.TID 0000.0001) // CINT =          0.000000000000000E+00
(PID.TID 0000.0001) // SYMBOLS (CMIN->CMAX): -abcdefghijklmnopqrstuvwxyz+
(PID.TID 0000.0001) //                  0.0: .
(PID.TID 0000.0001) // RANGE I (Lo:Hi:Step):(   1:  64:   1)
(PID.TID 0000.0001) // RANGE J (Lo:Hi:Step):(  64:   1:  -1)
(PID.TID 0000.0001) // RANGE K (Lo:Hi:Step):(   1:   1:   1)
(PID.TID 0000.0001) // =======================================================
(PID.TID 0000.0001) K =   1
(PID.TID 0000.0001)                I=10      I=20      I=30      I=40      I=50      I=60
(PID.TID 0000.0001) |--J--|123456789|123456789|123456789|123456789|123456789|123456789|1234
(PID.TID 0000.0001)     64 ----------------------------------------------------------------
(PID.TID 0000.0001)     63 ----------------------------------------------------------------
(PID.TID 0000.0001)     62 ----------------------------------------------------------------
(PID.TID 0000.0001)     61 ----------------------------------------------------------------
(PID.TID 0000.0001)     60 ----------------------------------------------------------------
(PID.TID 0000.0001)     59 ----------------------------------------------------------------
(PID.TID 0000.0001)     58 ----------------------------------------------------------------
(PID.TID 0000.0001)     57 ----------------------------------------------------------------
(PID.TID 0000.0001)     56 ----------------------------------------------------------------
(PID.TID 0000.0001)     55 ----------------------------------------------------------------
(PID.TID 0000.0001)     54 ----------------------------------------------------------------
(PID.TID 0000.0001)     53 ----------------------------------------------------------------
(PID.TID 0000.0001)     52 ----------------------------------------------------------------
(PID.TID 0000.0001)     51 ----------------------------------------------------------------
(PID.TID 0000.0001)     50 ----------------------------------------------------------------
(PID.TID 0000.0001)     49 ----------------------------------------------------------------
(PID.TID 0000.0001)     48 ----------------------------------------------------------------
(PID.TID 0000.0001)     47 ----------------------------------------------------------------
(PID.TID 0000.0001)     46 ----------------------------------------------------------------
(PID.TID 0000.0001)     45 ----------------------------------------------------------------
(PID.TID 0000.0001)     44 ----------------------------------------------------------------
(PID.TID 0000.0001)     43 ----------------------------------------------------------------
(PID.TID 0000.0001)     42 ----------------------------------------------------------------
(PID.TID 0000.0001)     41 ----------------------------------------------------------------
(PID.TID 0000.0001)     40 ----------------------------------------------------------------
(PID.TID 0000.0001)     39 ----------------------------------------------------------------
(PID.TID 0000.0001)     38 ----------------------------------------------------------------
(PID.TID 0000.0001)     37 ----------------------------------------------------------------
(PID.TID 0000.0001)     36 ----------------------------------------------------------------
(PID.TID 0000.0001)     35 ----------------------------------------------------------------
(PID.TID 0000.0001)     34 ----------------------------------------------------------------
(PID.TID 0000.0001)     33 ----------------------------------------------------------------
(PID.TID 0000.0001)     32 ----------------------------------------------------------------
(PID.TID 0000.0001)     31 ----------------------------------------------------------------
(PID.TID 0000.0001)     30 ----------------------------------------------------------------
(PID.TID 0000.0001)     29 ----------------------------------------------------------------
(PID.TID 0000.0001)     28 ----------------------------------------------------------------
(PID.TID 0000.0001)     27 ----------------------------------------------------------------
(PID.TID 0000.0001)     26 ----------------------------------------------------------------
(PID.TID 0000.0001)     25 ----------------------------------------------------------------
(PID.TID 0000.0001)     24 ----------------------------------------------------------------
(PID.TID 0000.0001)     23 ----------------------------------------------------------------
(PID.TID 0000.0001)     22 ----------------------------------------------------------------
(PID.TID 0000.0001)     21 ----------------------------------------------------------------
(PID.TID 0000.0001)     20 ----------------------------------------------------------------
(PID.TID 0000.0001)     19 ----------------------------------------------------------------
(PID.TID 0000.0001)     18 ----------------------------------------------------------------
(PID.TID 0000.0001)     17 ----------------------------------------------------------------
(PID.TID 0000.0001)     16 ----------------------------------------------------------------
(PID.TID 0000.0001)     15 ----------------------------------------------------------------
(PID.TID 0000.0001)     14 ----------------------------------------------------------------
(PID.TID 0000.0001)     13 ----------------------------------------------------------------
(PID.TID 0000.0001)     12 ----------------------------------------------------------------
(PID.TID 0000.0001)     11 ----------------------------------------------------------------
(PID.TID 0000.0001)     10 ----------------------------------------------------------------
(PID.TID 0000.0001)      9 ----------------------------------------------------------------
(PID.TID 0000.0001)      8 ----------------------------------------------------------------
(PID.TID 0000.0001)      7 ----------------------------------------------------------------
(PID.TID 0000.0001)      6 ----------------------------------------------------------------
(PID.TID 0000.0001)      5 ----------------------------------------------------------------
(PID.TID 0000.0001)      4 ----------------------------------------------------------------
(PID.TID 0000.0001)      3 ----------------------------------------------------------------
(PID.TID 0000.0001)      2 ----------------------------------------------------------------
(PID.TID 0000.0001)      1 ----------------------------------------------------------------
(PID.TID 0000.0001) // =======================================================
(PID.TID 0000.0001) // END OF FIELD                                          =
(PID.TID 0000.0001) // =======================================================
(PID.TID 0000.0001) 
(PID.TID 0000.0001)  MDSREADFIELD: opening global file: Qnet.circle
(PID.TID 0000.0001) // =======================================================
(PID.TID 0000.0001) // Model current state
(PID.TID 0000.0001) // =======================================================
(PID.TID 0000.0001) 
(PID.TID 0000.0001) // =======================================================
(PID.TID 0000.0001) // Begin MONITOR dynamic field statistics
(PID.TID 0000.0001) // =======================================================
(PID.TID 0000.0001) %MON time_tsnumber                =                     0
(PID.TID 0000.0001) %MON time_secondsf                =   0.0000000000000E+00
(PID.TID 0000.0001) %MON time_secondsi                =                     0
(PID.TID 0000.0001) %MON dynstat_eta_max              =   0.0000000000000E+00
(PID.TID 0000.0001) %MON dynstat_eta_min              =   0.0000000000000E+00
(PID.TID 0000.0001) %MON dynstat_eta_mean             =   0.0000000000000E+00
(PID.TID 0000.0001) %MON dynstat_eta_sd               =   0.0000000000000E+00
(PID.TID 0000.0001) %MON dynstat_uvel_max             =   0.0000000000000E+00
(PID.TID 0000.0001) %MON dynstat_uvel_min             =   0.0000000000000E+00
(PID.TID 0000.0001) %MON dynstat_uvel_mean            =   0.0000000000000E+00
(PID.TID 0000.0001) %MON dynstat_uvel_sd              =   0.0000000000000E+00
(PID.TID 0000.0001) %MON dynstat_vvel_max             =   0.0000000000000E+00
(PID.TID 0000.0001) %MON dynstat_vvel_min             =   0.0000000000000E+00
(PID.TID 0000.0001) %MON dynstat_vvel_mean            =   0.0000000000000E+00
(PID.TID 0000.0001) %MON dynstat_vvel_sd              =   0.0000000000000E+00
(PID.TID 0000.0001) %MON dynstat_wvel_max             =   0.0000000000000E+00
(PID.TID 0000.0001) %MON dynstat_wvel_min             =   0.0000000000000E+00
(PID.TID 0000.0001) %MON dynstat_wvel_mean            =   0.0000000000000E+00
(PID.TID 0000.0001) %MON dynstat_wvel_sd              =   0.0000000000000E+00
(PID.TID 0000.0001) %MON dynstat_theta_max            =   1.0000000000000E+00
(PID.TID 0000.0001) %MON dynstat_theta_min            =   1.0000000000000E+00
(PID.TID 0000.0001) %MON dynstat_theta_mean           =   1.0000000000000E+00
(PID.TID 0000.0001) %MON dynstat_theta_sd             =   0.0000000000000E+00
(PID.TID 0000.0001) %MON dynstat_salt_max             =   3.5000000000000E+01
(PID.TID 0000.0001) %MON dynstat_salt_min             =   3.5000000000000E+01
(PID.TID 0000.0001) %MON dynstat_salt_mean            =   3.5000000000000E+01
(PID.TID 0000.0001) %MON dynstat_salt_sd              =   0.0000000000000E+00
(PID.TID 0000.0001) %MON advcfl_uvel_max              =   0.0000000000000E+00
(PID.TID 0000.0001) %MON advcfl_vvel_max              =   0.0000000000000E+00
(PID.TID 0000.0001) %MON advcfl_wvel_max              =   0.0000000000000E+00
(PID.TID 0000.0001) %MON ke_max                       =   0.0000000000000E+00
(PID.TID 0000.0001) %MON ke_mean                      =   0.0000000000000E+00
(PID.TID 0000.0001) // =======================================================
(PID.TID 0000.0001) // End MONITOR dynamic field statistics
(PID.TID 0000.0001) // =======================================================
 cg2d: Sum(rhs),rhsMax =   0.00000000000000E+00  0.00000000000000E+00
(PID.TID 0000.0001)                    cg2d_init_res =    0.00000000000000E+00
(PID.TID 0000.0001)                       cg2d_iters =     0
(PID.TID 0000.0001)                         cg2d_res =    0.00000000000000E+00
 cg3d: Sum(rhs),rhsMax =   0.00000000000000E+00  0.00000000000000E+00
(PID.TID 0000.0001)                    cg3d_init_res =    0.00000000000000E+00
(PID.TID 0000.0001)                       cg3d_iters =     0
(PID.TID 0000.0001)                         cg3d_res =    0.00000000000000E+00
(PID.TID 0000.0001) // =======================================================
(PID.TID 0000.0001) // Begin MONITOR dynamic field statistics
(PID.TID 0000.0001) // =======================================================
(PID.TID 0000.0001) %MON time_tsnumber                =                     1
(PID.TID 0000.0001) %MON time_secondsf                =   2.0000000000000E-04
(PID.TID 0000.0001) %MON time_secondsi                =                     0
(PID.TID 0000.0001) %MON dynstat_eta_max              =   0.0000000000000E+00
(PID.TID 0000.0001) %MON dynstat_eta_min              =   0.0000000000000E+00
(PID.TID 0000.0001) %MON dynstat_eta_mean             =   0.0000000000000E+00
(PID.TID 0000.0001) %MON dynstat_eta_sd               =   0.0000000000000E+00
(PID.TID 0000.0001) %MON dynstat_uvel_max             =   0.0000000000000E+00
(PID.TID 0000.0001) %MON dynstat_uvel_min             =   0.0000000000000E+00
(PID.TID 0000.0001) %MON dynstat_uvel_mean            =   0.0000000000000E+00
(PID.TID 0000.0001) %MON dynstat_uvel_sd              =   0.0000000000000E+00
(PID.TID 0000.0001) %MON dynstat_vvel_max             =   0.0000000000000E+00
(PID.TID 0000.0001) %MON dynstat_vvel_min             =   0.0000000000000E+00
(PID.TID 0000.0001) %MON dynstat_vvel_mean            =   0.0000000000000E+00
(PID.TID 0000.0001) %MON dynstat_vvel_sd              =   0.0000000000000E+00
(PID.TID 0000.0001) %MON dynstat_wvel_max             =   0.0000000000000E+00
(PID.TID 0000.0001) %MON dynstat_wvel_min             =   0.0000000000000E+00
(PID.TID 0000.0001) %MON dynstat_wvel_mean            =   0.0000000000000E+00
(PID.TID 0000.0001) %MON dynstat_wvel_sd              =   0.0000000000000E+00
(PID.TID 0000.0001) %MON dynstat_theta_max            =   1.0000000000000E+00
(PID.TID 0000.0001) %MON dynstat_theta_min            =   9.9676800968800E-01
(PID.TID 0000.0001) %MON dynstat_theta_mean           =   9.9983919582094E-01
(PID.TID 0000.0001) %MON dynstat_theta_sd             =   7.0093223142474E-04
(PID.TID 0000.0001) %MON dynstat_salt_max             =   3.5000000000000E+01
(PID.TID 0000.0001) %MON dynstat_salt_min             =   3.5000000000000E+01
(PID.TID 0000.0001) %MON dynstat_salt_mean            =   3.5000000000000E+01
(PID.TID 0000.0001) %MON dynstat_salt_sd              =   0.0000000000000E+00
(PID.TID 0000.0001) %MON advcfl_uvel_max              =   0.0000000000000E+00
(PID.TID 0000.0001) %MON advcfl_vvel_max              =   0.0000000000000E+00
(PID.TID 0000.0001) %MON advcfl_wvel_max              =   0.0000000000000E+00
(PID.TID 0000.0001) %MON ke_max                       =   0.0000000000000E+00
(PID.TID 0000.0001) %MON ke_mean                      =   0.0000000000000E+00
(PID.TID 0000.0001) // =======================================================
(PID.TID 0000.0001) // End MONITOR dynamic field statistics
(PID.TID 0000.0001) // =======================================================
 cg2d: Sum(rhs),rhsMax =  -3.49720252756924E-15  2.41458421986719E+03
(PID.TID 0000.0001)                    cg2d_init_res =    2.42404160369343E+01
(PID.TID 0000.0001)                       cg2d_iters =    75
(PID.TID 0000.0001)                         cg2d_res =    9.32959722497950E-10
 cg3d: Sum(rhs),rhsMax =   6.43634451291675E-14  1.17855352609102E+03
(PID.TID 0000.0001)                    cg3d_init_res =    2.48899184039967E+01
(PID.TID 0000.0001)                       cg3d_iters =    40
(PID.TID 0000.0001)                         cg3d_res =    1.61891696351881E-03
(PID.TID 0000.0001) // =======================================================
(PID.TID 0000.0001) // Begin MONITOR dynamic field statistics
(PID.TID 0000.0001) // =======================================================
(PID.TID 0000.0001) %MON time_tsnumber                =                     2
(PID.TID 0000.0001) %MON time_secondsf                =   4.0000000000000E-04
(PID.TID 0000.0001) %MON time_secondsi                =                     0
(PID.TID 0000.0001) %MON dynstat_eta_max              =   2.5098946213047E-06
(PID.TID 0000.0001) %MON dynstat_eta_min              =  -2.4811610694944E-06
(PID.TID 0000.0001) %MON dynstat_eta_mean             =   8.5088838439062E-21
(PID.TID 0000.0001) %MON dynstat_eta_sd               =   1.4457852391780E-06
(PID.TID 0000.0001) %MON dynstat_uvel_max             =   1.1234702354172E-01
(PID.TID 0000.0001) %MON dynstat_uvel_min             =  -1.1988495340449E-01
(PID.TID 0000.0001) %MON dynstat_uvel_mean            =  -1.2832320849054E-18
(PID.TID 0000.0001) %MON dynstat_uvel_sd              =   1.1872990226900E-02
(PID.TID 0000.0001) %MON dynstat_vvel_max             =   1.1559662327403E-01
(PID.TID 0000.0001) %MON dynstat_vvel_min             =  -1.1201721100750E-01
(PID.TID 0000.0001) %MON dynstat_vvel_mean            =   6.6166146954326E-19
(PID.TID 0000.0001) %MON dynstat_vvel_sd              =   1.1985753085084E-02
(PID.TID 0000.0001) %MON dynstat_wvel_max             =   0.0000000000000E+00
(PID.TID 0000.0001) %MON dynstat_wvel_min             =   0.0000000000000E+00
(PID.TID 0000.0001) %MON dynstat_wvel_mean            =   0.0000000000000E+00
(PID.TID 0000.0001) %MON dynstat_wvel_sd              =   0.0000000000000E+00
(PID.TID 0000.0001) %MON dynstat_theta_max            =   1.0000000000000E+00
(PID.TID 0000.0001) %MON dynstat_theta_min            =   9.9485374167686E-01
(PID.TID 0000.0001) %MON dynstat_theta_mean           =   9.9973869320903E-01
(PID.TID 0000.0001) %MON dynstat_theta_sd             =   1.1156276547243E-03
(PID.TID 0000.0001) %MON dynstat_salt_max             =   3.5000000000000E+01
(PID.TID 0000.0001) %MON dynstat_salt_min             =   3.5000000000000E+01
(PID.TID 0000.0001) %MON dynstat_salt_mean            =   3.5000000000000E+01
(PID.TID 0000.0001) %MON dynstat_salt_sd              =   0.0000000000000E+00
(PID.TID 0000.0001) %MON advcfl_uvel_max              =   3.8363185089435E-04
(PID.TID 0000.0001) %MON advcfl_vvel_max              =   3.6990919447689E-04
(PID.TID 0000.0001) %MON advcfl_wvel_max              =   0.0000000000000E+00
(PID.TID 0000.0001) %MON ke_max                       =   5.8397986318608E-03
(PID.TID 0000.0001) %MON ke_mean                      =   1.4231308697233E-04
(PID.TID 0000.0001) // =======================================================
(PID.TID 0000.0001) // End MONITOR dynamic field statistics
(PID.TID 0000.0001) // =======================================================
 cg2d: Sum(rhs),rhsMax =   1.30451205393456E-15  1.81483326680917E+03
(PID.TID 0000.0001)                    cg2d_init_res =    8.13340295683020E+00
(PID.TID 0000.0001)                       cg2d_iters =    73
(PID.TID 0000.0001)                         cg2d_res =    9.99608560460807E-10
 cg3d: Sum(rhs),rhsMax =  -5.02896335685676E-15  9.17026767557096E+02
(PID.TID 0000.0001)                    cg3d_init_res =    7.36900269662116E+00
(PID.TID 0000.0001)                       cg3d_iters =    40
(PID.TID 0000.0001)                         cg3d_res =    5.97972618788210E-04
(PID.TID 0000.0001) // =======================================================
(PID.TID 0000.0001) // Begin MONITOR dynamic field statistics
(PID.TID 0000.0001) // =======================================================
(PID.TID 0000.0001) %MON time_tsnumber                =                     3
(PID.TID 0000.0001) %MON time_secondsf                =   6.0000000000000E-04
(PID.TID 0000.0001) %MON time_secondsi                =                     0
(PID.TID 0000.0001) %MON dynstat_eta_max              =   2.8060989892857E-06
(PID.TID 0000.0001) %MON dynstat_eta_min              =  -2.7899099716531E-06
(PID.TID 0000.0001) %MON dynstat_eta_mean             =   7.4803041392421E-21
(PID.TID 0000.0001) %MON dynstat_eta_sd               =   1.3511614989679E-06
(PID.TID 0000.0001) %MON dynstat_uvel_max             =   2.3473018042797E-01
(PID.TID 0000.0001) %MON dynstat_uvel_min             =  -2.2299970923687E-01
(PID.TID 0000.0001) %MON dynstat_uvel_mean            =  -1.2894042584820E-18
(PID.TID 0000.0001) %MON dynstat_uvel_sd              =   2.0167536643116E-02
(PID.TID 0000.0001) %MON dynstat_vvel_max             =   2.1331975793968E-01
(PID.TID 0000.0001) %MON dynstat_vvel_min             =  -2.1151406705819E-01
(PID.TID 0000.0001) %MON dynstat_vvel_mean            =   1.9240805451086E-18
(PID.TID 0000.0001) %MON dynstat_vvel_sd              =   2.0269924370708E-02
(PID.TID 0000.0001) %MON dynstat_wvel_max             =   2.1781609771021E-01
(PID.TID 0000.0001) %MON dynstat_wvel_min             =  -2.1767527287872E-01
(PID.TID 0000.0001) %MON dynstat_wvel_mean            =   8.2756409060973E-14
(PID.TID 0000.0001) %MON dynstat_wvel_sd              =   2.3549271585041E-02
(PID.TID 0000.0001) %MON dynstat_theta_max            =   1.0000000000000E+00
(PID.TID 0000.0001) %MON dynstat_theta_min            =   9.9295688082717E-01
(PID.TID 0000.0001) %MON dynstat_theta_mean           =   9.9963819058932E-01
(PID.TID 0000.0001) %MON dynstat_theta_sd             =   1.5262440346945E-03
(PID.TID 0000.0001) %MON dynstat_salt_max             =   3.5000000000000E+01
(PID.TID 0000.0001) %MON dynstat_salt_min             =   3.5000000000000E+01
(PID.TID 0000.0001) %MON dynstat_salt_mean            =   3.5000000000000E+01
(PID.TID 0000.0001) %MON dynstat_salt_sd              =   0.0000000000000E+00
(PID.TID 0000.0001) %MON advcfl_uvel_max              =   7.5113657736952E-04
(PID.TID 0000.0001) %MON advcfl_vvel_max              =   6.8262322540698E-04
(PID.TID 0000.0001) %MON advcfl_wvel_max              =   4.3563219542042E-04
(PID.TID 0000.0001) %MON ke_max                       =   2.0066409967043E-02
(PID.TID 0000.0001) %MON ke_mean                      =   4.0879968412283E-04
(PID.TID 0000.0001) // =======================================================
(PID.TID 0000.0001) // End MONITOR dynamic field statistics
(PID.TID 0000.0001) // =======================================================
 cg2d: Sum(rhs),rhsMax =  -5.21513876527990E-07  3.00214169543380E+03
(PID.TID 0000.0001)                    cg2d_init_res =    1.02144080824811E+01
(PID.TID 0000.0001)                       cg2d_iters =    87
(PID.TID 0000.0001)                         cg2d_res =    7.03162417766855E-10
 cg3d: Sum(rhs),rhsMax =  -8.84921823318674E-12  1.68014714485164E+03
(PID.TID 0000.0001)                    cg3d_init_res =    1.21255829997234E+01
(PID.TID 0000.0001)                       cg3d_iters =    40
(PID.TID 0000.0001)                         cg3d_res =    6.48151090075484E-04
(PID.TID 0000.0001) // =======================================================
(PID.TID 0000.0001) // Begin MONITOR dynamic field statistics
(PID.TID 0000.0001) // =======================================================
(PID.TID 0000.0001) %MON time_tsnumber                =                     4
(PID.TID 0000.0001) %MON time_secondsf                =   8.0000000000000E-04
(PID.TID 0000.0001) %MON time_secondsi                =                     0
(PID.TID 0000.0001) %MON dynstat_eta_max              =   4.0509642344002E-06
(PID.TID 0000.0001) %MON dynstat_eta_min              =  -4.0216615941837E-06
(PID.TID 0000.0001) %MON dynstat_eta_mean             =   7.8282890406128E-12
(PID.TID 0000.0001) %MON dynstat_eta_sd               =   2.0910563717487E-06
(PID.TID 0000.0001) %MON dynstat_uvel_max             =   4.1312591022399E-01
(PID.TID 0000.0001) %MON dynstat_uvel_min             =  -3.7966383385971E-01
(PID.TID 0000.0001) %MON dynstat_uvel_mean            =  -6.7168150507270E-15
(PID.TID 0000.0001) %MON dynstat_uvel_sd              =   3.3774193701951E-02
(PID.TID 0000.0001) %MON dynstat_vvel_max             =   3.7079210520415E-01
(PID.TID 0000.0001) %MON dynstat_vvel_min             =  -3.5656733464113E-01
(PID.TID 0000.0001) %MON dynstat_vvel_mean            =  -1.7472796982311E-14
(PID.TID 0000.0001) %MON dynstat_vvel_sd              =   3.3808890138607E-02
(PID.TID 0000.0001) %MON dynstat_wvel_max             =   4.1493749257719E-01
(PID.TID 0000.0001) %MON dynstat_wvel_min             =  -4.0584251933818E-01
(PID.TID 0000.0001) %MON dynstat_wvel_mean            =   1.4178313184728E-14
(PID.TID 0000.0001) %MON dynstat_wvel_sd              =   4.3432171788339E-02
(PID.TID 0000.0001) %MON dynstat_theta_max            =   1.0000000000000E+00
(PID.TID 0000.0001) %MON dynstat_theta_min            =   9.9109317799517E-01
(PID.TID 0000.0001) %MON dynstat_theta_mean           =   9.9953768798101E-01
(PID.TID 0000.0001) %MON dynstat_theta_sd             =   1.9292445101338E-03
(PID.TID 0000.0001) %MON dynstat_salt_max             =   3.5000000000000E+01
(PID.TID 0000.0001) %MON dynstat_salt_min             =   3.5000000000000E+01
(PID.TID 0000.0001) %MON dynstat_salt_mean            =   3.5000000000000E+01
(PID.TID 0000.0001) %MON dynstat_salt_sd              =   0.0000000000000E+00
(PID.TID 0000.0001) %MON advcfl_uvel_max              =   1.3220029127168E-03
(PID.TID 0000.0001) %MON advcfl_vvel_max              =   1.1865347366533E-03
(PID.TID 0000.0001) %MON advcfl_wvel_max              =   8.2987498515439E-04
(PID.TID 0000.0001) %MON ke_max                       =   6.0139205557667E-02
(PID.TID 0000.0001) %MON ke_mean                      =   1.1418686063107E-03
(PID.TID 0000.0001) // =======================================================
(PID.TID 0000.0001) // End MONITOR dynamic field statistics
(PID.TID 0000.0001) // =======================================================
 cg2d: Sum(rhs),rhsMax =  -1.31112405679645E-06  3.57450607167867E+03
(PID.TID 0000.0001)                    cg2d_init_res =    4.87451051919321E+00
(PID.TID 0000.0001)                       cg2d_iters =    84
(PID.TID 0000.0001)                         cg2d_res =    9.14389643165272E-10
 cg3d: Sum(rhs),rhsMax =  -1.12473762942100E-11  2.07654712273740E+03
(PID.TID 0000.0001)                    cg3d_init_res =    6.07138654920098E+00
(PID.TID 0000.0001)                       cg3d_iters =    40
(PID.TID 0000.0001)                         cg3d_res =    3.77953565738910E-04
(PID.TID 0000.0001) // =======================================================
(PID.TID 0000.0001) // Begin MONITOR dynamic field statistics
(PID.TID 0000.0001) // =======================================================
(PID.TID 0000.0001) %MON time_tsnumber                =                     5
(PID.TID 0000.0001) %MON time_secondsf                =   1.0000000000000E-03
(PID.TID 0000.0001) %MON time_secondsi                =                     0
(PID.TID 0000.0001) %MON dynstat_eta_max              =   5.7739775705321E-06
(PID.TID 0000.0001) %MON dynstat_eta_min              =  -5.6538991571805E-06
(PID.TID 0000.0001) %MON dynstat_eta_mean             =   2.3433098743211E-11
(PID.TID 0000.0001) %MON dynstat_eta_sd               =   2.7195029606613E-06
(PID.TID 0000.0001) %MON dynstat_uvel_max             =   6.5905152422684E-01
(PID.TID 0000.0001) %MON dynstat_uvel_min             =  -5.8471123742180E-01
(PID.TID 0000.0001) %MON dynstat_uvel_mean            =   5.5005249600672E-14
(PID.TID 0000.0001) %MON dynstat_uvel_sd              =   5.0763314785283E-02
(PID.TID 0000.0001) %MON dynstat_vvel_max             =   5.7834941072866E-01
(PID.TID 0000.0001) %MON dynstat_vvel_min             =  -5.5204593430708E-01
(PID.TID 0000.0001) %MON dynstat_vvel_mean            =  -3.6632842674596E-14
(PID.TID 0000.0001) %MON dynstat_vvel_sd              =   5.0666212986528E-02
(PID.TID 0000.0001) %MON dynstat_wvel_max             =   7.1529248301807E-01
(PID.TID 0000.0001) %MON dynstat_wvel_min             =  -6.9549652216291E-01
(PID.TID 0000.0001) %MON dynstat_wvel_mean            =   1.4243460404220E-13
(PID.TID 0000.0001) %MON dynstat_wvel_sd              =   7.3159944875854E-02
(PID.TID 0000.0001) %MON dynstat_theta_max            =   1.0000000000000E+00
(PID.TID 0000.0001) %MON dynstat_theta_min            =   9.8925996433815E-01
(PID.TID 0000.0001) %MON dynstat_theta_mean           =   9.9943718536344E-01
(PID.TID 0000.0001) %MON dynstat_theta_sd             =   2.3250969557653E-03
(PID.TID 0000.0001) %MON dynstat_salt_max             =   3.5000000000000E+01
(PID.TID 0000.0001) %MON dynstat_salt_min             =   3.5000000000000E+01
(PID.TID 0000.0001) %MON dynstat_salt_mean            =   3.5000000000000E+01
(PID.TID 0000.0001) %MON dynstat_salt_sd              =   0.0000000000000E+00
(PID.TID 0000.0001) %MON advcfl_uvel_max              =   2.1089648775259E-03
(PID.TID 0000.0001) %MON advcfl_vvel_max              =   1.8507181143317E-03
(PID.TID 0000.0001) %MON advcfl_wvel_max              =   1.4305849660361E-03
(PID.TID 0000.0001) %MON ke_max                       =   1.4573952382645E-01
(PID.TID 0000.0001) %MON ke_mean                      =   2.5719896331930E-03
(PID.TID 0000.0001) // =======================================================
(PID.TID 0000.0001) // End MONITOR dynamic field statistics
(PID.TID 0000.0001) // =======================================================
 cg2d: Sum(rhs),rhsMax =  -3.08203397753060E-06  5.19930585540711E+03
(PID.TID 0000.0001)                    cg2d_init_res =    8.17433634319820E+00
(PID.TID 0000.0001)                       cg2d_iters =    86
(PID.TID 0000.0001)                         cg2d_res =    8.55200534653146E-10
 cg3d: Sum(rhs),rhsMax =  -3.54425169768469E-12  3.23693885129320E+03
(PID.TID 0000.0001)                    cg3d_init_res =    1.00933541677181E+01
(PID.TID 0000.0001)                       cg3d_iters =    40
(PID.TID 0000.0001)                         cg3d_res =    2.99930466704721E-04
(PID.TID 0000.0001) // =======================================================
(PID.TID 0000.0001) // Begin MONITOR dynamic field statistics
(PID.TID 0000.0001) // =======================================================
(PID.TID 0000.0001) %MON time_tsnumber                =                     6
(PID.TID 0000.0001) %MON time_secondsf                =   1.2000000000000E-03
(PID.TID 0000.0001) %MON time_secondsi                =                     0
(PID.TID 0000.0001) %MON dynstat_eta_max              =   8.3560563039468E-06
(PID.TID 0000.0001) %MON dynstat_eta_min              =  -8.1382518182022E-06
(PID.TID 0000.0001) %MON dynstat_eta_mean             =   8.0122183850795E-11
(PID.TID 0000.0001) %MON dynstat_eta_sd               =   3.9404176026697E-06
(PID.TID 0000.0001) %MON dynstat_uvel_max             =   1.0138665683259E+00
(PID.TID 0000.0001) %MON dynstat_uvel_min             =  -8.8245193053147E-01
(PID.TID 0000.0001) %MON dynstat_uvel_mean            =   4.0119347099809E-13
(PID.TID 0000.0001) %MON dynstat_uvel_sd              =   7.5640694173556E-02
(PID.TID 0000.0001) %MON dynstat_vvel_max             =   8.8072888300175E-01
(PID.TID 0000.0001) %MON dynstat_vvel_min             =  -8.3485382852896E-01
(PID.TID 0000.0001) %MON dynstat_vvel_mean            =  -3.3244285950325E-13
(PID.TID 0000.0001) %MON dynstat_vvel_sd              =   7.5403132747122E-02
(PID.TID 0000.0001) %MON dynstat_wvel_max             =   1.1269221632829E+00
(PID.TID 0000.0001) %MON dynstat_wvel_min             =  -1.0815380832927E+00
(PID.TID 0000.0001) %MON dynstat_wvel_mean            =   1.9281614098283E-13
(PID.TID 0000.0001) %MON dynstat_wvel_sd              =   1.1225328256247E-01
(PID.TID 0000.0001) %MON dynstat_theta_max            =   1.0000000000000E+00
(PID.TID 0000.0001) %MON dynstat_theta_min            =   9.8745319003709E-01
(PID.TID 0000.0001) %MON dynstat_theta_mean           =   9.9933668274767E-01
(PID.TID 0000.0001) %MON dynstat_theta_sd             =   2.7141426335909E-03
(PID.TID 0000.0001) %MON dynstat_salt_max             =   3.5000000000000E+01
(PID.TID 0000.0001) %MON dynstat_salt_min             =   3.5000000000000E+01
(PID.TID 0000.0001) %MON dynstat_salt_mean            =   3.5000000000000E+01
(PID.TID 0000.0001) %MON dynstat_salt_sd              =   0.0000000000000E+00
(PID.TID 0000.0001) %MON advcfl_uvel_max              =   3.2443730186428E-03
(PID.TID 0000.0001) %MON advcfl_vvel_max              =   2.8183324256056E-03
(PID.TID 0000.0001) %MON advcfl_wvel_max              =   2.2538443265658E-03
(PID.TID 0000.0001) %MON ke_max                       =   3.3856038828411E-01
(PID.TID 0000.0001) %MON ke_mean                      =   5.7035735215687E-03
(PID.TID 0000.0001) // =======================================================
(PID.TID 0000.0001) // End MONITOR dynamic field statistics
(PID.TID 0000.0001) // =======================================================
 cg2d: Sum(rhs),rhsMax =  -6.04620018393454E-06  6.93368138841499E+03
(PID.TID 0000.0001)                    cg2d_init_res =    6.70890602336362E+00
(PID.TID 0000.0001)                       cg2d_iters =    84
(PID.TID 0000.0001)                         cg2d_res =    9.48580407493484E-10
 cg3d: Sum(rhs),rhsMax =  -2.68828449084824E-12  4.50002054942665E+03
(PID.TID 0000.0001)                    cg3d_init_res =    8.10695183095361E+00
(PID.TID 0000.0001)                       cg3d_iters =    40
(PID.TID 0000.0001)                         cg3d_res =    2.62923909105791E-04
(PID.TID 0000.0001) // =======================================================
(PID.TID 0000.0001) // Begin MONITOR dynamic field statistics
(PID.TID 0000.0001) // =======================================================
(PID.TID 0000.0001) %MON time_tsnumber                =                     7
(PID.TID 0000.0001) %MON time_secondsf                =   1.4000000000000E-03
(PID.TID 0000.0001) %MON time_secondsi                =                     0
(PID.TID 0000.0001) %MON dynstat_eta_max              =   1.2561699209416E-05
(PID.TID 0000.0001) %MON dynstat_eta_min              =  -1.2002961276571E-05
(PID.TID 0000.0001) %MON dynstat_eta_mean             =   2.0961212599514E-10
(PID.TID 0000.0001) %MON dynstat_eta_sd               =   5.5758609339464E-06
(PID.TID 0000.0001) %MON dynstat_uvel_max             =   1.5355414714964E+00
(PID.TID 0000.0001) %MON dynstat_uvel_min             =  -1.3169503486950E+00
(PID.TID 0000.0001) %MON dynstat_uvel_mean            =   9.5999226782893E-13
(PID.TID 0000.0001) %MON dynstat_uvel_sd              =   1.1135598736255E-01
(PID.TID 0000.0001) %MON dynstat_vvel_max             =   1.3152957894479E+00
(PID.TID 0000.0001) %MON dynstat_vvel_min             =  -1.2435431714819E+00
(PID.TID 0000.0001) %MON dynstat_vvel_mean            =  -7.4951478501042E-13
(PID.TID 0000.0001) %MON dynstat_vvel_sd              =   1.1102703760074E-01
(PID.TID 0000.0001) %MON dynstat_wvel_max             =   1.7305347361842E+00
(PID.TID 0000.0001) %MON dynstat_wvel_min             =  -1.6494978281272E+00
(PID.TID 0000.0001) %MON dynstat_wvel_mean            =   4.1297178997364E-13
(PID.TID 0000.0001) %MON dynstat_wvel_sd              =   1.7099647002942E-01
(PID.TID 0000.0001) %MON dynstat_theta_max            =   1.0000000000000E+00
(PID.TID 0000.0001) %MON dynstat_theta_min            =   9.8566879096280E-01
(PID.TID 0000.0001) %MON dynstat_theta_mean           =   9.9923618012506E-01
(PID.TID 0000.0001) %MON dynstat_theta_sd             =   3.0967056303114E-03
(PID.TID 0000.0001) %MON dynstat_salt_max             =   3.5000000000000E+01
(PID.TID 0000.0001) %MON dynstat_salt_min             =   3.5000000000000E+01
(PID.TID 0000.0001) %MON dynstat_salt_mean            =   3.5000000000000E+01
(PID.TID 0000.0001) %MON dynstat_salt_sd              =   0.0000000000000E+00
(PID.TID 0000.0001) %MON advcfl_uvel_max              =   4.9137327087885E-03
(PID.TID 0000.0001) %MON advcfl_vvel_max              =   4.2089465262334E-03
(PID.TID 0000.0001) %MON advcfl_wvel_max              =   3.4610694723684E-03
(PID.TID 0000.0001) %MON ke_max                       =   7.5546692040639E-01
(PID.TID 0000.0001) %MON ke_mean                      =   1.2363579499943E-02
(PID.TID 0000.0001) // =======================================================
(PID.TID 0000.0001) // End MONITOR dynamic field statistics
(PID.TID 0000.0001) // =======================================================
 cg2d: Sum(rhs),rhsMax =  -1.07296819322061E-05  1.02293863812506E+04
(PID.TID 0000.0001)                    cg2d_init_res =    8.24755000932196E+00
(PID.TID 0000.0001)                       cg2d_iters =    86
(PID.TID 0000.0001)                         cg2d_res =    7.37233685966159E-10
 cg3d: Sum(rhs),rhsMax =  -9.08482490624696E-13  6.93423713361262E+03
(PID.TID 0000.0001)                    cg3d_init_res =    9.72720911944020E+00
(PID.TID 0000.0001)                       cg3d_iters =    40
(PID.TID 0000.0001)                         cg3d_res =    2.19887160424118E-04
(PID.TID 0000.0001) // =======================================================
(PID.TID 0000.0001) // Begin MONITOR dynamic field statistics
(PID.TID 0000.0001) // =======================================================
(PID.TID 0000.0001) %MON time_tsnumber                =                     8
(PID.TID 0000.0001) %MON time_secondsf                =   1.6000000000000E-03
(PID.TID 0000.0001) %MON time_secondsi                =                     0
(PID.TID 0000.0001) %MON dynstat_eta_max              =   1.9234921146139E-05
(PID.TID 0000.0001) %MON dynstat_eta_min              =  -1.8228167479908E-05
(PID.TID 0000.0001) %MON dynstat_eta_mean             =   5.4879030985387E-10
(PID.TID 0000.0001) %MON dynstat_eta_sd               =   8.3291934626268E-06
(PID.TID 0000.0001) %MON dynstat_uvel_max             =   2.3212570291206E+00
(PID.TID 0000.0001) %MON dynstat_uvel_min             =  -2.0040070348485E+00
(PID.TID 0000.0001) %MON dynstat_uvel_mean            =   3.7556210422338E-12
(PID.TID 0000.0001) %MON dynstat_uvel_sd              =   1.6602032809905E-01
(PID.TID 0000.0001) %MON dynstat_vvel_max             =   1.9703885643787E+00
(PID.TID 0000.0001) %MON dynstat_vvel_min             =  -1.8562585906380E+00
(PID.TID 0000.0001) %MON dynstat_vvel_mean            =  -2.7287429433204E-12
(PID.TID 0000.0001) %MON dynstat_vvel_sd              =   1.6575665300501E-01
(PID.TID 0000.0001) %MON dynstat_wvel_max             =   2.6384360195631E+00
(PID.TID 0000.0001) %MON dynstat_wvel_min             =  -2.4942460114413E+00
(PID.TID 0000.0001) %MON dynstat_wvel_mean            =   7.4640703642052E-13
(PID.TID 0000.0001) %MON dynstat_wvel_sd              =   2.5849435983499E-01
(PID.TID 0000.0001) %MON dynstat_theta_max            =   1.0000000000000E+00
(PID.TID 0000.0001) %MON dynstat_theta_min            =   9.8389844884895E-01
(PID.TID 0000.0001) %MON dynstat_theta_mean           =   9.9913567749503E-01
(PID.TID 0000.0001) %MON dynstat_theta_sd             =   3.4730880738297E-03
(PID.TID 0000.0001) %MON dynstat_salt_max             =   3.5000000000000E+01
(PID.TID 0000.0001) %MON dynstat_salt_min             =   3.5000000000000E+01
(PID.TID 0000.0001) %MON dynstat_salt_mean            =   3.5000000000000E+01
(PID.TID 0000.0001) %MON dynstat_salt_sd              =   0.0000000000000E+00
(PID.TID 0000.0001) %MON advcfl_uvel_max              =   7.4280224931860E-03
(PID.TID 0000.0001) %MON advcfl_vvel_max              =   6.3052434060119E-03
(PID.TID 0000.0001) %MON advcfl_wvel_max              =   5.2768720391262E-03
(PID.TID 0000.0001) %MON ke_max                       =   1.7050578280296E+00
(PID.TID 0000.0001) %MON ke_mean                      =   2.7519008678771E-02
(PID.TID 0000.0001) // =======================================================
(PID.TID 0000.0001) // End MONITOR dynamic field statistics
(PID.TID 0000.0001) // =======================================================
 cg2d: Sum(rhs),rhsMax =  -1.86695915500509E-05  1.46242743902493E+04
(PID.TID 0000.0001)                    cg2d_init_res =    8.01271926827940E+00
(PID.TID 0000.0001)                       cg2d_iters =    85
(PID.TID 0000.0001)                         cg2d_res =    8.39563671089880E-10
 cg3d: Sum(rhs),rhsMax =  -8.24740015864522E-13  1.02032528552988E+04
(PID.TID 0000.0001)                    cg3d_init_res =    9.27288510394895E+00
(PID.TID 0000.0001)                       cg3d_iters =    40
(PID.TID 0000.0001)                         cg3d_res =    2.09448016310276E-04
(PID.TID 0000.0001) // =======================================================
(PID.TID 0000.0001) // Begin MONITOR dynamic field statistics
(PID.TID 0000.0001) // =======================================================
(PID.TID 0000.0001) %MON time_tsnumber                =                     9
(PID.TID 0000.0001) %MON time_secondsf                =   1.8000000000000E-03
(PID.TID 0000.0001) %MON time_secondsi                =                     0
(PID.TID 0000.0001) %MON dynstat_eta_max              =   3.0304009662897E-05
(PID.TID 0000.0001) %MON dynstat_eta_min              =  -2.8373875431328E-05
(PID.TID 0000.0001) %MON dynstat_eta_mean             =   1.3651461455363E-09
(PID.TID 0000.0001) %MON dynstat_eta_sd               =   1.2566945277119E-05
(PID.TID 0000.0001) %MON dynstat_uvel_max             =   3.5380084260087E+00
(PID.TID 0000.0001) %MON dynstat_uvel_min             =  -3.0704525449273E+00
(PID.TID 0000.0001) %MON dynstat_uvel_mean            =   1.2019162832364E-11
(PID.TID 0000.0001) %MON dynstat_uvel_sd              =   2.5074044554093E-01
(PID.TID 0000.0001) %MON dynstat_vvel_max             =   2.9698442835905E+00
(PID.TID 0000.0001) %MON dynstat_vvel_min             =  -2.8627064012711E+00
(PID.TID 0000.0001) %MON dynstat_vvel_mean            =  -6.7492454577034E-12
(PID.TID 0000.0001) %MON dynstat_vvel_sd              =   2.5085013298800E-01
(PID.TID 0000.0001) %MON dynstat_wvel_max             =   4.0498916495591E+00
(PID.TID 0000.0001) %MON dynstat_wvel_min             =  -3.7948707523936E+00
(PID.TID 0000.0001) %MON dynstat_wvel_mean            =   1.3723834244242E-12
(PID.TID 0000.0001) %MON dynstat_wvel_sd              =   3.9576932662279E-01
(PID.TID 0000.0001) %MON dynstat_theta_max            =   1.0000000000000E+00
(PID.TID 0000.0001) %MON dynstat_theta_min            =   9.8213026771214E-01
(PID.TID 0000.0001) %MON dynstat_theta_mean           =   9.9903517484074E-01
(PID.TID 0000.0001) %MON dynstat_theta_sd             =   3.8435734350261E-03
(PID.TID 0000.0001) %MON dynstat_salt_max             =   3.5000000000000E+01
(PID.TID 0000.0001) %MON dynstat_salt_min             =   3.5000000000000E+01
(PID.TID 0000.0001) %MON dynstat_salt_mean            =   3.5000000000000E+01
(PID.TID 0000.0001) %MON dynstat_salt_sd              =   0.0000000000000E+00
(PID.TID 0000.0001) %MON advcfl_uvel_max              =   1.1321626963228E-02
(PID.TID 0000.0001) %MON advcfl_vvel_max              =   9.5035017074898E-03
(PID.TID 0000.0001) %MON advcfl_wvel_max              =   8.0997832991182E-03
(PID.TID 0000.0001) %MON ke_max                       =   3.9146115301754E+00
(PID.TID 0000.0001) %MON ke_mean                      =   6.2898280125081E-02
(PID.TID 0000.0001) // =======================================================
(PID.TID 0000.0001) // End MONITOR dynamic field statistics
(PID.TID 0000.0001) // =======================================================
 cg2d: Sum(rhs),rhsMax =  -3.06708744804360E-05  2.22874634789998E+04
(PID.TID 0000.0001)                    cg2d_init_res =    8.93430685900151E+00
(PID.TID 0000.0001)                       cg2d_iters =    86
(PID.TID 0000.0001)                         cg2d_res =    6.89717189793744E-10
 cg3d: Sum(rhs),rhsMax =  -1.40873857717994E-13  1.59362139841271E+04
(PID.TID 0000.0001)                    cg3d_init_res =    1.01696797399996E+01
(PID.TID 0000.0001)                       cg3d_iters =    40
(PID.TID 0000.0001)                         cg3d_res =    2.39095229087223E-04
(PID.TID 0000.0001) // =======================================================
(PID.TID 0000.0001) // Begin MONITOR dynamic field statistics
(PID.TID 0000.0001) // =======================================================
(PID.TID 0000.0001) %MON time_tsnumber                =                    10
(PID.TID 0000.0001) %MON time_secondsf                =   2.0000000000000E-03
(PID.TID 0000.0001) %MON time_secondsi                =                     0
(PID.TID 0000.0001) %MON dynstat_eta_max              =   4.8571275289715E-05
(PID.TID 0000.0001) %MON dynstat_eta_min              =  -4.5431607476418E-05
(PID.TID 0000.0001) %MON dynstat_eta_mean             =   3.4178799732147E-09
(PID.TID 0000.0001) %MON dynstat_eta_sd               =   1.9657771304896E-05
(PID.TID 0000.0001) %MON dynstat_uvel_max             =   5.4594074568785E+00
(PID.TID 0000.0001) %MON dynstat_uvel_min             =  -4.7683059734934E+00
(PID.TID 0000.0001) %MON dynstat_uvel_mean            =   4.3731566422966E-11
(PID.TID 0000.0001) %MON dynstat_uvel_sd              =   3.8660523405392E-01
(PID.TID 0000.0001) %MON dynstat_vvel_max             =   4.5411134205718E+00
(PID.TID 0000.0001) %MON dynstat_vvel_min             =  -4.4610315589358E+00
(PID.TID 0000.0001) %MON dynstat_vvel_mean            =  -2.1146746716386E-11
(PID.TID 0000.0001) %MON dynstat_vvel_sd              =   3.8765786902092E-01
(PID.TID 0000.0001) %MON dynstat_wvel_max             =   6.3055543757368E+00
(PID.TID 0000.0001) %MON dynstat_wvel_min             =  -5.8392534375878E+00
(PID.TID 0000.0001) %MON dynstat_wvel_mean            =   2.4236011167325E-12
(PID.TID 0000.0001) %MON dynstat_wvel_sd              =   6.1307759313979E-01
(PID.TID 0000.0001) %MON dynstat_theta_max            =   1.0000000000000E+00
(PID.TID 0000.0001) %MON dynstat_theta_min            =   9.8034553737936E-01
(PID.TID 0000.0001) %MON dynstat_theta_mean           =   9.9893467213562E-01
(PID.TID 0000.0001) %MON dynstat_theta_sd             =   4.2084228972593E-03
(PID.TID 0000.0001) %MON dynstat_salt_max             =   3.5000000000000E+01
(PID.TID 0000.0001) %MON dynstat_salt_min             =   3.5000000000000E+01
(PID.TID 0000.0001) %MON dynstat_salt_mean            =   3.5000000000000E+01
(PID.TID 0000.0001) %MON dynstat_salt_sd              =   0.0000000000000E+00
(PID.TID 0000.0001) %MON advcfl_uvel_max              =   1.7470103862011E-02
(PID.TID 0000.0001) %MON advcfl_vvel_max              =   1.4531562945830E-02
(PID.TID 0000.0001) %MON advcfl_wvel_max              =   1.2611108751474E-02
(PID.TID 0000.0001) %MON ke_max                       =   9.2484736216413E+00
(PID.TID 0000.0001) %MON ke_mean                      =   1.4987111520586E-01
(PID.TID 0000.0001) // =======================================================
(PID.TID 0000.0001) // End MONITOR dynamic field statistics
(PID.TID 0000.0001) // =======================================================
(PID.TID 0000.0001)   Seconds in section "ALL                [THE_MODEL_MAIN]":
(PID.TID 0000.0001)           User time:  36.7799988
(PID.TID 0000.0001)         System time:  0.270000001
(PID.TID 0000.0001)     Wall clock time:  42.233278
(PID.TID 0000.0001)          No. starts: 1
(PID.TID 0000.0001)           No. stops: 1
(PID.TID 0000.0001)   Seconds in section "INITIALISE_FIXED   [THE_MODEL_MAIN]":
(PID.TID 0000.0001)           User time:  0.370000005
(PID.TID 0000.0001)         System time:  0.0199999996
(PID.TID 0000.0001)     Wall clock time:  0.391834021
(PID.TID 0000.0001)          No. starts: 1
(PID.TID 0000.0001)           No. stops: 1
(PID.TID 0000.0001)   Seconds in section "THE_MAIN_LOOP      [THE_MODEL_MAIN]":
(PID.TID 0000.0001)           User time:  35.9600018
(PID.TID 0000.0001)         System time:  0.110000001
(PID.TID 0000.0001)     Wall clock time:  38.967078
(PID.TID 0000.0001)          No. starts: 1
(PID.TID 0000.0001)           No. stops: 1
(PID.TID 0000.0001)   Seconds in section "INITIALISE_VARIA    [THE_MAIN_LOOP]":
(PID.TID 0000.0001)           User time:  0.189999998
(PID.TID 0000.0001)         System time:  0.0499999989
(PID.TID 0000.0001)     Wall clock time:  0.417173028
(PID.TID 0000.0001)          No. starts: 1
(PID.TID 0000.0001)           No. stops: 1
(PID.TID 0000.0001)   Seconds in section "WRITE_STATE         [THE_MAIN_LOOP]":
(PID.TID 0000.0001)           User time:  0.120000005
(PID.TID 0000.0001)         System time:  0.0200000033
(PID.TID 0000.0001)     Wall clock time:  1.10627902
(PID.TID 0000.0001)          No. starts: 1
(PID.TID 0000.0001)           No. stops: 1
(PID.TID 0000.0001)   Seconds in section "MONITOR             [THE_MAIN_LOOP]":
(PID.TID 0000.0001)           User time:  0.0600000024
(PID.TID 0000.0001)         System time:  0.
(PID.TID 0000.0001)     Wall clock time:  0.0692720413
(PID.TID 0000.0001)          No. starts: 1
(PID.TID 0000.0001)           No. stops: 1
(PID.TID 0000.0001)   Seconds in section "MAIN LOOP           [THE_MAIN_LOOP]":
(PID.TID 0000.0001)           User time:  35.5800018
(PID.TID 0000.0001)         System time:  0.0399999991
(PID.TID 0000.0001)     Wall clock time:  37.374043
(PID.TID 0000.0001)          No. starts: 1
(PID.TID 0000.0001)           No. stops: 1
(PID.TID 0000.0001)   Seconds in section "EXTERNAL_FIELDS_LOAD[THE_MAIN_LOOP]":
(PID.TID 0000.0001)           User time:  0.0100002289
(PID.TID 0000.0001)         System time:  0.
(PID.TID 0000.0001)     Wall clock time:  0.000582933426
(PID.TID 0000.0001)          No. starts: 10
(PID.TID 0000.0001)           No. stops: 10
(PID.TID 0000.0001)   Seconds in section "DYNAMICS            [THE_MAIN_LOOP]":
(PID.TID 0000.0001)           User time:  7.88999927
(PID.TID 0000.0001)         System time:  0.0299999937
(PID.TID 0000.0001)     Wall clock time:  9.00528014
(PID.TID 0000.0001)          No. starts: 10
(PID.TID 0000.0001)           No. stops: 10
(PID.TID 0000.0001)   Seconds in section "CALC_GW          [THE_MAIN_LOOP]":
(PID.TID 0000.0001)           User time:  0.699998498
(PID.TID 0000.0001)         System time:  0.
(PID.TID 0000.0001)     Wall clock time:  0.710690022
(PID.TID 0000.0001)          No. starts: 10
(PID.TID 0000.0001)           No. stops: 10
(PID.TID 0000.0001)   Seconds in section "SOLVE_FOR_PRESSURE  [THE_MAIN_LOOP]":
(PID.TID 0000.0001)           User time:  25.4099997
(PID.TID 0000.0001)         System time:  0.
(PID.TID 0000.0001)     Wall clock time:  25.4044961
(PID.TID 0000.0001)          No. starts: 10
(PID.TID 0000.0001)           No. stops: 10
(PID.TID 0000.0001)   Seconds in section "THE_CORRECTION_STEP [THE_MAIN_LOOP]":
(PID.TID 0000.0001)           User time:  0.509999514
(PID.TID 0000.0001)         System time:  0.
(PID.TID 0000.0001)     Wall clock time:  0.508877039
(PID.TID 0000.0001)          No. starts: 10
(PID.TID 0000.0001)           No. stops: 10
(PID.TID 0000.0001)   Seconds in section "BLOCKING_EXCHANGES  [THE_MAIN_LOOP]":
(PID.TID 0000.0001)           User time:  0.0800054073
(PID.TID 0000.0001)         System time:  0.
(PID.TID 0000.0001)     Wall clock time:  0.0808068514
(PID.TID 0000.0001)          No. starts: 10
(PID.TID 0000.0001)           No. stops: 10
(PID.TID 0000.0001)   Seconds in section "DO_THE_MODEL_IO     [THE_MAIN_LOOP]":
(PID.TID 0000.0001)           User time:  0.0900001526
(PID.TID 0000.0001)         System time:  0.0100000054
(PID.TID 0000.0001)     Wall clock time:  0.759938955
(PID.TID 0000.0001)          No. starts: 10
(PID.TID 0000.0001)           No. stops: 10
(PID.TID 0000.0001)   Seconds in section "WRITE_CHECKPOINT    [THE_MAIN_LOOP]":
(PID.TID 0000.0001)           User time:  0.
(PID.TID 0000.0001)         System time:  0.
(PID.TID 0000.0001)     Wall clock time:  0.000560760498
(PID.TID 0000.0001)          No. starts: 10
(PID.TID 0000.0001)           No. stops: 10
(PID.TID 0000.0001)   Seconds in section "WRITE_CHECKPOINT   [THE_MODEL_MAIN]":
(PID.TID 0000.0001)           User time:  0.449996948
(PID.TID 0000.0001)         System time:  0.140000001
(PID.TID 0000.0001)     Wall clock time:  2.87410998
(PID.TID 0000.0001)          No. starts: 1
(PID.TID 0000.0001)           No. stops: 1
(PID.TID 0000.0001) // ======================================================
(PID.TID 0000.0001) // Tile <-> Tile communication statistics
(PID.TID 0000.0001) // ======================================================
(PID.TID 0000.0001) // o Tile number: 000001
(PID.TID 0000.0001) //         No. X exchanges =              0
(PID.TID 0000.0001) //            Max. X spins =              0
(PID.TID 0000.0001) //            Min. X spins =     1000000000
(PID.TID 0000.0001) //          Total. X spins =              0
(PID.TID 0000.0001) //            Avg. X spins =       0.00E+00
(PID.TID 0000.0001) //         No. Y exchanges =              0
(PID.TID 0000.0001) //            Max. Y spins =              0
(PID.TID 0000.0001) //            Min. Y spins =     1000000000
(PID.TID 0000.0001) //          Total. Y spins =              0
(PID.TID 0000.0001) //            Avg. Y spins =       0.00E+00
(PID.TID 0000.0001) // o Thread number: 000001
(PID.TID 0000.0001) //            No. barriers =          15856
(PID.TID 0000.0001) //      Max. barrier spins =              1
(PID.TID 0000.0001) //      Min. barrier spins =              1
(PID.TID 0000.0001) //     Total barrier spins =          15856
(PID.TID 0000.0001) //      Avg. barrier spins =       1.00E+00
