(PID.TID 0000.0001) 
(PID.TID 0000.0001) // ======================================================
(PID.TID 0000.0001) //                      MITgcm UV
(PID.TID 0000.0001) //                      =========
(PID.TID 0000.0001) // ======================================================
(PID.TID 0000.0001) // execution environment starting up...
(PID.TID 0000.0001) // Run starting Wed Apr  1 14:19:48 1998
(PID.TID 0000.0001) // on melville.lcs.mit.edu
(PID.TID 0000.0001) // account cnh
(PID.TID 0000.0001) // MITgcm UV Release: $Name:  $
(PID.TID 0000.0001) 
(PID.TID 0000.0001) // =======================================================
(PID.TID 0000.0001) // Execution Environment parameter file "eedata"
(PID.TID 0000.0001) // =======================================================
(PID.TID 0000.0001) ># Example "eedata" file
(PID.TID 0000.0001) ># Lines beginning "#" are comments
(PID.TID 0000.0001) ># nTx - No. threads per process in X
(PID.TID 0000.0001) ># nTy - No. threads per process in Y
(PID.TID 0000.0001) > &EEPARMS
(PID.TID 0000.0001) > &
(PID.TID 0000.0001) ># Note: Some systems use & as the
(PID.TID 0000.0001) ># namelist terminator. Other systems
(PID.TID 0000.0001) ># use a / character (as shown here).
(PID.TID 0000.0001) 
(PID.TID 0000.0001) // =======================================================
(PID.TID 0000.0001) // Computational Grid Specification ( see files "SIZE.h" )
(PID.TID 0000.0001) //                                  ( and "eedata"       )
(PID.TID 0000.0001) // =======================================================
(PID.TID 0000.0001)      nPx =    1 ; /* No. processes in X */
(PID.TID 0000.0001)      nPy =    1 ; /* No. processes in Y */
(PID.TID 0000.0001)      nSx =    1 ; /* No. tiles in X per process */
(PID.TID 0000.0001)      nSy =    1 ; /* No. tiles in Y per process */
(PID.TID 0000.0001)      sNx =   64 ; /* Tile size in X */
(PID.TID 0000.0001)      sNy =   64 ; /* Tile size in Y */
(PID.TID 0000.0001)      OLx =    3 ; /* Tile overlap distance in X */
(PID.TID 0000.0001)      OLy =    3 ; /* Tile overlap distance in Y */
(PID.TID 0000.0001)      nTx =    1 ; /* No. threads in X per process */
(PID.TID 0000.0001)      nTy =    1 ; /* No. threads in Y per process */
(PID.TID 0000.0001)       Nr =   20 ; /* No. levels in the vertical   */
(PID.TID 0000.0001)       nX =   64 ; /* Total domain size in X ( = nPx*nSx*sNx ) */
(PID.TID 0000.0001)       nY =   64 ; /* Total domain size in Y ( = nPy*nSy*sNy ) */
(PID.TID 0000.0001)   nTiles =    1 ; /* Total no. tiles per process ( = nSx*nSy ) */
(PID.TID 0000.0001)   nProcs =    1 ; /* Total no. processes ( = nPx*nPy ) */
(PID.TID 0000.0001) nThreads =    1 ; /* Total no. threads per process ( = nTx*nTy ) */
(PID.TID 0000.0001) usingMPI =    F ; /* Flag used to control whether MPI is in use */
(PID.TID 0000.0001)                   /*  note: To execute a program with MPI calls */
(PID.TID 0000.0001)                   /*  it must be launched appropriately e.g     */
(PID.TID 0000.0001)                   /*  "mpirun -np 64 ......"                    */
(PID.TID 0000.0001) 
(PID.TID 0000.0001) // ======================================================
(PID.TID 0000.0001) // Mapping of tiles to threads
(PID.TID 0000.0001) // ======================================================
(PID.TID 0000.0001) // -o- Thread   1, tiles (   1:   1,   1:   1)
(PID.TID 0000.0001) 
(PID.TID 0000.0001) // ======================================================
(PID.TID 0000.0001) // Tile <-> Tile connectvity table
(PID.TID 0000.0001) // ======================================================
(PID.TID 0000.0001) // Tile number: 000001 (process no. = 000001)
(PID.TID 0000.0001) //        WEST: Tile = 000001, Process = 000001, Comm = put
(PID.TID 0000.0001) //                bi = 000001, bj = 000001
(PID.TID 0000.0001) //        EAST: Tile = 000001, Process = 000001, Comm = put
(PID.TID 0000.0001) //                bi = 000001, bj = 000001
(PID.TID 0000.0001) //       SOUTH: Tile = 000001, Process = 000001, Comm = put
(PID.TID 0000.0001) //                bi = 000001, bj = 000001
(PID.TID 0000.0001) //       NORTH: Tile = 000001, Process = 000001, Comm = put
(PID.TID 0000.0001) //                bi = 000001, bj = 000001
(PID.TID 0000.0001) 
(PID.TID 0000.0001) // =======================================================
(PID.TID 0000.0001) // Model parameter file "data"
(PID.TID 0000.0001) // =======================================================
(PID.TID 0000.0001) ># ====================
(PID.TID 0000.0001) ># | Model parameters |
(PID.TID 0000.0001) ># ====================
(PID.TID 0000.0001) >#
(PID.TID 0000.0001) ># Continuous equation parameters
(PID.TID 0000.0001) > &PARM01
(PID.TID 0000.0001) > tRef=20*1.
(PID.TID 0000.0001) > sRef=20*35.,
(PID.TID 0000.0001) > viscAh=1.E0,
(PID.TID 0000.0001) > viscAz=1.E0,
(PID.TID 0000.0001) > no_slip_sides=.FALSE.,
(PID.TID 0000.0001) > no_slip_bottom=.FALSE.,
(PID.TID 0000.0001) > viscA4=0.E12,
(PID.TID 0000.0001) > diffKhT=1.E0,
(PID.TID 0000.0001) > diffKzT=1.E0,
(PID.TID 0000.0001) > diffKhS=1.E0,
(PID.TID 0000.0001) > diffKzS=1.E0,
(PID.TID 0000.0001) > f0=1250.,
(PID.TID 0000.0001) > beta=0.E-11,
(PID.TID 0000.0001) > tAlpha=1.,
(PID.TID 0000.0001) > sBeta =0.,
(PID.TID 0000.0001) > gravity=1.4E8,
(PID.TID 0000.0001) > rhoConst=1.,
(PID.TID 0000.0001) > rhoNil=1.,
(PID.TID 0000.0001) > heatCapacity_Cp=1.,
(PID.TID 0000.0001) > rigidLid=.FALSE.,
(PID.TID 0000.0001) > implicitFreeSurface=.TRUE.,
(PID.TID 0000.0001) > eosType='LINEAR',
(PID.TID 0000.0001) > nonHydrostatic=.TRUE.,
(PID.TID 0000.0001) > readBinaryPrec=64,
(PID.TID 0000.0001) > &
(PID.TID 0000.0001) >
(PID.TID 0000.0001) ># Elliptic solver parameters
(PID.TID 0000.0001) > &PARM02
(PID.TID 0000.0001) > cg2dMaxIters=1000,
(PID.TID 0000.0001) > cg2dTargetResidual=1.E-9,
(PID.TID 0000.0001) > cg3dMaxIters=40,
(PID.TID 0000.0001) > cg3dTargetResidual=1.E-9,
(PID.TID 0000.0001) > &
(PID.TID 0000.0001) >
(PID.TID 0000.0001) ># Time stepping parameters
(PID.TID 0000.0001) > &PARM03
(PID.TID 0000.0001) > nIter0=0,
(PID.TID 0000.0001) > nTimeSteps=10,
(PID.TID 0000.0001) > deltaT=2.0E-4,
(PID.TID 0000.0001) > abEps=0.1,
(PID.TID 0000.0001) > pChkptFreq=0.0,
(PID.TID 0000.0001) > chkptFreq=0.0,
(PID.TID 0000.0001) > dumpFreq=0.1,
(PID.TID 0000.0001) > monitorFreq=1.E-5,
(PID.TID 0000.0001) > &
(PID.TID 0000.0001) >
(PID.TID 0000.0001) ># Gridding parameters
(PID.TID 0000.0001) > &PARM04
(PID.TID 0000.0001) > usingCartesianGrid=.TRUE.,
(PID.TID 0000.0001) > usingSphericalPolarGrid=.FALSE.,
(PID.TID 0000.0001) > dXspacing=0.0625,
(PID.TID 0000.0001) > dYspacing=0.0625,
(PID.TID 0000.0001) > delZ=20*0.1,
(PID.TID 0000.0001) > &
(PID.TID 0000.0001) >
(PID.TID 0000.0001) ># Input datasets
(PID.TID 0000.0001) > &PARM05
(PID.TID 0000.0001) > surfQfile='Qnet.circle',
(PID.TID 0000.0001) > &
(PID.TID 0000.0001) 
(PID.TID 0000.0001) %MON XC_max                       =   3.9687500000000E+00
(PID.TID 0000.0001) %MON XC_min                       =   3.1250000000000E-02
(PID.TID 0000.0001) %MON XC_mean                      =   2.0000000000000E+00
(PID.TID 0000.0001) %MON XC_sd                        =   1.1545595751194E+00
(PID.TID 0000.0001) %MON XG_max                       =   3.9375000000000E+00
(PID.TID 0000.0001) %MON XG_min                       =   6.2500000000000E-02
(PID.TID 0000.0001) %MON XG_mean                      =   2.0000000000000E+00
(PID.TID 0000.0001) %MON XG_sd                        =   1.1365151414155E+00
(PID.TID 0000.0001) %MON DXC_max                      =   6.2500000000000E-02
(PID.TID 0000.0001) %MON DXC_min                      =   6.2500000000000E-02
(PID.TID 0000.0001) %MON DXC_mean                     =   6.2500000000000E-02
(PID.TID 0000.0001) %MON DXC_sd                       =   0.0000000000000E+00
(PID.TID 0000.0001) %MON DXF_max                      =   6.2500000000000E-02
(PID.TID 0000.0001) %MON DXF_min                      =   6.2500000000000E-02
(PID.TID 0000.0001) %MON DXF_mean                     =   6.2500000000000E-02
(PID.TID 0000.0001) %MON DXF_sd                       =   0.0000000000000E+00
(PID.TID 0000.0001) %MON DXG_max                      =   6.2500000000000E-02
(PID.TID 0000.0001) %MON DXG_min                      =   6.2500000000000E-02
(PID.TID 0000.0001) %MON DXG_mean                     =   6.2500000000000E-02
(PID.TID 0000.0001) %MON DXG_sd                       =   0.0000000000000E+00
(PID.TID 0000.0001) %MON DXV_max                      =   6.2500000000000E-02
(PID.TID 0000.0001) %MON DXV_min                      =   6.2500000000000E-02
(PID.TID 0000.0001) %MON DXV_mean                     =   6.2500000000000E-02
(PID.TID 0000.0001) %MON DXV_sd                       =   0.0000000000000E+00
(PID.TID 0000.0001) %MON YC_max                       =   3.9687500000000E+00
(PID.TID 0000.0001) %MON YC_min                       =   3.1250000000000E-02
(PID.TID 0000.0001) %MON YC_mean                      =   2.0000000000000E+00
(PID.TID 0000.0001) %MON YC_sd                        =   1.1545595751194E+00
(PID.TID 0000.0001) %MON YG_max                       =   3.9375000000000E+00
(PID.TID 0000.0001) %MON YG_min                       =   6.2500000000000E-02
(PID.TID 0000.0001) %MON YG_mean                      =   2.0000000000000E+00
(PID.TID 0000.0001) %MON YG_sd                        =   1.1365151414155E+00
(PID.TID 0000.0001) %MON DYC_max                      =   6.2500000000000E-02
(PID.TID 0000.0001) %MON DYC_min                      =   6.2500000000000E-02
(PID.TID 0000.0001) %MON DYC_mean                     =   6.2500000000000E-02
(PID.TID 0000.0001) %MON DYC_sd                       =   0.0000000000000E+00
(PID.TID 0000.0001) %MON DYF_max                      =   6.2500000000000E-02
(PID.TID 0000.0001) %MON DYF_min                      =   6.2500000000000E-02
(PID.TID 0000.0001) %MON DYF_mean                     =   6.2500000000000E-02
(PID.TID 0000.0001) %MON DYF_sd                       =   0.0000000000000E+00
(PID.TID 0000.0001) %MON DYG_max                      =   6.2500000000000E-02
(PID.TID 0000.0001) %MON DYG_min                      =   6.2500000000000E-02
(PID.TID 0000.0001) %MON DYG_mean                     =   6.2500000000000E-02
(PID.TID 0000.0001) %MON DYG_sd                       =   0.0000000000000E+00
(PID.TID 0000.0001) %MON DYU_max                      =   6.2500000000000E-02
(PID.TID 0000.0001) %MON DYU_min                      =   6.2500000000000E-02
(PID.TID 0000.0001) %MON DYU_mean                     =   6.2500000000000E-02
(PID.TID 0000.0001) %MON DYU_sd                       =   0.0000000000000E+00
(PID.TID 0000.0001) %MON RA_max                       =   3.9062500000000E-03
(PID.TID 0000.0001) %MON RA_min                       =   3.9062500000000E-03
(PID.TID 0000.0001) %MON RA_mean                      =   3.9062500000000E-03
(PID.TID 0000.0001) %MON RA_sd                        =   0.0000000000000E+00
(PID.TID 0000.0001) %MON RAW_max                      =   3.9062500000000E-03
(PID.TID 0000.0001) %MON RAW_min                      =   3.9062500000000E-03
(PID.TID 0000.0001) %MON RAW_mean                     =   3.9062500000000E-03
(PID.TID 0000.0001) %MON RAW_sd                       =   0.0000000000000E+00
(PID.TID 0000.0001) %MON RAS_max                      =   3.9062500000000E-03
(PID.TID 0000.0001) %MON RAS_min                      =   3.9062500000000E-03
(PID.TID 0000.0001) %MON RAS_mean                     =   3.9062500000000E-03
(PID.TID 0000.0001) %MON RAS_sd                       =   0.0000000000000E+00
(PID.TID 0000.0001) %MON RAZ_max                      =   3.9062500000000E-03
(PID.TID 0000.0001) %MON RAZ_min                      =   3.9062500000000E-03
(PID.TID 0000.0001) %MON RAZ_mean                     =   3.9062500000000E-03
(PID.TID 0000.0001) %MON RAZ_sd                       =   0.0000000000000E+00
(PID.TID 0000.0001) // =======================================================
(PID.TID 0000.0001) // Field Model R_low (ini_masks_etc) at iteration          1
(PID.TID 0000.0001) // CMIN =         -2.000000000000000E+00
(PID.TID 0000.0001) // CMAX =         -2.000000000000000E+00
(PID.TID 0000.0001) // CINT =          0.000000000000000E+00
(PID.TID 0000.0001) // SYMBOLS (CMIN->CMAX): -abcdefghijklmnopqrstuvwxyz+
(PID.TID 0000.0001) //                  0.0: .
(PID.TID 0000.0001) // RANGE I (Lo:Hi:Step):(  -2:  67:   1)
(PID.TID 0000.0001) // RANGE J (Lo:Hi:Step):(  67:  -2:  -1)
(PID.TID 0000.0001) // RANGE K (Lo:Hi:Step):(   1:   1:   1)
(PID.TID 0000.0001) // =======================================================
(PID.TID 0000.0001) K =   1
(PID.TID 0000.0001) //                I=7       I=17      I=27      I=37      I=47      I=57      I=67
(PID.TID 0000.0001) // |--J--|**0123456|890123456|890123456|890123456|890123456|890123456|890123456|
(PID.TID 0000.0001) //     67 ----------------------------------------------------------------------
(PID.TID 0000.0001) //     66 ----------------------------------------------------------------------
(PID.TID 0000.0001) //     65 ----------------------------------------------------------------------
(PID.TID 0000.0001) //     64 ----------------------------------------------------------------------
(PID.TID 0000.0001) //     63 ----------------------------------------------------------------------
(PID.TID 0000.0001) //     62 ----------------------------------------------------------------------
(PID.TID 0000.0001) //     61 ----------------------------------------------------------------------
(PID.TID 0000.0001) //     60 ----------------------------------------------------------------------
(PID.TID 0000.0001) //     59 ----------------------------------------------------------------------
(PID.TID 0000.0001) //     58 ----------------------------------------------------------------------
(PID.TID 0000.0001) //     57 ----------------------------------------------------------------------
(PID.TID 0000.0001) //     56 ----------------------------------------------------------------------
(PID.TID 0000.0001) //     55 ----------------------------------------------------------------------
(PID.TID 0000.0001) //     54 ----------------------------------------------------------------------
(PID.TID 0000.0001) //     53 ----------------------------------------------------------------------
(PID.TID 0000.0001) //     52 ----------------------------------------------------------------------
(PID.TID 0000.0001) //     51 ----------------------------------------------------------------------
(PID.TID 0000.0001) //     50 ----------------------------------------------------------------------
(PID.TID 0000.0001) //     49 ----------------------------------------------------------------------
(PID.TID 0000.0001) //     48 ----------------------------------------------------------------------
(PID.TID 0000.0001) //     47 ----------------------------------------------------------------------
(PID.TID 0000.0001) //     46 ----------------------------------------------------------------------
(PID.TID 0000.0001) //     45 ----------------------------------------------------------------------
(PID.TID 0000.0001) //     44 ----------------------------------------------------------------------
(PID.TID 0000.0001) //     43 ----------------------------------------------------------------------
(PID.TID 0000.0001) //     42 ----------------------------------------------------------------------
(PID.TID 0000.0001) //     41 ----------------------------------------------------------------------
(PID.TID 0000.0001) //     40 ----------------------------------------------------------------------
(PID.TID 0000.0001) //     39 ----------------------------------------------------------------------
(PID.TID 0000.0001) //     38 ----------------------------------------------------------------------
(PID.TID 0000.0001) //     37 ----------------------------------------------------------------------
(PID.TID 0000.0001) //     36 ----------------------------------------------------------------------
(PID.TID 0000.0001) //     35 ----------------------------------------------------------------------
(PID.TID 0000.0001) //     34 ----------------------------------------------------------------------
(PID.TID 0000.0001) //     33 ----------------------------------------------------------------------
(PID.TID 0000.0001) //     32 ----------------------------------------------------------------------
(PID.TID 0000.0001) //     31 ----------------------------------------------------------------------
(PID.TID 0000.0001) //     30 ----------------------------------------------------------------------
(PID.TID 0000.0001) //     29 ----------------------------------------------------------------------
(PID.TID 0000.0001) //     28 ----------------------------------------------------------------------
(PID.TID 0000.0001) //     27 ----------------------------------------------------------------------
(PID.TID 0000.0001) //     26 ----------------------------------------------------------------------
(PID.TID 0000.0001) //     25 ----------------------------------------------------------------------
(PID.TID 0000.0001) //     24 ----------------------------------------------------------------------
(PID.TID 0000.0001) //     23 ----------------------------------------------------------------------
(PID.TID 0000.0001) //     22 ----------------------------------------------------------------------
(PID.TID 0000.0001) //     21 ----------------------------------------------------------------------
(PID.TID 0000.0001) //     20 ----------------------------------------------------------------------
(PID.TID 0000.0001) //     19 ----------------------------------------------------------------------
(PID.TID 0000.0001) //     18 ----------------------------------------------------------------------
(PID.TID 0000.0001) //     17 ----------------------------------------------------------------------
(PID.TID 0000.0001) //     16 ----------------------------------------------------------------------
(PID.TID 0000.0001) //     15 ----------------------------------------------------------------------
(PID.TID 0000.0001) //     14 ----------------------------------------------------------------------
(PID.TID 0000.0001) //     13 ----------------------------------------------------------------------
(PID.TID 0000.0001) //     12 ----------------------------------------------------------------------
(PID.TID 0000.0001) //     11 ----------------------------------------------------------------------
(PID.TID 0000.0001) //     10 ----------------------------------------------------------------------
(PID.TID 0000.0001) //      9 ----------------------------------------------------------------------
(PID.TID 0000.0001) //      8 ----------------------------------------------------------------------
(PID.TID 0000.0001) //      7 ----------------------------------------------------------------------
(PID.TID 0000.0001) //      6 ----------------------------------------------------------------------
(PID.TID 0000.0001) //      5 ----------------------------------------------------------------------
(PID.TID 0000.0001) //      4 ----------------------------------------------------------------------
(PID.TID 0000.0001) //      3 ----------------------------------------------------------------------
(PID.TID 0000.0001) //      2 ----------------------------------------------------------------------
(PID.TID 0000.0001) //      1 ----------------------------------------------------------------------
(PID.TID 0000.0001) //      0 ----------------------------------------------------------------------
(PID.TID 0000.0001) //     -1 ----------------------------------------------------------------------
(PID.TID 0000.0001) //     -2 ----------------------------------------------------------------------
(PID.TID 0000.0001) // =======================================================
(PID.TID 0000.0001) // END OF FIELD                                          =
(PID.TID 0000.0001) // =======================================================
(PID.TID 0000.0001) 
(PID.TID 0000.0001) // =======================================================
(PID.TID 0000.0001) // Field Model Ro_surf (ini_masks_etc) at iteration          1
(PID.TID 0000.0001) // CMIN =          1.942890293094024E-16
(PID.TID 0000.0001) // CMAX =          1.942890293094024E-16
(PID.TID 0000.0001) // CINT =          0.000000000000000E+00
(PID.TID 0000.0001) // SYMBOLS (CMIN->CMAX): -abcdefghijklmnopqrstuvwxyz+
(PID.TID 0000.0001) //                  0.0: .
(PID.TID 0000.0001) // RANGE I (Lo:Hi:Step):(  -2:  67:   1)
(PID.TID 0000.0001) // RANGE J (Lo:Hi:Step):(  67:  -2:  -1)
(PID.TID 0000.0001) // RANGE K (Lo:Hi:Step):(   1:   1:   1)
(PID.TID 0000.0001) // =======================================================
(PID.TID 0000.0001) K =   1
(PID.TID 0000.0001) //                I=7       I=17      I=27      I=37      I=47      I=57      I=67
(PID.TID 0000.0001) // |--J--|**0123456|890123456|890123456|890123456|890123456|890123456|890123456|
(PID.TID 0000.0001) //     67 ----------------------------------------------------------------------
(PID.TID 0000.0001) //     66 ----------------------------------------------------------------------
(PID.TID 0000.0001) //     65 ----------------------------------------------------------------------
(PID.TID 0000.0001) //     64 ----------------------------------------------------------------------
(PID.TID 0000.0001) //     63 ----------------------------------------------------------------------
(PID.TID 0000.0001) //     62 ----------------------------------------------------------------------
(PID.TID 0000.0001) //     61 ----------------------------------------------------------------------
(PID.TID 0000.0001) //     60 ----------------------------------------------------------------------
(PID.TID 0000.0001) //     59 ----------------------------------------------------------------------
(PID.TID 0000.0001) //     58 ----------------------------------------------------------------------
(PID.TID 0000.0001) //     57 ----------------------------------------------------------------------
(PID.TID 0000.0001) //     56 ----------------------------------------------------------------------
(PID.TID 0000.0001) //     55 ----------------------------------------------------------------------
(PID.TID 0000.0001) //     54 ----------------------------------------------------------------------
(PID.TID 0000.0001) //     53 ----------------------------------------------------------------------
(PID.TID 0000.0001) //     52 ----------------------------------------------------------------------
(PID.TID 0000.0001) //     51 ----------------------------------------------------------------------
(PID.TID 0000.0001) //     50 ----------------------------------------------------------------------
(PID.TID 0000.0001) //     49 ----------------------------------------------------------------------
(PID.TID 0000.0001) //     48 ----------------------------------------------------------------------
(PID.TID 0000.0001) //     47 ----------------------------------------------------------------------
(PID.TID 0000.0001) //     46 ----------------------------------------------------------------------
(PID.TID 0000.0001) //     45 ----------------------------------------------------------------------
(PID.TID 0000.0001) //     44 ----------------------------------------------------------------------
(PID.TID 0000.0001) //     43 ----------------------------------------------------------------------
(PID.TID 0000.0001) //     42 ----------------------------------------------------------------------
(PID.TID 0000.0001) //     41 ----------------------------------------------------------------------
(PID.TID 0000.0001) //     40 ----------------------------------------------------------------------
(PID.TID 0000.0001) //     39 ----------------------------------------------------------------------
(PID.TID 0000.0001) //     38 ----------------------------------------------------------------------
(PID.TID 0000.0001) //     37 ----------------------------------------------------------------------
(PID.TID 0000.0001) //     36 ----------------------------------------------------------------------
(PID.TID 0000.0001) //     35 ----------------------------------------------------------------------
(PID.TID 0000.0001) //     34 ----------------------------------------------------------------------
(PID.TID 0000.0001) //     33 ----------------------------------------------------------------------
(PID.TID 0000.0001) //     32 ----------------------------------------------------------------------
(PID.TID 0000.0001) //     31 ----------------------------------------------------------------------
(PID.TID 0000.0001) //     30 ----------------------------------------------------------------------
(PID.TID 0000.0001) //     29 ----------------------------------------------------------------------
(PID.TID 0000.0001) //     28 ----------------------------------------------------------------------
(PID.TID 0000.0001) //     27 ----------------------------------------------------------------------
(PID.TID 0000.0001) //     26 ----------------------------------------------------------------------
(PID.TID 0000.0001) //     25 ----------------------------------------------------------------------
(PID.TID 0000.0001) //     24 ----------------------------------------------------------------------
(PID.TID 0000.0001) //     23 ----------------------------------------------------------------------
(PID.TID 0000.0001) //     22 ----------------------------------------------------------------------
(PID.TID 0000.0001) //     21 ----------------------------------------------------------------------
(PID.TID 0000.0001) //     20 ----------------------------------------------------------------------
(PID.TID 0000.0001) //     19 ----------------------------------------------------------------------
(PID.TID 0000.0001) //     18 ----------------------------------------------------------------------
(PID.TID 0000.0001) //     17 ----------------------------------------------------------------------
(PID.TID 0000.0001) //     16 ----------------------------------------------------------------------
(PID.TID 0000.0001) //     15 ----------------------------------------------------------------------
(PID.TID 0000.0001) //     14 ----------------------------------------------------------------------
(PID.TID 0000.0001) //     13 ----------------------------------------------------------------------
(PID.TID 0000.0001) //     12 ----------------------------------------------------------------------
(PID.TID 0000.0001) //     11 ----------------------------------------------------------------------
(PID.TID 0000.0001) //     10 ----------------------------------------------------------------------
(PID.TID 0000.0001) //      9 ----------------------------------------------------------------------
(PID.TID 0000.0001) //      8 ----------------------------------------------------------------------
(PID.TID 0000.0001) //      7 ----------------------------------------------------------------------
(PID.TID 0000.0001) //      6 ----------------------------------------------------------------------
(PID.TID 0000.0001) //      5 ----------------------------------------------------------------------
(PID.TID 0000.0001) //      4 ----------------------------------------------------------------------
(PID.TID 0000.0001) //      3 ----------------------------------------------------------------------
(PID.TID 0000.0001) //      2 ----------------------------------------------------------------------
(PID.TID 0000.0001) //      1 ----------------------------------------------------------------------
(PID.TID 0000.0001) //      0 ----------------------------------------------------------------------
(PID.TID 0000.0001) //     -1 ----------------------------------------------------------------------
(PID.TID 0000.0001) //     -2 ----------------------------------------------------------------------
(PID.TID 0000.0001) // =======================================================
(PID.TID 0000.0001) // END OF FIELD                                          =
(PID.TID 0000.0001) // =======================================================
(PID.TID 0000.0001) 
(PID.TID 0000.0001) // =======================================================
(PID.TID 0000.0001) // Field hFacC at iteration          1
(PID.TID 0000.0001) // CMIN =          1.000000000000000E+00
(PID.TID 0000.0001) // CMAX =          1.000000000000000E+00
(PID.TID 0000.0001) // CINT =          0.000000000000000E+00
(PID.TID 0000.0001) // SYMBOLS (CMIN->CMAX): -abcdefghijklmnopqrstuvwxyz+
(PID.TID 0000.0001) //                  0.0: .
(PID.TID 0000.0001) // RANGE I (Lo:Hi:Step):(  -2:  67:   1)
(PID.TID 0000.0001) // RANGE J (Lo:Hi:Step):(  67:  -2:  -1)
(PID.TID 0000.0001) // RANGE K (Lo:Hi:Step):(   1:   1:   1)
(PID.TID 0000.0001) // =======================================================
(PID.TID 0000.0001) K =   1
(PID.TID 0000.0001) //                I=7       I=17      I=27      I=37      I=47      I=57      I=67
(PID.TID 0000.0001) // |--J--|**0123456|890123456|890123456|890123456|890123456|890123456|890123456|
(PID.TID 0000.0001) //     67 ----------------------------------------------------------------------
(PID.TID 0000.0001) //     66 ----------------------------------------------------------------------
(PID.TID 0000.0001) //     65 ----------------------------------------------------------------------
(PID.TID 0000.0001) //     64 ----------------------------------------------------------------------
(PID.TID 0000.0001) //     63 ----------------------------------------------------------------------
(PID.TID 0000.0001) //     62 ----------------------------------------------------------------------
(PID.TID 0000.0001) //     61 ----------------------------------------------------------------------
(PID.TID 0000.0001) //     60 ----------------------------------------------------------------------
(PID.TID 0000.0001) //     59 ----------------------------------------------------------------------
(PID.TID 0000.0001) //     58 ----------------------------------------------------------------------
(PID.TID 0000.0001) //     57 ----------------------------------------------------------------------
(PID.TID 0000.0001) //     56 ----------------------------------------------------------------------
(PID.TID 0000.0001) //     55 ----------------------------------------------------------------------
(PID.TID 0000.0001) //     54 ----------------------------------------------------------------------
(PID.TID 0000.0001) //     53 ----------------------------------------------------------------------
(PID.TID 0000.0001) //     52 ----------------------------------------------------------------------
(PID.TID 0000.0001) //     51 ----------------------------------------------------------------------
(PID.TID 0000.0001) //     50 ----------------------------------------------------------------------
(PID.TID 0000.0001) //     49 ----------------------------------------------------------------------
(PID.TID 0000.0001) //     48 ----------------------------------------------------------------------
(PID.TID 0000.0001) //     47 ----------------------------------------------------------------------
(PID.TID 0000.0001) //     46 ----------------------------------------------------------------------
(PID.TID 0000.0001) //     45 ----------------------------------------------------------------------
(PID.TID 0000.0001) //     44 ----------------------------------------------------------------------
(PID.TID 0000.0001) //     43 ----------------------------------------------------------------------
(PID.TID 0000.0001) //     42 ----------------------------------------------------------------------
(PID.TID 0000.0001) //     41 ----------------------------------------------------------------------
(PID.TID 0000.0001) //     40 ----------------------------------------------------------------------
(PID.TID 0000.0001) //     39 ----------------------------------------------------------------------
(PID.TID 0000.0001) //     38 ----------------------------------------------------------------------
(PID.TID 0000.0001) //     37 ----------------------------------------------------------------------
(PID.TID 0000.0001) //     36 ----------------------------------------------------------------------
(PID.TID 0000.0001) //     35 ----------------------------------------------------------------------
(PID.TID 0000.0001) //     34 ----------------------------------------------------------------------
(PID.TID 0000.0001) //     33 ----------------------------------------------------------------------
(PID.TID 0000.0001) //     32 ----------------------------------------------------------------------
(PID.TID 0000.0001) //     31 ----------------------------------------------------------------------
(PID.TID 0000.0001) //     30 ----------------------------------------------------------------------
(PID.TID 0000.0001) //     29 ----------------------------------------------------------------------
(PID.TID 0000.0001) //     28 ----------------------------------------------------------------------
(PID.TID 0000.0001) //     27 ----------------------------------------------------------------------
(PID.TID 0000.0001) //     26 ----------------------------------------------------------------------
(PID.TID 0000.0001) //     25 ----------------------------------------------------------------------
(PID.TID 0000.0001) //     24 ----------------------------------------------------------------------
(PID.TID 0000.0001) //     23 ----------------------------------------------------------------------
(PID.TID 0000.0001) //     22 ----------------------------------------------------------------------
(PID.TID 0000.0001) //     21 ----------------------------------------------------------------------
(PID.TID 0000.0001) //     20 ----------------------------------------------------------------------
(PID.TID 0000.0001) //     19 ----------------------------------------------------------------------
(PID.TID 0000.0001) //     18 ----------------------------------------------------------------------
(PID.TID 0000.0001) //     17 ----------------------------------------------------------------------
(PID.TID 0000.0001) //     16 ----------------------------------------------------------------------
(PID.TID 0000.0001) //     15 ----------------------------------------------------------------------
(PID.TID 0000.0001) //     14 ----------------------------------------------------------------------
(PID.TID 0000.0001) //     13 ----------------------------------------------------------------------
(PID.TID 0000.0001) //     12 ----------------------------------------------------------------------
(PID.TID 0000.0001) //     11 ----------------------------------------------------------------------
(PID.TID 0000.0001) //     10 ----------------------------------------------------------------------
(PID.TID 0000.0001) //      9 ----------------------------------------------------------------------
(PID.TID 0000.0001) //      8 ----------------------------------------------------------------------
(PID.TID 0000.0001) //      7 ----------------------------------------------------------------------
(PID.TID 0000.0001) //      6 ----------------------------------------------------------------------
(PID.TID 0000.0001) //      5 ----------------------------------------------------------------------
(PID.TID 0000.0001) //      4 ----------------------------------------------------------------------
(PID.TID 0000.0001) //      3 ----------------------------------------------------------------------
(PID.TID 0000.0001) //      2 ----------------------------------------------------------------------
(PID.TID 0000.0001) //      1 ----------------------------------------------------------------------
(PID.TID 0000.0001) //      0 ----------------------------------------------------------------------
(PID.TID 0000.0001) //     -1 ----------------------------------------------------------------------
(PID.TID 0000.0001) //     -2 ----------------------------------------------------------------------
(PID.TID 0000.0001) // =======================================================
(PID.TID 0000.0001) // END OF FIELD                                          =
(PID.TID 0000.0001) // =======================================================
(PID.TID 0000.0001) 
(PID.TID 0000.0001) // =======================================================
(PID.TID 0000.0001) // Field hFacW at iteration          1
(PID.TID 0000.0001) // CMIN =          1.000000000000000E+00
(PID.TID 0000.0001) // CMAX =          1.000000000000000E+00
(PID.TID 0000.0001) // CINT =          0.000000000000000E+00
(PID.TID 0000.0001) // SYMBOLS (CMIN->CMAX): -abcdefghijklmnopqrstuvwxyz+
(PID.TID 0000.0001) //                  0.0: .
(PID.TID 0000.0001) // RANGE I (Lo:Hi:Step):(  -2:  67:   1)
(PID.TID 0000.0001) // RANGE J (Lo:Hi:Step):(  67:  -2:  -1)
(PID.TID 0000.0001) // RANGE K (Lo:Hi:Step):(   1:   1:   1)
(PID.TID 0000.0001) // =======================================================
(PID.TID 0000.0001) K =   1
(PID.TID 0000.0001) //                I=7       I=17      I=27      I=37      I=47      I=57      I=67
(PID.TID 0000.0001) // |--J--|**0123456|890123456|890123456|890123456|890123456|890123456|890123456|
(PID.TID 0000.0001) //     67 ----------------------------------------------------------------------
(PID.TID 0000.0001) //     66 ----------------------------------------------------------------------
(PID.TID 0000.0001) //     65 ----------------------------------------------------------------------
(PID.TID 0000.0001) //     64 ----------------------------------------------------------------------
(PID.TID 0000.0001) //     63 ----------------------------------------------------------------------
(PID.TID 0000.0001) //     62 ----------------------------------------------------------------------
(PID.TID 0000.0001) //     61 ----------------------------------------------------------------------
(PID.TID 0000.0001) //     60 ----------------------------------------------------------------------
(PID.TID 0000.0001) //     59 ----------------------------------------------------------------------
(PID.TID 0000.0001) //     58 ----------------------------------------------------------------------
(PID.TID 0000.0001) //     57 ----------------------------------------------------------------------
(PID.TID 0000.0001) //     56 ----------------------------------------------------------------------
(PID.TID 0000.0001) //     55 ----------------------------------------------------------------------
(PID.TID 0000.0001) //     54 ----------------------------------------------------------------------
(PID.TID 0000.0001) //     53 ----------------------------------------------------------------------
(PID.TID 0000.0001) //     52 ----------------------------------------------------------------------
(PID.TID 0000.0001) //     51 ----------------------------------------------------------------------
(PID.TID 0000.0001) //     50 ----------------------------------------------------------------------
(PID.TID 0000.0001) //     49 ----------------------------------------------------------------------
(PID.TID 0000.0001) //     48 ----------------------------------------------------------------------
(PID.TID 0000.0001) //     47 ----------------------------------------------------------------------
(PID.TID 0000.0001) //     46 ----------------------------------------------------------------------
(PID.TID 0000.0001) //     45 ----------------------------------------------------------------------
(PID.TID 0000.0001) //     44 ----------------------------------------------------------------------
(PID.TID 0000.0001) //     43 ----------------------------------------------------------------------
(PID.TID 0000.0001) //     42 ----------------------------------------------------------------------
(PID.TID 0000.0001) //     41 ----------------------------------------------------------------------
(PID.TID 0000.0001) //     40 ----------------------------------------------------------------------
(PID.TID 0000.0001) //     39 ----------------------------------------------------------------------
(PID.TID 0000.0001) //     38 ----------------------------------------------------------------------
(PID.TID 0000.0001) //     37 ----------------------------------------------------------------------
(PID.TID 0000.0001) //     36 ----------------------------------------------------------------------
(PID.TID 0000.0001) //     35 ----------------------------------------------------------------------
(PID.TID 0000.0001) //     34 ----------------------------------------------------------------------
(PID.TID 0000.0001) //     33 ----------------------------------------------------------------------
(PID.TID 0000.0001) //     32 ----------------------------------------------------------------------
(PID.TID 0000.0001) //     31 ----------------------------------------------------------------------
(PID.TID 0000.0001) //     30 ----------------------------------------------------------------------
(PID.TID 0000.0001) //     29 ----------------------------------------------------------------------
(PID.TID 0000.0001) //     28 ----------------------------------------------------------------------
(PID.TID 0000.0001) //     27 ----------------------------------------------------------------------
(PID.TID 0000.0001) //     26 ----------------------------------------------------------------------
(PID.TID 0000.0001) //     25 ----------------------------------------------------------------------
(PID.TID 0000.0001) //     24 ----------------------------------------------------------------------
(PID.TID 0000.0001) //     23 ----------------------------------------------------------------------
(PID.TID 0000.0001) //     22 ----------------------------------------------------------------------
(PID.TID 0000.0001) //     21 ----------------------------------------------------------------------
(PID.TID 0000.0001) //     20 ----------------------------------------------------------------------
(PID.TID 0000.0001) //     19 ----------------------------------------------------------------------
(PID.TID 0000.0001) //     18 ----------------------------------------------------------------------
(PID.TID 0000.0001) //     17 ----------------------------------------------------------------------
(PID.TID 0000.0001) //     16 ----------------------------------------------------------------------
(PID.TID 0000.0001) //     15 ----------------------------------------------------------------------
(PID.TID 0000.0001) //     14 ----------------------------------------------------------------------
(PID.TID 0000.0001) //     13 ----------------------------------------------------------------------
(PID.TID 0000.0001) //     12 ----------------------------------------------------------------------
(PID.TID 0000.0001) //     11 ----------------------------------------------------------------------
(PID.TID 0000.0001) //     10 ----------------------------------------------------------------------
(PID.TID 0000.0001) //      9 ----------------------------------------------------------------------
(PID.TID 0000.0001) //      8 ----------------------------------------------------------------------
(PID.TID 0000.0001) //      7 ----------------------------------------------------------------------
(PID.TID 0000.0001) //      6 ----------------------------------------------------------------------
(PID.TID 0000.0001) //      5 ----------------------------------------------------------------------
(PID.TID 0000.0001) //      4 ----------------------------------------------------------------------
(PID.TID 0000.0001) //      3 ----------------------------------------------------------------------
(PID.TID 0000.0001) //      2 ----------------------------------------------------------------------
(PID.TID 0000.0001) //      1 ----------------------------------------------------------------------
(PID.TID 0000.0001) //      0 ----------------------------------------------------------------------
(PID.TID 0000.0001) //     -1 ----------------------------------------------------------------------
(PID.TID 0000.0001) //     -2 ----------------------------------------------------------------------
(PID.TID 0000.0001) // =======================================================
(PID.TID 0000.0001) // END OF FIELD                                          =
(PID.TID 0000.0001) // =======================================================
(PID.TID 0000.0001) 
(PID.TID 0000.0001) // =======================================================
(PID.TID 0000.0001) // Field hFacS at iteration          1
(PID.TID 0000.0001) // CMIN =          1.000000000000000E+00
(PID.TID 0000.0001) // CMAX =          1.000000000000000E+00
(PID.TID 0000.0001) // CINT =          0.000000000000000E+00
(PID.TID 0000.0001) // SYMBOLS (CMIN->CMAX): -abcdefghijklmnopqrstuvwxyz+
(PID.TID 0000.0001) //                  0.0: .
(PID.TID 0000.0001) // RANGE I (Lo:Hi:Step):(  -2:  67:   1)
(PID.TID 0000.0001) // RANGE J (Lo:Hi:Step):(  67:  -2:  -1)
(PID.TID 0000.0001) // RANGE K (Lo:Hi:Step):(   1:   1:   1)
(PID.TID 0000.0001) // =======================================================
(PID.TID 0000.0001) K =   1
(PID.TID 0000.0001) //                I=7       I=17      I=27      I=37      I=47      I=57      I=67
(PID.TID 0000.0001) // |--J--|**0123456|890123456|890123456|890123456|890123456|890123456|890123456|
(PID.TID 0000.0001) //     67 ----------------------------------------------------------------------
(PID.TID 0000.0001) //     66 ----------------------------------------------------------------------
(PID.TID 0000.0001) //     65 ----------------------------------------------------------------------
(PID.TID 0000.0001) //     64 ----------------------------------------------------------------------
(PID.TID 0000.0001) //     63 ----------------------------------------------------------------------
(PID.TID 0000.0001) //     62 ----------------------------------------------------------------------
(PID.TID 0000.0001) //     61 ----------------------------------------------------------------------
(PID.TID 0000.0001) //     60 ----------------------------------------------------------------------
(PID.TID 0000.0001) //     59 ----------------------------------------------------------------------
(PID.TID 0000.0001) //     58 ----------------------------------------------------------------------
(PID.TID 0000.0001) //     57 ----------------------------------------------------------------------
(PID.TID 0000.0001) //     56 ----------------------------------------------------------------------
(PID.TID 0000.0001) //     55 ----------------------------------------------------------------------
(PID.TID 0000.0001) //     54 ----------------------------------------------------------------------
(PID.TID 0000.0001) //     53 ----------------------------------------------------------------------
(PID.TID 0000.0001) //     52 ----------------------------------------------------------------------
(PID.TID 0000.0001) //     51 ----------------------------------------------------------------------
(PID.TID 0000.0001) //     50 ----------------------------------------------------------------------
(PID.TID 0000.0001) //     49 ----------------------------------------------------------------------
(PID.TID 0000.0001) //     48 ----------------------------------------------------------------------
(PID.TID 0000.0001) //     47 ----------------------------------------------------------------------
(PID.TID 0000.0001) //     46 ----------------------------------------------------------------------
(PID.TID 0000.0001) //     45 ----------------------------------------------------------------------
(PID.TID 0000.0001) //     44 ----------------------------------------------------------------------
(PID.TID 0000.0001) //     43 ----------------------------------------------------------------------
(PID.TID 0000.0001) //     42 ----------------------------------------------------------------------
(PID.TID 0000.0001) //     41 ----------------------------------------------------------------------
(PID.TID 0000.0001) //     40 ----------------------------------------------------------------------
(PID.TID 0000.0001) //     39 ----------------------------------------------------------------------
(PID.TID 0000.0001) //     38 ----------------------------------------------------------------------
(PID.TID 0000.0001) //     37 ----------------------------------------------------------------------
(PID.TID 0000.0001) //     36 ----------------------------------------------------------------------
(PID.TID 0000.0001) //     35 ----------------------------------------------------------------------
(PID.TID 0000.0001) //     34 ----------------------------------------------------------------------
(PID.TID 0000.0001) //     33 ----------------------------------------------------------------------
(PID.TID 0000.0001) //     32 ----------------------------------------------------------------------
(PID.TID 0000.0001) //     31 ----------------------------------------------------------------------
(PID.TID 0000.0001) //     30 ----------------------------------------------------------------------
(PID.TID 0000.0001) //     29 ----------------------------------------------------------------------
(PID.TID 0000.0001) //     28 ----------------------------------------------------------------------
(PID.TID 0000.0001) //     27 ----------------------------------------------------------------------
(PID.TID 0000.0001) //     26 ----------------------------------------------------------------------
(PID.TID 0000.0001) //     25 ----------------------------------------------------------------------
(PID.TID 0000.0001) //     24 ----------------------------------------------------------------------
(PID.TID 0000.0001) //     23 ----------------------------------------------------------------------
(PID.TID 0000.0001) //     22 ----------------------------------------------------------------------
(PID.TID 0000.0001) //     21 ----------------------------------------------------------------------
(PID.TID 0000.0001) //     20 ----------------------------------------------------------------------
(PID.TID 0000.0001) //     19 ----------------------------------------------------------------------
(PID.TID 0000.0001) //     18 ----------------------------------------------------------------------
(PID.TID 0000.0001) //     17 ----------------------------------------------------------------------
(PID.TID 0000.0001) //     16 ----------------------------------------------------------------------
(PID.TID 0000.0001) //     15 ----------------------------------------------------------------------
(PID.TID 0000.0001) //     14 ----------------------------------------------------------------------
(PID.TID 0000.0001) //     13 ----------------------------------------------------------------------
(PID.TID 0000.0001) //     12 ----------------------------------------------------------------------
(PID.TID 0000.0001) //     11 ----------------------------------------------------------------------
(PID.TID 0000.0001) //     10 ----------------------------------------------------------------------
(PID.TID 0000.0001) //      9 ----------------------------------------------------------------------
(PID.TID 0000.0001) //      8 ----------------------------------------------------------------------
(PID.TID 0000.0001) //      7 ----------------------------------------------------------------------
(PID.TID 0000.0001) //      6 ----------------------------------------------------------------------
(PID.TID 0000.0001) //      5 ----------------------------------------------------------------------
(PID.TID 0000.0001) //      4 ----------------------------------------------------------------------
(PID.TID 0000.0001) //      3 ----------------------------------------------------------------------
(PID.TID 0000.0001) //      2 ----------------------------------------------------------------------
(PID.TID 0000.0001) //      1 ----------------------------------------------------------------------
(PID.TID 0000.0001) //      0 ----------------------------------------------------------------------
(PID.TID 0000.0001) //     -1 ----------------------------------------------------------------------
(PID.TID 0000.0001) //     -2 ----------------------------------------------------------------------
(PID.TID 0000.0001) // =======================================================
(PID.TID 0000.0001) // END OF FIELD                                          =
(PID.TID 0000.0001) // =======================================================
(PID.TID 0000.0001) 
(PID.TID 0000.0001) %MON fCori_max                    =   1.2500000000000E+03
(PID.TID 0000.0001) %MON fCori_min                    =   1.2500000000000E+03
(PID.TID 0000.0001) %MON fCori_mean                   =   1.2500000000000E+03
(PID.TID 0000.0001) %MON fCori_sd                     =   0.0000000000000E+00
(PID.TID 0000.0001) %MON fCoriG_max                   =   1.2500000000000E+03
(PID.TID 0000.0001) %MON fCoriG_min                   =   1.2500000000000E+03
(PID.TID 0000.0001) %MON fCoriG_mean                  =   1.2500000000000E+03
(PID.TID 0000.0001) %MON fCoriG_sd                    =   0.0000000000000E+00
(PID.TID 0000.0001)  PACKAGE_INIT: opening data.pkg
(PID.TID 0000.0001)  OPEN_COPY_DATA_FILE: opening file data.pkg
(PID.TID 0000.0001) // =======================================================
(PID.TID 0000.0001) // Parameter file "data.pkg"
(PID.TID 0000.0001) // =======================================================
(PID.TID 0000.0001) ># Packages
(PID.TID 0000.0001) > &PACKAGES
(PID.TID 0000.0001) > &
(PID.TID 0000.0001) 
(PID.TID 0000.0001)  PACKAGE_INIT: finished reading data.pkg
(PID.TID 0000.0001) // CG2D normalisation factor =          0.4999999999999998889776975E+00
(PID.TID 0000.0001) 
(PID.TID 0000.0001) // CG3D normalisation factor =          0.1000000000000000000000000E+02
(PID.TID 0000.0001) 
(PID.TID 0000.0001) // =======================================================
(PID.TID 0000.0001) // Model configuration
(PID.TID 0000.0001) // =======================================================
(PID.TID 0000.0001) //
(PID.TID 0000.0001) // "Physical" paramters ( PARM01 in namelist )
(PID.TID 0000.0001) //
(PID.TID 0000.0001) tRef =   /* Reference temperature profile ( oC or oK ) */
(PID.TID 0000.0001)    20 @  1.000000000000000E+00              /* K =  1: 20 */
(PID.TID 0000.0001)     ;
(PID.TID 0000.0001) sRef =   /* Reference salinity profile ( ppt ) */
(PID.TID 0000.0001)    20 @  3.500000000000000E+01              /* K =  1: 20 */
(PID.TID 0000.0001)     ;
(PID.TID 0000.0001) viscAh =   /* Lateral eddy viscosity ( m^2/s ) */
(PID.TID 0000.0001)                 1.000000000000000E+00
(PID.TID 0000.0001)     ;
(PID.TID 0000.0001) viscAh =   /* Lateral biharmonic viscosity ( m^4/s ) */
(PID.TID 0000.0001)                 0.000000000000000E+00
(PID.TID 0000.0001)     ;
(PID.TID 0000.0001) no_slip_sides =  /* Viscous BCs: No-slip sides */
(PID.TID 0000.0001)                   F
(PID.TID 0000.0001)     ;
(PID.TID 0000.0001) viscAz =   /* Vertical eddy viscosity ( m^2/s ) */
(PID.TID 0000.0001)                 1.000000000000000E+00
(PID.TID 0000.0001)     ;
(PID.TID 0000.0001) viscAr =   /* Vertical eddy viscosity ( units of r^2/s ) */
(PID.TID 0000.0001)                 1.000000000000000E+00
(PID.TID 0000.0001)     ;
(PID.TID 0000.0001) diffKhT =   /* Laplacian diffusion of heat laterally ( m^2/s ) */
(PID.TID 0000.0001)                 1.000000000000000E+00
(PID.TID 0000.0001)     ;
(PID.TID 0000.0001) diffK4T =   /* Bihaarmonic diffusion of heat laterally ( m^4/s ) */
(PID.TID 0000.0001)                 0.000000000000000E+00
(PID.TID 0000.0001)     ;
(PID.TID 0000.0001) diffKzT =   /* Laplacian diffusion of heat vertically ( m^2/s ) */
(PID.TID 0000.0001)                 1.000000000000000E+00
(PID.TID 0000.0001)     ;
(PID.TID 0000.0001) diffKrT =   /* Laplacian diffusion of heat vertically ( m^2/s ) */
(PID.TID 0000.0001)                 1.000000000000000E+00
(PID.TID 0000.0001)     ;
(PID.TID 0000.0001) diffKhS =   /* Laplacian diffusion of salt laterally ( m^2/s ) */
(PID.TID 0000.0001)                 1.000000000000000E+00
(PID.TID 0000.0001)     ;
(PID.TID 0000.0001) diffK4S =   /* Bihaarmonic diffusion of salt laterally ( m^4/s ) */
(PID.TID 0000.0001)                 0.000000000000000E+00
(PID.TID 0000.0001)     ;
(PID.TID 0000.0001) diffKzS =   /* Laplacian diffusion of salt vertically ( m^2/s ) */
(PID.TID 0000.0001)                 1.000000000000000E+00
(PID.TID 0000.0001)     ;
(PID.TID 0000.0001) diffKrS =   /* Laplacian diffusion of salt vertically ( m^2/s ) */
(PID.TID 0000.0001)                 1.000000000000000E+00
(PID.TID 0000.0001)     ;
(PID.TID 0000.0001) tAlpha =   /* Linear EOS thermal expansion coefficient ( 1/degree ) */
(PID.TID 0000.0001)                 1.000000000000000E+00
(PID.TID 0000.0001)     ;
(PID.TID 0000.0001) sBeta =   /* Linear EOS haline contraction coefficient ( 1/ppt ) */
(PID.TID 0000.0001)                 0.000000000000000E+00
(PID.TID 0000.0001)     ;
(PID.TID 0000.0001) rhonil =   /* Reference density ( kg/m^3 ) */
(PID.TID 0000.0001)                 1.000000000000000E+00
(PID.TID 0000.0001)     ;
(PID.TID 0000.0001) rhoConst =   /* Reference density ( kg/m^3 ) */
(PID.TID 0000.0001)                 1.000000000000000E+00
(PID.TID 0000.0001)     ;
(PID.TID 0000.0001) gravity =   /* Gravitational acceleration ( m/s^2 ) */
(PID.TID 0000.0001)                 1.400000000000000E+08
(PID.TID 0000.0001)     ;
(PID.TID 0000.0001) gBaro =   /* Barotropic gravity ( m/s^2 ) */
(PID.TID 0000.0001)                 1.400000000000000E+08
(PID.TID 0000.0001)     ;
(PID.TID 0000.0001) f0 =   /* Reference coriolis parameter ( 1/s ) */
(PID.TID 0000.0001)                 1.250000000000000E+03
(PID.TID 0000.0001)     ;
(PID.TID 0000.0001) beta =   /* Beta ( 1/(m.s) ) */
(PID.TID 0000.0001)                 0.000000000000000E+00
(PID.TID 0000.0001)     ;
(PID.TID 0000.0001) freeSurfFac =   /* Implicit free surface factor */
(PID.TID 0000.0001)                 1.000000000000000E+00
(PID.TID 0000.0001)     ;
(PID.TID 0000.0001) implicitFreeSurface =   /* Implicit free surface on/off flag */
(PID.TID 0000.0001)                   T
(PID.TID 0000.0001)     ;
(PID.TID 0000.0001) rigidLid =   /* Rigid lid on/off flag */
(PID.TID 0000.0001)                   F
(PID.TID 0000.0001)     ;
(PID.TID 0000.0001) implicSurfPress =   /* Surface Pressure implicit factor (0-1)*/
(PID.TID 0000.0001)                 1.000000000000000E+00
(PID.TID 0000.0001)     ;
(PID.TID 0000.0001) implicDiv2Dflow =   /* Barot. Flow Div. implicit factor (0-1)*/
(PID.TID 0000.0001)                 1.000000000000000E+00
(PID.TID 0000.0001)     ;
(PID.TID 0000.0001) staggerTimeStep =   /* Stagger time stepping on/off flag */
(PID.TID 0000.0001)                   F
(PID.TID 0000.0001)     ;
(PID.TID 0000.0001) momStepping =  /* Momentum equation on/off flag */
(PID.TID 0000.0001)                   T
(PID.TID 0000.0001)     ;
(PID.TID 0000.0001) momAdvection =  /* Momentum advection on/off flag */
(PID.TID 0000.0001)                   T
(PID.TID 0000.0001)     ;
(PID.TID 0000.0001) momViscosity =  /* Momentum viscosity on/off flag */
(PID.TID 0000.0001)                   T
(PID.TID 0000.0001)     ;
(PID.TID 0000.0001) useCoriolis =  /* Coriolis on/off flag */
(PID.TID 0000.0001)                   T
(PID.TID 0000.0001)     ;
(PID.TID 0000.0001) momForcing =  /* Momentum forcing on/off flag */
(PID.TID 0000.0001)                   T
(PID.TID 0000.0001)     ;
(PID.TID 0000.0001) momPressureForcing =  /* Momentum pressure term on/off flag */
(PID.TID 0000.0001)                   T
(PID.TID 0000.0001)     ;
(PID.TID 0000.0001) tempStepping =  /* Temperature equation on/off flag */
(PID.TID 0000.0001)                   T
(PID.TID 0000.0001)     ;
(PID.TID 0000.0001) nonHydrostatic =  /* Non-Hydrostatic on/off flag */
(PID.TID 0000.0001)                   T
(PID.TID 0000.0001)     ;
(PID.TID 0000.0001) //
(PID.TID 0000.0001) // Elliptic solver(s) paramters ( PARM02 in namelist )
(PID.TID 0000.0001) //
(PID.TID 0000.0001) cg2dMaxIters =   /* Upper limit on 2d con. grad iterations  */
(PID.TID 0000.0001)                    1000
(PID.TID 0000.0001)     ;
(PID.TID 0000.0001) cg2dChkResFreq =   /* 2d con. grad convergence test frequency */
(PID.TID 0000.0001)                       1
(PID.TID 0000.0001)     ;
(PID.TID 0000.0001) cg2dTargetResidual =   /* 2d con. grad target residual  */
(PID.TID 0000.0001)                 1.000000000000000E-09
(PID.TID 0000.0001)     ;
(PID.TID 0000.0001) //
(PID.TID 0000.0001) // Time stepping paramters ( PARM03 in namelist )
(PID.TID 0000.0001) //
(PID.TID 0000.0001) nIter0 =   /* Base timestep number  */
(PID.TID 0000.0001)                       0
(PID.TID 0000.0001)     ;
(PID.TID 0000.0001) nTimeSteps =   /* Number of timesteps */
(PID.TID 0000.0001)                      10
(PID.TID 0000.0001)     ;
(PID.TID 0000.0001) deltatTmom =   /* Momentum equation timestep ( s ) */
(PID.TID 0000.0001)                 2.000000000000000E-04
(PID.TID 0000.0001)     ;
(PID.TID 0000.0001) deltatTtracer =   /* Tracer equation timestep ( s ) */
(PID.TID 0000.0001)                 2.000000000000000E-04
(PID.TID 0000.0001)     ;
(PID.TID 0000.0001) deltatTClock  =   /* Model clock timestep ( s ) */
(PID.TID 0000.0001)                 2.000000000000000E-04
(PID.TID 0000.0001)     ;
(PID.TID 0000.0001) cAdjFreq =   /* Convective adjustment interval ( s ) */
(PID.TID 0000.0001)                 0.000000000000000E+00
(PID.TID 0000.0001)     ;
(PID.TID 0000.0001) abeps =   /* Adams-Bashforth stabilizing weight */
(PID.TID 0000.0001)                 1.000000000000000E-01
(PID.TID 0000.0001)     ;
(PID.TID 0000.0001) tauCD =   /* CD coupling time-scale ( s ) */
(PID.TID 0000.0001)                 2.000000000000000E-04
(PID.TID 0000.0001)     ;
(PID.TID 0000.0001) rCD =   /* Normalised CD coupling parameter */
(PID.TID 0000.0001)                 0.000000000000000E+00
(PID.TID 0000.0001)     ;
(PID.TID 0000.0001) startTime =   /* Run start time ( s ). */
(PID.TID 0000.0001)                 0.000000000000000E+00
(PID.TID 0000.0001)     ;
(PID.TID 0000.0001) endTime =   /* Integration ending time ( s ). */
(PID.TID 0000.0001)                 2.000000000000000E-03
(PID.TID 0000.0001)     ;
(PID.TID 0000.0001) pChkPtFreq =   /* Permanent restart/checkpoint file interval ( s ). */
(PID.TID 0000.0001)                 0.000000000000000E+00
(PID.TID 0000.0001)     ;
(PID.TID 0000.0001) chkPtFreq =   /* Rolling restart/checkpoint file interval ( s ). */
(PID.TID 0000.0001)                 0.000000000000000E+00
(PID.TID 0000.0001)     ;
(PID.TID 0000.0001) dumpFreq =   /* Model state write out interval ( s ). */
(PID.TID 0000.0001)                 1.000000000000000E-01
(PID.TID 0000.0001)     ;
(PID.TID 0000.0001) //
(PID.TID 0000.0001) // Gridding paramters ( PARM04 in namelist )
(PID.TID 0000.0001) //
(PID.TID 0000.0001) usingCartesianGrid =   /* Cartesian coordinates flag ( True / False ) */
(PID.TID 0000.0001)                   T
(PID.TID 0000.0001)     ;
(PID.TID 0000.0001) usingSphericalPolarGrid =   /* Spherical coordinates flag ( True / False ) */
(PID.TID 0000.0001)                   F
(PID.TID 0000.0001)     ;
(PID.TID 0000.0001) groundAtK1 =   /* Lower Boundary (ground) at the surface(k=1) ( T / F ) */
(PID.TID 0000.0001)                   F
(PID.TID 0000.0001)     ;
(PID.TID 0000.0001) Ro_SeaLevel =   /* r(1) ( units of r ) */
(PID.TID 0000.0001)                 0.000000000000000E+00
(PID.TID 0000.0001)     ;
(PID.TID 0000.0001) rkFac =   /* minus Vertical index orientation  */
(PID.TID 0000.0001)                 1.000000000000000E+00
(PID.TID 0000.0001)     ;
(PID.TID 0000.0001) horiVertRatio =   /* Ratio on units : Horiz - Vertical */
(PID.TID 0000.0001)                 1.000000000000000E+00
(PID.TID 0000.0001)     ;
(PID.TID 0000.0001) delZ =   /* W spacing ( m ) */
(PID.TID 0000.0001)    20 @  1.000000000000000E-01              /* K =  1: 20 */
(PID.TID 0000.0001)     ;
(PID.TID 0000.0001) delP =   /* W spacing ( Pa ) */
(PID.TID 0000.0001)    20 @  1.234567000000000E+05              /* K =  1: 20 */
(PID.TID 0000.0001)     ;
(PID.TID 0000.0001) delR =   /* W spacing ( units of r ) */
(PID.TID 0000.0001)    20 @  1.000000000000000E-01              /* K =  1: 20 */
(PID.TID 0000.0001)     ;
(PID.TID 0000.0001) delX =   /* U spacing ( m - cartesian, degrees - spherical ) */
(PID.TID 0000.0001)    64 @  6.250000000000000E-02              /* I =  1: 64 */
(PID.TID 0000.0001)     ;
(PID.TID 0000.0001) delY =   /* V spacing ( m - cartesian, degrees - spherical ) */
(PID.TID 0000.0001)    64 @  6.250000000000000E-02              /* J =  1: 64 */
(PID.TID 0000.0001)     ;
(PID.TID 0000.0001) phiMin =    /* South edge (ignored - cartesian, degrees - spherical ) */
(PID.TID 0000.0001)                 0.000000000000000E+00
(PID.TID 0000.0001)     ;
(PID.TID 0000.0001) thetaMin =    /* West edge ( ignored - cartesian, degrees - spherical ) */
(PID.TID 0000.0001)                 0.000000000000000E+00
(PID.TID 0000.0001)     ;
(PID.TID 0000.0001) rSphere =    /* Radius ( ignored - cartesian, m - spherical ) */
(PID.TID 0000.0001)                 6.370000000000000E+06
(PID.TID 0000.0001)     ;
(PID.TID 0000.0001) xcoord =   /* P-point X coord ( m - cartesian, degrees - spherical ) */
(PID.TID 0000.0001)                 3.125000000000000E-02,      /* I =  1 */
(PID.TID 0000.0001)                 9.375000000000000E-02,      /* I =  2 */
(PID.TID 0000.0001)                 1.562500000000000E-01,      /* I =  3 */
(PID.TID 0000.0001)                 2.187500000000000E-01,      /* I =  4 */
(PID.TID 0000.0001)                 2.812500000000000E-01,      /* I =  5 */
(PID.TID 0000.0001)                 3.437500000000000E-01,      /* I =  6 */
(PID.TID 0000.0001)                 4.062500000000000E-01,      /* I =  7 */
(PID.TID 0000.0001)                 4.687500000000000E-01,      /* I =  8 */
(PID.TID 0000.0001)                 5.312500000000000E-01,      /* I =  9 */
(PID.TID 0000.0001)                 5.937500000000000E-01,      /* I = 10 */
(PID.TID 0000.0001)                 6.562500000000000E-01,      /* I = 11 */
(PID.TID 0000.0001)                 7.187500000000000E-01,      /* I = 12 */
(PID.TID 0000.0001)                 7.812500000000000E-01,      /* I = 13 */
(PID.TID 0000.0001)                 8.437500000000000E-01,      /* I = 14 */
(PID.TID 0000.0001)                 9.062500000000000E-01,      /* I = 15 */
(PID.TID 0000.0001)                 9.687500000000000E-01,      /* I = 16 */
(PID.TID 0000.0001)                 1.031250000000000E+00,      /* I = 17 */
(PID.TID 0000.0001)                 1.093750000000000E+00,      /* I = 18 */
(PID.TID 0000.0001)                 1.156250000000000E+00,      /* I = 19 */
(PID.TID 0000.0001)                 1.218750000000000E+00,      /* I = 20 */
(PID.TID 0000.0001)                 1.281250000000000E+00,      /* I = 21 */
(PID.TID 0000.0001)                 1.343750000000000E+00,      /* I = 22 */
(PID.TID 0000.0001)                 1.406250000000000E+00,      /* I = 23 */
(PID.TID 0000.0001)                 1.468750000000000E+00,      /* I = 24 */
(PID.TID 0000.0001)                 1.531250000000000E+00,      /* I = 25 */
(PID.TID 0000.0001)                 1.593750000000000E+00,      /* I = 26 */
(PID.TID 0000.0001)                 1.656250000000000E+00,      /* I = 27 */
(PID.TID 0000.0001)                 1.718750000000000E+00,      /* I = 28 */
(PID.TID 0000.0001)                 1.781250000000000E+00,      /* I = 29 */
(PID.TID 0000.0001)                 1.843750000000000E+00,      /* I = 30 */
(PID.TID 0000.0001)                 1.906250000000000E+00,      /* I = 31 */
(PID.TID 0000.0001)                 1.968750000000000E+00,      /* I = 32 */
(PID.TID 0000.0001)                 2.031250000000000E+00,      /* I = 33 */
(PID.TID 0000.0001)                 2.093750000000000E+00,      /* I = 34 */
(PID.TID 0000.0001)                 2.156250000000000E+00,      /* I = 35 */
(PID.TID 0000.0001)                 2.218750000000000E+00,      /* I = 36 */
(PID.TID 0000.0001)                 2.281250000000000E+00,      /* I = 37 */
(PID.TID 0000.0001)                 2.343750000000000E+00,      /* I = 38 */
(PID.TID 0000.0001)                 2.406250000000000E+00,      /* I = 39 */
(PID.TID 0000.0001)                 2.468750000000000E+00,      /* I = 40 */
(PID.TID 0000.0001)                 2.531250000000000E+00,      /* I = 41 */
(PID.TID 0000.0001)                 2.593750000000000E+00,      /* I = 42 */
(PID.TID 0000.0001)                 2.656250000000000E+00,      /* I = 43 */
(PID.TID 0000.0001)                 2.718750000000000E+00,      /* I = 44 */
(PID.TID 0000.0001)                 2.781250000000000E+00,      /* I = 45 */
(PID.TID 0000.0001)                 2.843750000000000E+00,      /* I = 46 */
(PID.TID 0000.0001)                 2.906250000000000E+00,      /* I = 47 */
(PID.TID 0000.0001)                 2.968750000000000E+00,      /* I = 48 */
(PID.TID 0000.0001)                 3.031250000000000E+00,      /* I = 49 */
(PID.TID 0000.0001)                 3.093750000000000E+00,      /* I = 50 */
(PID.TID 0000.0001)                 3.156250000000000E+00,      /* I = 51 */
(PID.TID 0000.0001)                 3.218750000000000E+00,      /* I = 52 */
(PID.TID 0000.0001)                 3.281250000000000E+00,      /* I = 53 */
(PID.TID 0000.0001)                 3.343750000000000E+00,      /* I = 54 */
(PID.TID 0000.0001)                 3.406250000000000E+00,      /* I = 55 */
(PID.TID 0000.0001)                 3.468750000000000E+00,      /* I = 56 */
(PID.TID 0000.0001)                 3.531250000000000E+00,      /* I = 57 */
(PID.TID 0000.0001)                 3.593750000000000E+00,      /* I = 58 */
(PID.TID 0000.0001)                 3.656250000000000E+00,      /* I = 59 */
(PID.TID 0000.0001)                 3.718750000000000E+00,      /* I = 60 */
(PID.TID 0000.0001)                 3.781250000000000E+00,      /* I = 61 */
(PID.TID 0000.0001)                 3.843750000000000E+00,      /* I = 62 */
(PID.TID 0000.0001)                 3.906250000000000E+00,      /* I = 63 */
(PID.TID 0000.0001)                 3.968750000000000E+00       /* I = 64 */
(PID.TID 0000.0001)     ;
(PID.TID 0000.0001) ycoord =   /* P-point Y coord ( m - cartesian, degrees - spherical ) */
(PID.TID 0000.0001)                 3.125000000000000E-02,      /* J =  1 */
(PID.TID 0000.0001)                 9.375000000000000E-02,      /* J =  2 */
(PID.TID 0000.0001)                 1.562500000000000E-01,      /* J =  3 */
(PID.TID 0000.0001)                 2.187500000000000E-01,      /* J =  4 */
(PID.TID 0000.0001)                 2.812500000000000E-01,      /* J =  5 */
(PID.TID 0000.0001)                 3.437500000000000E-01,      /* J =  6 */
(PID.TID 0000.0001)                 4.062500000000000E-01,      /* J =  7 */
(PID.TID 0000.0001)                 4.687500000000000E-01,      /* J =  8 */
(PID.TID 0000.0001)                 5.312500000000000E-01,      /* J =  9 */
(PID.TID 0000.0001)                 5.937500000000000E-01,      /* J = 10 */
(PID.TID 0000.0001)                 6.562500000000000E-01,      /* J = 11 */
(PID.TID 0000.0001)                 7.187500000000000E-01,      /* J = 12 */
(PID.TID 0000.0001)                 7.812500000000000E-01,      /* J = 13 */
(PID.TID 0000.0001)                 8.437500000000000E-01,      /* J = 14 */
(PID.TID 0000.0001)                 9.062500000000000E-01,      /* J = 15 */
(PID.TID 0000.0001)                 9.687500000000000E-01,      /* J = 16 */
(PID.TID 0000.0001)                 1.031250000000000E+00,      /* J = 17 */
(PID.TID 0000.0001)                 1.093750000000000E+00,      /* J = 18 */
(PID.TID 0000.0001)                 1.156250000000000E+00,      /* J = 19 */
(PID.TID 0000.0001)                 1.218750000000000E+00,      /* J = 20 */
(PID.TID 0000.0001)                 1.281250000000000E+00,      /* J = 21 */
(PID.TID 0000.0001)                 1.343750000000000E+00,      /* J = 22 */
(PID.TID 0000.0001)                 1.406250000000000E+00,      /* J = 23 */
(PID.TID 0000.0001)                 1.468750000000000E+00,      /* J = 24 */
(PID.TID 0000.0001)                 1.531250000000000E+00,      /* J = 25 */
(PID.TID 0000.0001)                 1.593750000000000E+00,      /* J = 26 */
(PID.TID 0000.0001)                 1.656250000000000E+00,      /* J = 27 */
(PID.TID 0000.0001)                 1.718750000000000E+00,      /* J = 28 */
(PID.TID 0000.0001)                 1.781250000000000E+00,      /* J = 29 */
(PID.TID 0000.0001)                 1.843750000000000E+00,      /* J = 30 */
(PID.TID 0000.0001)                 1.906250000000000E+00,      /* J = 31 */
(PID.TID 0000.0001)                 1.968750000000000E+00,      /* J = 32 */
(PID.TID 0000.0001)                 2.031250000000000E+00,      /* J = 33 */
(PID.TID 0000.0001)                 2.093750000000000E+00,      /* J = 34 */
(PID.TID 0000.0001)                 2.156250000000000E+00,      /* J = 35 */
(PID.TID 0000.0001)                 2.218750000000000E+00,      /* J = 36 */
(PID.TID 0000.0001)                 2.281250000000000E+00,      /* J = 37 */
(PID.TID 0000.0001)                 2.343750000000000E+00,      /* J = 38 */
(PID.TID 0000.0001)                 2.406250000000000E+00,      /* J = 39 */
(PID.TID 0000.0001)                 2.468750000000000E+00,      /* J = 40 */
(PID.TID 0000.0001)                 2.531250000000000E+00,      /* J = 41 */
(PID.TID 0000.0001)                 2.593750000000000E+00,      /* J = 42 */
(PID.TID 0000.0001)                 2.656250000000000E+00,      /* J = 43 */
(PID.TID 0000.0001)                 2.718750000000000E+00,      /* J = 44 */
(PID.TID 0000.0001)                 2.781250000000000E+00,      /* J = 45 */
(PID.TID 0000.0001)                 2.843750000000000E+00,      /* J = 46 */
(PID.TID 0000.0001)                 2.906250000000000E+00,      /* J = 47 */
(PID.TID 0000.0001)                 2.968750000000000E+00,      /* J = 48 */
(PID.TID 0000.0001)                 3.031250000000000E+00,      /* J = 49 */
(PID.TID 0000.0001)                 3.093750000000000E+00,      /* J = 50 */
(PID.TID 0000.0001)                 3.156250000000000E+00,      /* J = 51 */
(PID.TID 0000.0001)                 3.218750000000000E+00,      /* J = 52 */
(PID.TID 0000.0001)                 3.281250000000000E+00,      /* J = 53 */
(PID.TID 0000.0001)                 3.343750000000000E+00,      /* J = 54 */
(PID.TID 0000.0001)                 3.406250000000000E+00,      /* J = 55 */
(PID.TID 0000.0001)                 3.468750000000000E+00,      /* J = 56 */
(PID.TID 0000.0001)                 3.531250000000000E+00,      /* J = 57 */
(PID.TID 0000.0001)                 3.593750000000000E+00,      /* J = 58 */
(PID.TID 0000.0001)                 3.656250000000000E+00,      /* J = 59 */
(PID.TID 0000.0001)                 3.718750000000000E+00,      /* J = 60 */
(PID.TID 0000.0001)                 3.781250000000000E+00,      /* J = 61 */
(PID.TID 0000.0001)                 3.843750000000000E+00,      /* J = 62 */
(PID.TID 0000.0001)                 3.906250000000000E+00,      /* J = 63 */
(PID.TID 0000.0001)                 3.968750000000000E+00       /* J = 64 */
(PID.TID 0000.0001)     ;
(PID.TID 0000.0001) rcoord =   /* P-point R coordinate (  units of r ) */
(PID.TID 0000.0001)                -5.000000000000000E-02,      /* K =  1 */
(PID.TID 0000.0001)                -1.500000000000000E-01,      /* K =  2 */
(PID.TID 0000.0001)                -2.500000000000000E-01,      /* K =  3 */
(PID.TID 0000.0001)                -3.500000000000000E-01,      /* K =  4 */
(PID.TID 0000.0001)                -4.500000000000000E-01,      /* K =  5 */
(PID.TID 0000.0001)                -5.499999999999999E-01,      /* K =  6 */
(PID.TID 0000.0001)                -6.499999999999999E-01,      /* K =  7 */
(PID.TID 0000.0001)                -7.499999999999999E-01,      /* K =  8 */
(PID.TID 0000.0001)                -8.499999999999999E-01,      /* K =  9 */
(PID.TID 0000.0001)                -9.499999999999998E-01,      /* K = 10 */
(PID.TID 0000.0001)                -1.050000000000000E+00,      /* K = 11 */
(PID.TID 0000.0001)                -1.150000000000000E+00,      /* K = 12 */
(PID.TID 0000.0001)                -1.250000000000000E+00,      /* K = 13 */
(PID.TID 0000.0001)                -1.350000000000000E+00,      /* K = 14 */
(PID.TID 0000.0001)                -1.450000000000000E+00,      /* K = 15 */
(PID.TID 0000.0001)                -1.550000000000000E+00,      /* K = 16 */
(PID.TID 0000.0001)                -1.650000000000000E+00,      /* K = 17 */
(PID.TID 0000.0001)                -1.750000000000000E+00,      /* K = 18 */
(PID.TID 0000.0001)                -1.850000000000001E+00,      /* K = 19 */
(PID.TID 0000.0001)                -1.950000000000001E+00       /* K = 20 */
(PID.TID 0000.0001)     ;
(PID.TID 0000.0001) dxF =  /* dxF(:,1,:,1) ( m - cartesian, degrees - spherical ) */
(PID.TID 0000.0001)    64 @  6.250000000000000E-02              /* I =  1: 64 */
(PID.TID 0000.0001)     ;
(PID.TID 0000.0001) dxF =  /* dxF(1,:,1,:) ( m - cartesian, degrees - spherical ) */
(PID.TID 0000.0001)    64 @  6.250000000000000E-02              /* J =  1: 64 */
(PID.TID 0000.0001)     ;
(PID.TID 0000.0001) dyF =  /* dyF(:,1,:,1) ( m - cartesian, degrees - spherical ) */
(PID.TID 0000.0001)    64 @  6.250000000000000E-02              /* I =  1: 64 */
(PID.TID 0000.0001)     ;
(PID.TID 0000.0001) dyF =  /* dyF(1,:,1,:) ( m - cartesian, degrees - spherical ) */
(PID.TID 0000.0001)    64 @  6.250000000000000E-02              /* J =  1: 64 */
(PID.TID 0000.0001)     ;
(PID.TID 0000.0001) dxG =  /* dxG(:,1,:,1) ( m - cartesian, degrees - spherical ) */
(PID.TID 0000.0001)    64 @  6.250000000000000E-02              /* I =  1: 64 */
(PID.TID 0000.0001)     ;
(PID.TID 0000.0001) dxG =  /* dxG(1,:,1,:) ( m - cartesian, degrees - spherical ) */
(PID.TID 0000.0001)    64 @  6.250000000000000E-02              /* J =  1: 64 */
(PID.TID 0000.0001)     ;
(PID.TID 0000.0001) dyG =  /* dyG(:,1,:,1) ( m - cartesian, degrees - spherical ) */
(PID.TID 0000.0001)    64 @  6.250000000000000E-02              /* I =  1: 64 */
(PID.TID 0000.0001)     ;
(PID.TID 0000.0001) dyG =  /* dyG(1,:,1,:) ( m - cartesian, degrees - spherical ) */
(PID.TID 0000.0001)    64 @  6.250000000000000E-02              /* J =  1: 64 */
(PID.TID 0000.0001)     ;
(PID.TID 0000.0001) dxC =  /* dxC(:,1,:,1) ( m - cartesian, degrees - spherical ) */
(PID.TID 0000.0001)    64 @  6.250000000000000E-02              /* I =  1: 64 */
(PID.TID 0000.0001)     ;
(PID.TID 0000.0001) dxC =  /* dxC(1,:,1,:) ( m - cartesian, degrees - spherical ) */
(PID.TID 0000.0001)    64 @  6.250000000000000E-02              /* J =  1: 64 */
(PID.TID 0000.0001)     ;
(PID.TID 0000.0001) dyC =  /* dyC(:,1,:,1) ( m - cartesian, degrees - spherical ) */
(PID.TID 0000.0001)    64 @  6.250000000000000E-02              /* I =  1: 64 */
(PID.TID 0000.0001)     ;
(PID.TID 0000.0001) dyC =  /* dyC(1,:,1,:) ( m - cartesian, degrees - spherical ) */
(PID.TID 0000.0001)    64 @  6.250000000000000E-02              /* J =  1: 64 */
(PID.TID 0000.0001)     ;
(PID.TID 0000.0001) dxV =  /* dxV(:,1,:,1) ( m - cartesian, degrees - spherical ) */
(PID.TID 0000.0001)    64 @  6.250000000000000E-02              /* I =  1: 64 */
(PID.TID 0000.0001)     ;
(PID.TID 0000.0001) dxV =  /* dxV(1,:,1,:) ( m - cartesian, degrees - spherical ) */
(PID.TID 0000.0001)    64 @  6.250000000000000E-02              /* J =  1: 64 */
(PID.TID 0000.0001)     ;
(PID.TID 0000.0001) dyU =  /* dyU(:,1,:,1) ( m - cartesian, degrees - spherical ) */
(PID.TID 0000.0001)    64 @  6.250000000000000E-02              /* I =  1: 64 */
(PID.TID 0000.0001)     ;
(PID.TID 0000.0001) dyU =  /* dyU(1,:,1,:) ( m - cartesian, degrees - spherical ) */
(PID.TID 0000.0001)    64 @  6.250000000000000E-02              /* J =  1: 64 */
(PID.TID 0000.0001)     ;
(PID.TID 0000.0001) rA =  /* rA(:,1,:,1) ( m - cartesian, degrees - spherical ) */
(PID.TID 0000.0001)    64 @  3.906250000000000E-03              /* I =  1: 64 */
(PID.TID 0000.0001)     ;
(PID.TID 0000.0001) rA =  /* rA(1,:,1,:) ( m - cartesian, degrees - spherical ) */
(PID.TID 0000.0001)    64 @  3.906250000000000E-03              /* J =  1: 64 */
(PID.TID 0000.0001)     ;
(PID.TID 0000.0001) rAw =  /* rAw(:,1,:,1) ( m - cartesian, degrees - spherical ) */
(PID.TID 0000.0001)    64 @  3.906250000000000E-03              /* I =  1: 64 */
(PID.TID 0000.0001)     ;
(PID.TID 0000.0001) rAw =  /* rAw(1,:,1,:) ( m - cartesian, degrees - spherical ) */
(PID.TID 0000.0001)    64 @  3.906250000000000E-03              /* J =  1: 64 */
(PID.TID 0000.0001)     ;
(PID.TID 0000.0001) rAs =  /* rAs(:,1,:,1) ( m - cartesian, degrees - spherical ) */
(PID.TID 0000.0001)    64 @  3.906250000000000E-03              /* I =  1: 64 */
(PID.TID 0000.0001)     ;
(PID.TID 0000.0001) rAs =  /* rAs(1,:,1,:) ( m - cartesian, degrees - spherical ) */
(PID.TID 0000.0001)    64 @  3.906250000000000E-03              /* J =  1: 64 */
(PID.TID 0000.0001)     ;
(PID.TID 0000.0001) 
(PID.TID 0000.0001) // =======================================================
(PID.TID 0000.0001) // Field Initial Temperature at iteration          1
(PID.TID 0000.0001) // CMIN =          1.000000000000000E+00
(PID.TID 0000.0001) // CMAX =          1.000000000000000E+00
(PID.TID 0000.0001) // CINT =          0.000000000000000E+00
(PID.TID 0000.0001) // SYMBOLS (CMIN->CMAX): -abcdefghijklmnopqrstuvwxyz+
(PID.TID 0000.0001) //                  0.0: .
(PID.TID 0000.0001) // RANGE I (Lo:Hi:Step):(   1:  64:   1)
(PID.TID 0000.0001) // RANGE J (Lo:Hi:Step):(  64:   1:  -1)
(PID.TID 0000.0001) // RANGE K (Lo:Hi:Step):(   1:   1:   1)
(PID.TID 0000.0001) // =======================================================
(PID.TID 0000.0001) K =   1
(PID.TID 0000.0001)                I=10      I=20      I=30      I=40      I=50      I=60
(PID.TID 0000.0001) |--J--|123456789|123456789|123456789|123456789|123456789|123456789|1234
(PID.TID 0000.0001)     64 ----------------------------------------------------------------
(PID.TID 0000.0001)     63 ----------------------------------------------------------------
(PID.TID 0000.0001)     62 ----------------------------------------------------------------
(PID.TID 0000.0001)     61 ----------------------------------------------------------------
(PID.TID 0000.0001)     60 ----------------------------------------------------------------
(PID.TID 0000.0001)     59 ----------------------------------------------------------------
(PID.TID 0000.0001)     58 ----------------------------------------------------------------
(PID.TID 0000.0001)     57 ----------------------------------------------------------------
(PID.TID 0000.0001)     56 ----------------------------------------------------------------
(PID.TID 0000.0001)     55 ----------------------------------------------------------------
(PID.TID 0000.0001)     54 ----------------------------------------------------------------
(PID.TID 0000.0001)     53 ----------------------------------------------------------------
(PID.TID 0000.0001)     52 ----------------------------------------------------------------
(PID.TID 0000.0001)     51 ----------------------------------------------------------------
(PID.TID 0000.0001)     50 ----------------------------------------------------------------
(PID.TID 0000.0001)     49 ----------------------------------------------------------------
(PID.TID 0000.0001)     48 ----------------------------------------------------------------
(PID.TID 0000.0001)     47 ----------------------------------------------------------------
(PID.TID 0000.0001)     46 ----------------------------------------------------------------
(PID.TID 0000.0001)     45 ----------------------------------------------------------------
(PID.TID 0000.0001)     44 ----------------------------------------------------------------
(PID.TID 0000.0001)     43 ----------------------------------------------------------------
(PID.TID 0000.0001)     42 ----------------------------------------------------------------
(PID.TID 0000.0001)     41 ----------------------------------------------------------------
(PID.TID 0000.0001)     40 ----------------------------------------------------------------
(PID.TID 0000.0001)     39 ----------------------------------------------------------------
(PID.TID 0000.0001)     38 ----------------------------------------------------------------
(PID.TID 0000.0001)     37 ----------------------------------------------------------------
(PID.TID 0000.0001)     36 ----------------------------------------------------------------
(PID.TID 0000.0001)     35 ----------------------------------------------------------------
(PID.TID 0000.0001)     34 ----------------------------------------------------------------
(PID.TID 0000.0001)     33 ----------------------------------------------------------------
(PID.TID 0000.0001)     32 ----------------------------------------------------------------
(PID.TID 0000.0001)     31 ----------------------------------------------------------------
(PID.TID 0000.0001)     30 ----------------------------------------------------------------
(PID.TID 0000.0001)     29 ----------------------------------------------------------------
(PID.TID 0000.0001)     28 ----------------------------------------------------------------
(PID.TID 0000.0001)     27 ----------------------------------------------------------------
(PID.TID 0000.0001)     26 ----------------------------------------------------------------
(PID.TID 0000.0001)     25 ----------------------------------------------------------------
(PID.TID 0000.0001)     24 ----------------------------------------------------------------
(PID.TID 0000.0001)     23 ----------------------------------------------------------------
(PID.TID 0000.0001)     22 ----------------------------------------------------------------
(PID.TID 0000.0001)     21 ----------------------------------------------------------------
(PID.TID 0000.0001)     20 ----------------------------------------------------------------
(PID.TID 0000.0001)     19 ----------------------------------------------------------------
(PID.TID 0000.0001)     18 ----------------------------------------------------------------
(PID.TID 0000.0001)     17 ----------------------------------------------------------------
(PID.TID 0000.0001)     16 ----------------------------------------------------------------
(PID.TID 0000.0001)     15 ----------------------------------------------------------------
(PID.TID 0000.0001)     14 ----------------------------------------------------------------
(PID.TID 0000.0001)     13 ----------------------------------------------------------------
(PID.TID 0000.0001)     12 ----------------------------------------------------------------
(PID.TID 0000.0001)     11 ----------------------------------------------------------------
(PID.TID 0000.0001)     10 ----------------------------------------------------------------
(PID.TID 0000.0001)      9 ----------------------------------------------------------------
(PID.TID 0000.0001)      8 ----------------------------------------------------------------
(PID.TID 0000.0001)      7 ----------------------------------------------------------------
(PID.TID 0000.0001)      6 ----------------------------------------------------------------
(PID.TID 0000.0001)      5 ----------------------------------------------------------------
(PID.TID 0000.0001)      4 ----------------------------------------------------------------
(PID.TID 0000.0001)      3 ----------------------------------------------------------------
(PID.TID 0000.0001)      2 ----------------------------------------------------------------
(PID.TID 0000.0001)      1 ----------------------------------------------------------------
(PID.TID 0000.0001) // =======================================================
(PID.TID 0000.0001) // END OF FIELD                                          =
(PID.TID 0000.0001) // =======================================================
(PID.TID 0000.0001) 
(PID.TID 0000.0001) // =======================================================
(PID.TID 0000.0001) // Field Initial Salinity at iteration          1
(PID.TID 0000.0001) // CMIN =          3.500000000000000E+01
(PID.TID 0000.0001) // CMAX =          3.500000000000000E+01
(PID.TID 0000.0001) // CINT =          0.000000000000000E+00
(PID.TID 0000.0001) // SYMBOLS (CMIN->CMAX): -abcdefghijklmnopqrstuvwxyz+
(PID.TID 0000.0001) //                  0.0: .
(PID.TID 0000.0001) // RANGE I (Lo:Hi:Step):(   1:  64:   1)
(PID.TID 0000.0001) // RANGE J (Lo:Hi:Step):(  64:   1:  -1)
(PID.TID 0000.0001) // RANGE K (Lo:Hi:Step):(   1:   1:   1)
(PID.TID 0000.0001) // =======================================================
(PID.TID 0000.0001) K =   1
(PID.TID 0000.0001)                I=10      I=20      I=30      I=40      I=50      I=60
(PID.TID 0000.0001) |--J--|123456789|123456789|123456789|123456789|123456789|123456789|1234
(PID.TID 0000.0001)     64 ----------------------------------------------------------------
(PID.TID 0000.0001)     63 ----------------------------------------------------------------
(PID.TID 0000.0001)     62 ----------------------------------------------------------------
(PID.TID 0000.0001)     61 ----------------------------------------------------------------
(PID.TID 0000.0001)     60 ----------------------------------------------------------------
(PID.TID 0000.0001)     59 ----------------------------------------------------------------
(PID.TID 0000.0001)     58 ----------------------------------------------------------------
(PID.TID 0000.0001)     57 ----------------------------------------------------------------
(PID.TID 0000.0001)     56 ----------------------------------------------------------------
(PID.TID 0000.0001)     55 ----------------------------------------------------------------
(PID.TID 0000.0001)     54 ----------------------------------------------------------------
(PID.TID 0000.0001)     53 ----------------------------------------------------------------
(PID.TID 0000.0001)     52 ----------------------------------------------------------------
(PID.TID 0000.0001)     51 ----------------------------------------------------------------
(PID.TID 0000.0001)     50 ----------------------------------------------------------------
(PID.TID 0000.0001)     49 ----------------------------------------------------------------
(PID.TID 0000.0001)     48 ----------------------------------------------------------------
(PID.TID 0000.0001)     47 ----------------------------------------------------------------
(PID.TID 0000.0001)     46 ----------------------------------------------------------------
(PID.TID 0000.0001)     45 ----------------------------------------------------------------
(PID.TID 0000.0001)     44 ----------------------------------------------------------------
(PID.TID 0000.0001)     43 ----------------------------------------------------------------
(PID.TID 0000.0001)     42 ----------------------------------------------------------------
(PID.TID 0000.0001)     41 ----------------------------------------------------------------
(PID.TID 0000.0001)     40 ----------------------------------------------------------------
(PID.TID 0000.0001)     39 ----------------------------------------------------------------
(PID.TID 0000.0001)     38 ----------------------------------------------------------------
(PID.TID 0000.0001)     37 ----------------------------------------------------------------
(PID.TID 0000.0001)     36 ----------------------------------------------------------------
(PID.TID 0000.0001)     35 ----------------------------------------------------------------
(PID.TID 0000.0001)     34 ----------------------------------------------------------------
(PID.TID 0000.0001)     33 ----------------------------------------------------------------
(PID.TID 0000.0001)     32 ----------------------------------------------------------------
(PID.TID 0000.0001)     31 ----------------------------------------------------------------
(PID.TID 0000.0001)     30 ----------------------------------------------------------------
(PID.TID 0000.0001)     29 ----------------------------------------------------------------
(PID.TID 0000.0001)     28 ----------------------------------------------------------------
(PID.TID 0000.0001)     27 ----------------------------------------------------------------
(PID.TID 0000.0001)     26 ----------------------------------------------------------------
(PID.TID 0000.0001)     25 ----------------------------------------------------------------
(PID.TID 0000.0001)     24 ----------------------------------------------------------------
(PID.TID 0000.0001)     23 ----------------------------------------------------------------
(PID.TID 0000.0001)     22 ----------------------------------------------------------------
(PID.TID 0000.0001)     21 ----------------------------------------------------------------
(PID.TID 0000.0001)     20 ----------------------------------------------------------------
(PID.TID 0000.0001)     19 ----------------------------------------------------------------
(PID.TID 0000.0001)     18 ----------------------------------------------------------------
(PID.TID 0000.0001)     17 ----------------------------------------------------------------
(PID.TID 0000.0001)     16 ----------------------------------------------------------------
(PID.TID 0000.0001)     15 ----------------------------------------------------------------
(PID.TID 0000.0001)     14 ----------------------------------------------------------------
(PID.TID 0000.0001)     13 ----------------------------------------------------------------
(PID.TID 0000.0001)     12 ----------------------------------------------------------------
(PID.TID 0000.0001)     11 ----------------------------------------------------------------
(PID.TID 0000.0001)     10 ----------------------------------------------------------------
(PID.TID 0000.0001)      9 ----------------------------------------------------------------
(PID.TID 0000.0001)      8 ----------------------------------------------------------------
(PID.TID 0000.0001)      7 ----------------------------------------------------------------
(PID.TID 0000.0001)      6 ----------------------------------------------------------------
(PID.TID 0000.0001)      5 ----------------------------------------------------------------
(PID.TID 0000.0001)      4 ----------------------------------------------------------------
(PID.TID 0000.0001)      3 ----------------------------------------------------------------
(PID.TID 0000.0001)      2 ----------------------------------------------------------------
(PID.TID 0000.0001)      1 ----------------------------------------------------------------
(PID.TID 0000.0001) // =======================================================
(PID.TID 0000.0001) // END OF FIELD                                          =
(PID.TID 0000.0001) // =======================================================
(PID.TID 0000.0001) 
(PID.TID 0000.0001)  MDSREADFIELD: opening global file: Qnet.circle
(PID.TID 0000.0001) // =======================================================
(PID.TID 0000.0001) // Model current state
(PID.TID 0000.0001) // =======================================================
(PID.TID 0000.0001) 
(PID.TID 0000.0001) // =======================================================
(PID.TID 0000.0001) // Begin MONITOR dynamic field statistics
(PID.TID 0000.0001) // =======================================================
(PID.TID 0000.0001) %MON time_tsnumber                =                     0
(PID.TID 0000.0001) %MON time_secondsf                =   0.0000000000000E+00
(PID.TID 0000.0001) %MON time_secondsi                =                     0
(PID.TID 0000.0001) %MON dynstat_eta_max              =   0.0000000000000E+00
(PID.TID 0000.0001) %MON dynstat_eta_min              =   0.0000000000000E+00
(PID.TID 0000.0001) %MON dynstat_eta_mean             =   0.0000000000000E+00
(PID.TID 0000.0001) %MON dynstat_eta_sd               =   0.0000000000000E+00
(PID.TID 0000.0001) %MON dynstat_uvel_max             =   0.0000000000000E+00
(PID.TID 0000.0001) %MON dynstat_uvel_min             =   0.0000000000000E+00
(PID.TID 0000.0001) %MON dynstat_uvel_mean            =   0.0000000000000E+00
(PID.TID 0000.0001) %MON dynstat_uvel_sd              =   0.0000000000000E+00
(PID.TID 0000.0001) %MON dynstat_vvel_max             =   0.0000000000000E+00
(PID.TID 0000.0001) %MON dynstat_vvel_min             =   0.0000000000000E+00
(PID.TID 0000.0001) %MON dynstat_vvel_mean            =   0.0000000000000E+00
(PID.TID 0000.0001) %MON dynstat_vvel_sd              =   0.0000000000000E+00
(PID.TID 0000.0001) %MON dynstat_wvel_max             =   0.0000000000000E+00
(PID.TID 0000.0001) %MON dynstat_wvel_min             =   0.0000000000000E+00
(PID.TID 0000.0001) %MON dynstat_wvel_mean            =   0.0000000000000E+00
(PID.TID 0000.0001) %MON dynstat_wvel_sd              =   0.0000000000000E+00
(PID.TID 0000.0001) %MON dynstat_theta_max            =   1.0000000000000E+00
(PID.TID 0000.0001) %MON dynstat_theta_min            =   1.0000000000000E+00
(PID.TID 0000.0001) %MON dynstat_theta_mean           =   1.0000000000000E+00
(PID.TID 0000.0001) %MON dynstat_theta_sd             =   0.0000000000000E+00
(PID.TID 0000.0001) %MON dynstat_salt_max             =   3.5000000000000E+01
(PID.TID 0000.0001) %MON dynstat_salt_min             =   3.5000000000000E+01
(PID.TID 0000.0001) %MON dynstat_salt_mean            =   3.5000000000000E+01
(PID.TID 0000.0001) %MON dynstat_salt_sd              =   0.0000000000000E+00
(PID.TID 0000.0001) %MON advcfl_uvel_max              =   0.0000000000000E+00
(PID.TID 0000.0001) %MON advcfl_vvel_max              =   0.0000000000000E+00
(PID.TID 0000.0001) %MON advcfl_wvel_max              =   0.0000000000000E+00
(PID.TID 0000.0001) %MON advcfl_W_hf_max              =   0.0000000000000E+00
(PID.TID 0000.0001) %MON ke_max                       =   0.0000000000000E+00
(PID.TID 0000.0001) %MON ke_mean                      =   0.0000000000000E+00
(PID.TID 0000.0001) // =======================================================
(PID.TID 0000.0001) // End MONITOR dynamic field statistics
(PID.TID 0000.0001) // =======================================================
 cg2d: Sum(rhs),rhsMax =   0.00000000000000E+00  0.00000000000000E+00
(PID.TID 0000.0001)                    cg2d_init_res =    0.00000000000000E+00
(PID.TID 0000.0001)                       cg2d_iters =     0
(PID.TID 0000.0001)                         cg2d_res =    0.00000000000000E+00
 cg3d: Sum(rhs),rhsMax =   0.00000000000000E+00  0.00000000000000E+00
(PID.TID 0000.0001)                    cg3d_init_res =    0.00000000000000E+00
(PID.TID 0000.0001)                       cg3d_iters =     0
(PID.TID 0000.0001)                         cg3d_res =    0.00000000000000E+00
(PID.TID 0000.0001) // =======================================================
(PID.TID 0000.0001) // Begin MONITOR dynamic field statistics
(PID.TID 0000.0001) // =======================================================
(PID.TID 0000.0001) %MON time_tsnumber                =                     1
(PID.TID 0000.0001) %MON time_secondsf                =   2.0000000000000E-04
(PID.TID 0000.0001) %MON time_secondsi                =                     0
(PID.TID 0000.0001) %MON dynstat_eta_max              =   0.0000000000000E+00
(PID.TID 0000.0001) %MON dynstat_eta_min              =   0.0000000000000E+00
(PID.TID 0000.0001) %MON dynstat_eta_mean             =   0.0000000000000E+00
(PID.TID 0000.0001) %MON dynstat_eta_sd               =   0.0000000000000E+00
(PID.TID 0000.0001) %MON dynstat_uvel_max             =   0.0000000000000E+00
(PID.TID 0000.0001) %MON dynstat_uvel_min             =   0.0000000000000E+00
(PID.TID 0000.0001) %MON dynstat_uvel_mean            =   0.0000000000000E+00
(PID.TID 0000.0001) %MON dynstat_uvel_sd              =   0.0000000000000E+00
(PID.TID 0000.0001) %MON dynstat_vvel_max             =   0.0000000000000E+00
(PID.TID 0000.0001) %MON dynstat_vvel_min             =   0.0000000000000E+00
(PID.TID 0000.0001) %MON dynstat_vvel_mean            =   0.0000000000000E+00
(PID.TID 0000.0001) %MON dynstat_vvel_sd              =   0.0000000000000E+00
(PID.TID 0000.0001) %MON dynstat_wvel_max             =   0.0000000000000E+00
(PID.TID 0000.0001) %MON dynstat_wvel_min             =   0.0000000000000E+00
(PID.TID 0000.0001) %MON dynstat_wvel_mean            =   0.0000000000000E+00
(PID.TID 0000.0001) %MON dynstat_wvel_sd              =   0.0000000000000E+00
(PID.TID 0000.0001) %MON dynstat_theta_max            =   1.0000000000000E+00
(PID.TID 0000.0001) %MON dynstat_theta_min            =   9.9798000605500E-01
(PID.TID 0000.0001) %MON dynstat_theta_mean           =   9.9989949738809E-01
(PID.TID 0000.0001) %MON dynstat_theta_sd             =   4.3808264464004E-04
(PID.TID 0000.0001) %MON dynstat_salt_max             =   3.5000000000000E+01
(PID.TID 0000.0001) %MON dynstat_salt_min             =   3.5000000000000E+01
(PID.TID 0000.0001) %MON dynstat_salt_mean            =   3.5000000000000E+01
(PID.TID 0000.0001) %MON dynstat_salt_sd              =   0.0000000000000E+00
(PID.TID 0000.0001) %MON advcfl_uvel_max              =   0.0000000000000E+00
(PID.TID 0000.0001) %MON advcfl_vvel_max              =   0.0000000000000E+00
(PID.TID 0000.0001) %MON advcfl_wvel_max              =   0.0000000000000E+00
(PID.TID 0000.0001) %MON advcfl_W_hf_max              =   0.0000000000000E+00
(PID.TID 0000.0001) %MON ke_max                       =   0.0000000000000E+00
(PID.TID 0000.0001) %MON ke_mean                      =   0.0000000000000E+00
(PID.TID 0000.0001) // =======================================================
(PID.TID 0000.0001) // End MONITOR dynamic field statistics
(PID.TID 0000.0001) // =======================================================
 cg2d: Sum(rhs),rhsMax =   0.00000000000000E+00  1.50911513742212E+03
(PID.TID 0000.0001)                    cg2d_init_res =    2.42404160368524E+01
(PID.TID 0000.0001)                       cg2d_iters =    75
(PID.TID 0000.0001)                         cg2d_res =    9.32959722495326E-10
 cg3d: Sum(rhs),rhsMax =   3.20923843055709E-14  7.36595953809391E+02
(PID.TID 0000.0001)                    cg3d_init_res =    2.48899184039128E+01
(PID.TID 0000.0001)                       cg3d_iters =    40
(PID.TID 0000.0001)                         cg3d_res =    1.61891696351294E-03
(PID.TID 0000.0001) // =======================================================
(PID.TID 0000.0001) // Begin MONITOR dynamic field statistics
(PID.TID 0000.0001) // =======================================================
(PID.TID 0000.0001) %MON time_tsnumber                =                     2
(PID.TID 0000.0001) %MON time_secondsf                =   4.0000000000000E-04
(PID.TID 0000.0001) %MON time_secondsi                =                     0
(PID.TID 0000.0001) %MON dynstat_eta_max              =   1.5686841383176E-06
(PID.TID 0000.0001) %MON dynstat_eta_min              =  -1.5507256684406E-06
(PID.TID 0000.0001) %MON dynstat_eta_mean             =   7.5711582973037E-22
(PID.TID 0000.0001) %MON dynstat_eta_sd               =   9.0361577448633E-07
(PID.TID 0000.0001) %MON dynstat_uvel_max             =   7.0216889713735E-02
(PID.TID 0000.0001) %MON dynstat_uvel_min             =  -7.4928095877981E-02
(PID.TID 0000.0001) %MON dynstat_uvel_mean            =  -4.1518343545678E-19
(PID.TID 0000.0001) %MON dynstat_uvel_sd              =   7.4206188918130E-03
(PID.TID 0000.0001) %MON dynstat_vvel_max             =   7.2247889546268E-02
(PID.TID 0000.0001) %MON dynstat_vvel_min             =  -7.0010756879722E-02
(PID.TID 0000.0001) %MON dynstat_vvel_mean            =  -5.1118527547207E-19
(PID.TID 0000.0001) %MON dynstat_vvel_sd              =   7.4910956781783E-03
(PID.TID 0000.0001) %MON dynstat_wvel_max             =   0.0000000000000E+00
(PID.TID 0000.0001) %MON dynstat_wvel_min             =   0.0000000000000E+00
(PID.TID 0000.0001) %MON dynstat_wvel_mean            =   0.0000000000000E+00
(PID.TID 0000.0001) %MON dynstat_wvel_sd              =   0.0000000000000E+00
(PID.TID 0000.0001) %MON dynstat_theta_max            =   1.0000000000000E+00
(PID.TID 0000.0001) %MON dynstat_theta_min            =   9.9602619555180E-01
(PID.TID 0000.0001) %MON dynstat_theta_mean           =   9.9979899477618E-01
(PID.TID 0000.0001) %MON dynstat_theta_sd             =   8.6152144466999E-04
(PID.TID 0000.0001) %MON dynstat_salt_max             =   3.5000000000000E+01
(PID.TID 0000.0001) %MON dynstat_salt_min             =   3.5000000000000E+01
(PID.TID 0000.0001) %MON dynstat_salt_mean            =   3.5000000000000E+01
(PID.TID 0000.0001) %MON dynstat_salt_sd              =   0.0000000000000E+00
(PID.TID 0000.0001) %MON advcfl_uvel_max              =   2.3976990680954E-04
(PID.TID 0000.0001) %MON advcfl_vvel_max              =   2.3119324654806E-04
(PID.TID 0000.0001) %MON advcfl_wvel_max              =   0.0000000000000E+00
(PID.TID 0000.0001) %MON advcfl_W_hf_max              =   0.0000000000000E+00
(PID.TID 0000.0001) %MON ke_max                       =   2.2811713405712E-03
(PID.TID 0000.0001) %MON ke_mean                      =   5.5591049598577E-05
(PID.TID 0000.0001) // =======================================================
(PID.TID 0000.0001) // End MONITOR dynamic field statistics
(PID.TID 0000.0001) // =======================================================
 cg2d: Sum(rhs),rhsMax =  -2.94209101525666E-15  1.66196401097917E+03
(PID.TID 0000.0001)                    cg2d_init_res =    4.47384594157423E+00
(PID.TID 0000.0001)                       cg2d_iters =    70
(PID.TID 0000.0001)                         cg2d_res =    9.90603692975677E-10
 cg3d: Sum(rhs),rhsMax =  -1.00475183728577E-14  8.30748036583769E+02
(PID.TID 0000.0001)                    cg3d_init_res =    5.00628629122824E+00
(PID.TID 0000.0001)                       cg3d_iters =    40
(PID.TID 0000.0001)                         cg3d_res =    1.91282978760661E-04
(PID.TID 0000.0001) // =======================================================
(PID.TID 0000.0001) // Begin MONITOR dynamic field statistics
(PID.TID 0000.0001) // =======================================================
(PID.TID 0000.0001) %MON time_tsnumber                =                     3
(PID.TID 0000.0001) %MON time_secondsf                =   6.0000000000000E-04
(PID.TID 0000.0001) %MON time_secondsi                =                     0
(PID.TID 0000.0001) %MON dynstat_eta_max              =   2.3220420342451E-06
(PID.TID 0000.0001) %MON dynstat_eta_min              =  -2.2905738570999E-06
(PID.TID 0000.0001) %MON dynstat_eta_mean             =   9.3728610690208E-22
(PID.TID 0000.0001) %MON dynstat_eta_sd               =   1.1793394878507E-06
(PID.TID 0000.0001) %MON dynstat_uvel_max             =   1.7303224455154E-01
(PID.TID 0000.0001) %MON dynstat_uvel_min             =  -1.6746470440942E-01
(PID.TID 0000.0001) %MON dynstat_uvel_mean            =  -1.3516417000018E-18
(PID.TID 0000.0001) %MON dynstat_uvel_sd              =   1.5316383652457E-02
(PID.TID 0000.0001) %MON dynstat_vvel_max             =   1.5975494532606E-01
(PID.TID 0000.0001) %MON dynstat_vvel_min             =  -1.5844669181920E-01
(PID.TID 0000.0001) %MON dynstat_vvel_mean            =   3.4722209021378E-20
(PID.TID 0000.0001) %MON dynstat_vvel_sd              =   1.5410089468431E-02
(PID.TID 0000.0001) %MON dynstat_wvel_max             =   1.3611648452311E-01
(PID.TID 0000.0001) %MON dynstat_wvel_min             =  -1.3606727127826E-01
(PID.TID 0000.0001) %MON dynstat_wvel_mean            =   3.2326674454978E-14
(PID.TID 0000.0001) %MON dynstat_wvel_sd              =   1.4718280114184E-02
(PID.TID 0000.0001) %MON dynstat_theta_max            =   1.0000000000000E+00
(PID.TID 0000.0001) %MON dynstat_theta_min            =   9.9410812997046E-01
(PID.TID 0000.0001) %MON dynstat_theta_mean           =   9.9969849216032E-01
(PID.TID 0000.0001) %MON dynstat_theta_sd             =   1.2769446051894E-03
(PID.TID 0000.0001) %MON dynstat_salt_max             =   3.5000000000000E+01
(PID.TID 0000.0001) %MON dynstat_salt_min             =   3.5000000000000E+01
(PID.TID 0000.0001) %MON dynstat_salt_mean            =   3.5000000000000E+01
(PID.TID 0000.0001) %MON dynstat_salt_sd              =   0.0000000000000E+00
(PID.TID 0000.0001) %MON advcfl_uvel_max              =   5.5370318256494E-04
(PID.TID 0000.0001) %MON advcfl_vvel_max              =   5.1121582504340E-04
(PID.TID 0000.0001) %MON advcfl_wvel_max              =   2.7223296904622E-04
(PID.TID 0000.0001) %MON advcfl_W_hf_max              =   5.4446593809244E-04
(PID.TID 0000.0001) %MON ke_max                       =   1.1203091840843E-02
(PID.TID 0000.0001) %MON ke_mean                      =   2.3603123280716E-04
(PID.TID 0000.0001) // =======================================================
(PID.TID 0000.0001) // End MONITOR dynamic field statistics
(PID.TID 0000.0001) // =======================================================
 cg2d: Sum(rhs),rhsMax =  -3.36272484691147E-07  2.38416291451148E+03
(PID.TID 0000.0001)                    cg2d_init_res =    7.90564781765580E+00
(PID.TID 0000.0001)                       cg2d_iters =    86
(PID.TID 0000.0001)                         cg2d_res =    8.71575821916160E-10
 cg3d: Sum(rhs),rhsMax =  -2.71817429675636E-11  1.27920334761012E+03
(PID.TID 0000.0001)                    cg3d_init_res =    9.40857821591235E+00
(PID.TID 0000.0001)                       cg3d_iters =    40
(PID.TID 0000.0001)                         cg3d_res =    5.58588322843213E-04
(PID.TID 0000.0001) // =======================================================
(PID.TID 0000.0001) // Begin MONITOR dynamic field statistics
(PID.TID 0000.0001) // =======================================================
(PID.TID 0000.0001) %MON time_tsnumber                =                     4
(PID.TID 0000.0001) %MON time_secondsf                =   8.0000000000000E-04
(PID.TID 0000.0001) %MON time_secondsi                =                     0
(PID.TID 0000.0001) %MON dynstat_eta_max              =   3.3220146002100E-06
(PID.TID 0000.0001) %MON dynstat_eta_min              =  -3.2841667513145E-06
(PID.TID 0000.0001) %MON dynstat_eta_mean             =   4.0086332186019E-12
(PID.TID 0000.0001) %MON dynstat_eta_sd               =   1.6937724029130E-06
(PID.TID 0000.0001) %MON dynstat_uvel_max             =   3.1875315878658E-01
(PID.TID 0000.0001) %MON dynstat_uvel_min             =  -2.9544605706818E-01
(PID.TID 0000.0001) %MON dynstat_uvel_mean            =  -2.6034428645120E-15
(PID.TID 0000.0001) %MON dynstat_uvel_sd              =   2.6446920731314E-02
(PID.TID 0000.0001) %MON dynstat_vvel_max             =   2.8692025450588E-01
(PID.TID 0000.0001) %MON dynstat_vvel_min             =  -2.7696786078795E-01
(PID.TID 0000.0001) %MON dynstat_vvel_mean            =   1.9939805862682E-15
(PID.TID 0000.0001) %MON dynstat_vvel_sd              =   2.6499201633683E-02
(PID.TID 0000.0001) %MON dynstat_wvel_max             =   3.0797932079423E-01
(PID.TID 0000.0001) %MON dynstat_wvel_min             =  -3.0328183877928E-01
(PID.TID 0000.0001) %MON dynstat_wvel_mean            =   1.5736925782398E-14
(PID.TID 0000.0001) %MON dynstat_wvel_sd              =   3.2645375432616E-02
(PID.TID 0000.0001) %MON dynstat_theta_max            =   1.0000000000000E+00
(PID.TID 0000.0001) %MON dynstat_theta_min            =   9.9222421608739E-01
(PID.TID 0000.0001) %MON dynstat_theta_mean           =   9.9959798954815E-01
(PID.TID 0000.0001) %MON dynstat_theta_sd             =   1.6845968606220E-03
(PID.TID 0000.0001) %MON dynstat_salt_max             =   3.5000000000000E+01
(PID.TID 0000.0001) %MON dynstat_salt_min             =   3.5000000000000E+01
(PID.TID 0000.0001) %MON dynstat_salt_mean            =   3.5000000000000E+01
(PID.TID 0000.0001) %MON dynstat_salt_sd              =   0.0000000000000E+00
(PID.TID 0000.0001) %MON advcfl_uvel_max              =   1.0200101081170E-03
(PID.TID 0000.0001) %MON advcfl_vvel_max              =   9.1814481441882E-04
(PID.TID 0000.0001) %MON advcfl_wvel_max              =   6.1595864158846E-04
(PID.TID 0000.0001) %MON advcfl_W_hf_max              =   1.2319172831769E-03
(PID.TID 0000.0001) %MON ke_max                       =   3.6098084167219E-02
(PID.TID 0000.0001) %MON ke_mean                      =   7.0082365169550E-04
(PID.TID 0000.0001) // =======================================================
(PID.TID 0000.0001) // End MONITOR dynamic field statistics
(PID.TID 0000.0001) // =======================================================
 cg2d: Sum(rhs),rhsMax =  -9.71776280500602E-07  3.07615221988744E+03
(PID.TID 0000.0001)                    cg2d_init_res =    5.87575433034071E+00
(PID.TID 0000.0001)                       cg2d_iters =    85
(PID.TID 0000.0001)                         cg2d_res =    9.57019591046959E-10
 cg3d: Sum(rhs),rhsMax =  -1.40576855711672E-11  1.73835321727961E+03
(PID.TID 0000.0001)                    cg3d_init_res =    7.25734721437181E+00
(PID.TID 0000.0001)                       cg3d_iters =    40
(PID.TID 0000.0001)                         cg3d_res =    4.44996994128261E-04
(PID.TID 0000.0001) // =======================================================
(PID.TID 0000.0001) // Begin MONITOR dynamic field statistics
(PID.TID 0000.0001) // =======================================================
(PID.TID 0000.0001) %MON time_tsnumber                =                     5
(PID.TID 0000.0001) %MON time_secondsf                =   1.0000000000000E-03
(PID.TID 0000.0001) %MON time_secondsi                =                     0
(PID.TID 0000.0001) %MON dynstat_eta_max              =   4.7352004201189E-06
(PID.TID 0000.0001) %MON dynstat_eta_min              =  -4.6551642032294E-06
(PID.TID 0000.0001) %MON dynstat_eta_mean             =   1.4946652555510E-11
(PID.TID 0000.0001) %MON dynstat_eta_sd               =   2.2881890902445E-06
(PID.TID 0000.0001) %MON dynstat_uvel_max             =   5.2216773579939E-01
(PID.TID 0000.0001) %MON dynstat_uvel_min             =  -4.6643797745359E-01
(PID.TID 0000.0001) %MON dynstat_uvel_mean            =   2.2327002498966E-14
(PID.TID 0000.0001) %MON dynstat_uvel_sd              =   4.0933283959123E-02
(PID.TID 0000.0001) %MON dynstat_vvel_max             =   4.6109569168525E-01
(PID.TID 0000.0001) %MON dynstat_vvel_min             =  -4.4050052262501E-01
(PID.TID 0000.0001) %MON dynstat_vvel_mean            =  -1.3632725865143E-14
(PID.TID 0000.0001) %MON dynstat_vvel_sd              =   4.0880956050984E-02
(PID.TID 0000.0001) %MON dynstat_wvel_max             =   5.5453301490298E-01
(PID.TID 0000.0001) %MON dynstat_wvel_min             =  -5.3966887872442E-01
(PID.TID 0000.0001) %MON dynstat_wvel_mean            =   7.6659081775706E-14
(PID.TID 0000.0001) %MON dynstat_wvel_sd              =   5.6845814975951E-02
(PID.TID 0000.0001) %MON dynstat_theta_max            =   1.0000000000000E+00
(PID.TID 0000.0001) %MON dynstat_theta_min            =   9.9037230316349E-01
(PID.TID 0000.0001) %MON dynstat_theta_mean           =   9.9949748693335E-01
(PID.TID 0000.0001) %MON dynstat_theta_sd             =   2.0848671049563E-03
(PID.TID 0000.0001) %MON dynstat_salt_max             =   3.5000000000000E+01
(PID.TID 0000.0001) %MON dynstat_salt_min             =   3.5000000000000E+01
(PID.TID 0000.0001) %MON dynstat_salt_mean            =   3.5000000000000E+01
(PID.TID 0000.0001) %MON dynstat_salt_sd              =   0.0000000000000E+00
(PID.TID 0000.0001) %MON advcfl_uvel_max              =   1.6709367545581E-03
(PID.TID 0000.0001) %MON advcfl_vvel_max              =   1.4755062133928E-03
(PID.TID 0000.0001) %MON advcfl_wvel_max              =   1.1090660298060E-03
(PID.TID 0000.0001) %MON advcfl_W_hf_max              =   2.2181320596119E-03
(PID.TID 0000.0001) %MON ke_max                       =   9.2897452315312E-02
(PID.TID 0000.0001) %MON ke_mean                      =   1.6733931516603E-03
(PID.TID 0000.0001) // =======================================================
(PID.TID 0000.0001) // End MONITOR dynamic field statistics
(PID.TID 0000.0001) // =======================================================
 cg2d: Sum(rhs),rhsMax =  -2.26003618458703E-06  4.22923677340303E+03
(PID.TID 0000.0001)                    cg2d_init_res =    7.12958283464438E+00
(PID.TID 0000.0001)                       cg2d_iters =    86
(PID.TID 0000.0001)                         cg2d_res =    6.85650032989359E-10
 cg3d: Sum(rhs),rhsMax =  -3.71793221209948E-12  2.54647254178732E+03
(PID.TID 0000.0001)                    cg3d_init_res =    8.86911939278566E+00
(PID.TID 0000.0001)                       cg3d_iters =    40
(PID.TID 0000.0001)                         cg3d_res =    3.48974026164624E-04
(PID.TID 0000.0001) // =======================================================
(PID.TID 0000.0001) // Begin MONITOR dynamic field statistics
(PID.TID 0000.0001) // =======================================================
(PID.TID 0000.0001) %MON time_tsnumber                =                     6
(PID.TID 0000.0001) %MON time_secondsf                =   1.2000000000000E-03
(PID.TID 0000.0001) %MON time_secondsi                =                     0
(PID.TID 0000.0001) %MON dynstat_eta_max              =   6.7622010497979E-06
(PID.TID 0000.0001) %MON dynstat_eta_min              =  -6.6107751103591E-06
(PID.TID 0000.0001) %MON dynstat_eta_mean             =   4.7791138461770E-11
(PID.TID 0000.0001) %MON dynstat_eta_sd               =   3.2106625854598E-06
(PID.TID 0000.0001) %MON dynstat_uvel_max             =   8.1061833241755E-01
(PID.TID 0000.0001) %MON dynstat_uvel_min             =  -7.1182456382672E-01
(PID.TID 0000.0001) %MON dynstat_uvel_mean            =   1.7902555684764E-13
(PID.TID 0000.0001) %MON dynstat_uvel_sd              =   6.1168245815027E-02
(PID.TID 0000.0001) %MON dynstat_vvel_max             =   7.0674488825536E-01
(PID.TID 0000.0001) %MON dynstat_vvel_min             =  -6.7111764894056E-01
(PID.TID 0000.0001) %MON dynstat_vvel_mean            =  -1.2148934441322E-13
(PID.TID 0000.0001) %MON dynstat_vvel_sd              =   6.0976004805386E-02
(PID.TID 0000.0001) %MON dynstat_wvel_max             =   8.9442394309731E-01
(PID.TID 0000.0001) %MON dynstat_wvel_min             =  -8.6037687496458E-01
(PID.TID 0000.0001) %MON dynstat_wvel_mean            =   1.4793857542989E-13
(PID.TID 0000.0001) %MON dynstat_wvel_sd              =   8.9427227447336E-02
(PID.TID 0000.0001) %MON dynstat_theta_max            =   1.0000000000000E+00
(PID.TID 0000.0001) %MON dynstat_theta_min            =   9.8854919109276E-01
(PID.TID 0000.0001) %MON dynstat_theta_mean           =   9.9939698431787E-01
(PID.TID 0000.0001) %MON dynstat_theta_sd             =   2.4781152469229E-03
(PID.TID 0000.0001) %MON dynstat_salt_max             =   3.5000000000000E+01
(PID.TID 0000.0001) %MON dynstat_salt_min             =   3.5000000000000E+01
(PID.TID 0000.0001) %MON dynstat_salt_mean            =   3.5000000000000E+01
(PID.TID 0000.0001) %MON dynstat_salt_sd              =   0.0000000000000E+00
(PID.TID 0000.0001) %MON advcfl_uvel_max              =   2.5939786637362E-03
(PID.TID 0000.0001) %MON advcfl_vvel_max              =   2.2615836424171E-03
(PID.TID 0000.0001) %MON advcfl_wvel_max              =   1.7888478861946E-03
(PID.TID 0000.0001) %MON advcfl_W_hf_max              =   3.5776957723893E-03
(PID.TID 0000.0001) %MON ke_max                       =   2.1857702209510E-01
(PID.TID 0000.0001) %MON ke_mean                      =   3.7298137290570E-03
(PID.TID 0000.0001) // =======================================================
(PID.TID 0000.0001) // End MONITOR dynamic field statistics
(PID.TID 0000.0001) // =======================================================
 cg2d: Sum(rhs),rhsMax =  -4.47968511238517E-06  5.75057441808710E+03
(PID.TID 0000.0001)                    cg2d_init_res =    6.87568437376443E+00
(PID.TID 0000.0001)                       cg2d_iters =    86
(PID.TID 0000.0001)                         cg2d_res =    5.31128123930287E-10
 cg3d: Sum(rhs),rhsMax =  -1.21384326201568E-12  3.64131298477129E+03
(PID.TID 0000.0001)                    cg3d_init_res =    8.39806980489163E+00
(PID.TID 0000.0001)                       cg3d_iters =    40
(PID.TID 0000.0001)                         cg3d_res =    2.91958528801030E-04
(PID.TID 0000.0001) // =======================================================
(PID.TID 0000.0001) // Begin MONITOR dynamic field statistics
(PID.TID 0000.0001) // =======================================================
(PID.TID 0000.0001) %MON time_tsnumber                =                     7
(PID.TID 0000.0001) %MON time_secondsf                =   1.4000000000000E-03
(PID.TID 0000.0001) %MON time_secondsi                =                     0
(PID.TID 0000.0001) %MON dynstat_eta_max              =   1.0012454783311E-05
(PID.TID 0000.0001) %MON dynstat_eta_min              =  -9.6337482498295E-06
(PID.TID 0000.0001) %MON dynstat_eta_mean             =   1.2880381202221E-10
(PID.TID 0000.0001) %MON dynstat_eta_sd               =   4.5364489998907E-06
(PID.TID 0000.0001) %MON dynstat_uvel_max             =   1.2294908934540E+00
(PID.TID 0000.0001) %MON dynstat_uvel_min             =  -1.0599656127214E+00
(PID.TID 0000.0001) %MON dynstat_uvel_mean            =   5.4072891974131E-13
(PID.TID 0000.0001) %MON dynstat_uvel_sd              =   9.0020307360886E-02
(PID.TID 0000.0001) %MON dynstat_vvel_max             =   1.0581996597523E+00
(PID.TID 0000.0001) %MON dynstat_vvel_min             =  -1.0010302063496E+00
(PID.TID 0000.0001) %MON dynstat_vvel_mean            =  -4.0999247661531E-13
(PID.TID 0000.0001) %MON dynstat_vvel_sd              =   8.9702146288095E-02
(PID.TID 0000.0001) %MON dynstat_wvel_max             =   1.3808367800836E+00
(PID.TID 0000.0001) %MON dynstat_wvel_min             =  -1.3176387369773E+00
(PID.TID 0000.0001) %MON dynstat_wvel_mean            =   2.9471763301042E-13
(PID.TID 0000.0001) %MON dynstat_wvel_sd              =   1.3626489204276E-01
(PID.TID 0000.0001) %MON dynstat_theta_max            =   1.0000000000000E+00
(PID.TID 0000.0001) %MON dynstat_theta_min            =   9.8675116950408E-01
(PID.TID 0000.0001) %MON dynstat_theta_mean           =   9.9929648169894E-01
(PID.TID 0000.0001) %MON dynstat_theta_sd             =   2.8646788876076E-03
(PID.TID 0000.0001) %MON dynstat_salt_max             =   3.5000000000000E+01
(PID.TID 0000.0001) %MON dynstat_salt_min             =   3.5000000000000E+01
(PID.TID 0000.0001) %MON dynstat_salt_mean            =   3.5000000000000E+01
(PID.TID 0000.0001) %MON dynstat_salt_sd              =   0.0000000000000E+00
(PID.TID 0000.0001) %MON advcfl_uvel_max              =   3.9343708590529E-03
(PID.TID 0000.0001) %MON advcfl_vvel_max              =   3.3862389112074E-03
(PID.TID 0000.0001) %MON advcfl_wvel_max              =   2.7616735601673E-03
(PID.TID 0000.0001) %MON advcfl_W_hf_max              =   5.5233471203345E-03
(PID.TID 0000.0001) %MON ke_max                       =   4.9056786153334E-01
(PID.TID 0000.0001) %MON ke_mean                      =   8.0750653930194E-03
(PID.TID 0000.0001) // =======================================================
(PID.TID 0000.0001) // End MONITOR dynamic field statistics
(PID.TID 0000.0001) // =======================================================
 cg2d: Sum(rhs),rhsMax =  -8.12768541609554E-06  8.18619829093472E+03
(PID.TID 0000.0001)                    cg2d_init_res =    7.66017798737212E+00
(PID.TID 0000.0001)                       cg2d_iters =    86
(PID.TID 0000.0001)                         cg2d_res =    6.42871557528952E-10
 cg3d: Sum(rhs),rhsMax =  -8.48991016377809E-13  5.42765091253081E+03
(PID.TID 0000.0001)                    cg3d_init_res =    9.14906371717269E+00
(PID.TID 0000.0001)                       cg3d_iters =    40
(PID.TID 0000.0001)                         cg3d_res =    2.42722858875782E-04
(PID.TID 0000.0001) // =======================================================
(PID.TID 0000.0001) // Begin MONITOR dynamic field statistics
(PID.TID 0000.0001) // =======================================================
(PID.TID 0000.0001) %MON time_tsnumber                =                     8
(PID.TID 0000.0001) %MON time_secondsf                =   1.6000000000000E-03
(PID.TID 0000.0001) %MON time_secondsi                =                     0
(PID.TID 0000.0001) %MON dynstat_eta_max              =   1.5138695210149E-05
(PID.TID 0000.0001) %MON dynstat_eta_min              =  -1.4409802750647E-05
(PID.TID 0000.0001) %MON dynstat_eta_mean             =   3.3267422088669E-10
(PID.TID 0000.0001) %MON dynstat_eta_sd               =   6.6264471311546E-06
(PID.TID 0000.0001) %MON dynstat_uvel_max             =   1.8515275388803E+00
(PID.TID 0000.0001) %MON dynstat_uvel_min             =  -1.5952513491469E+00
(PID.TID 0000.0001) %MON dynstat_uvel_mean            =   1.8767057717417E-12
(PID.TID 0000.0001) %MON dynstat_uvel_sd              =   1.3304108152326E-01
(PID.TID 0000.0001) %MON dynstat_vvel_max             =   1.5772322810481E+00
(PID.TID 0000.0001) %MON dynstat_vvel_min             =  -1.4868752933257E+00
(PID.TID 0000.0001) %MON dynstat_vvel_mean            =  -1.3419797622997E-12
(PID.TID 0000.0001) %MON dynstat_vvel_sd              =   1.3269154350838E-01
(PID.TID 0000.0001) %MON dynstat_wvel_max             =   2.1007486536482E+00
(PID.TID 0000.0001) %MON dynstat_wvel_min             =  -1.9894699208286E+00
(PID.TID 0000.0001) %MON dynstat_wvel_mean            =   5.5038282754793E-13
(PID.TID 0000.0001) %MON dynstat_wvel_sd              =   2.0553404973381E-01
(PID.TID 0000.0001) %MON dynstat_theta_max            =   1.0000000000000E+00
(PID.TID 0000.0001) %MON dynstat_theta_min            =   9.8497242760423E-01
(PID.TID 0000.0001) %MON dynstat_theta_mean           =   9.9919597907452E-01
(PID.TID 0000.0001) %MON dynstat_theta_sd             =   3.2448738603267E-03
(PID.TID 0000.0001) %MON dynstat_salt_max             =   3.5000000000000E+01
(PID.TID 0000.0001) %MON dynstat_salt_min             =   3.5000000000000E+01
(PID.TID 0000.0001) %MON dynstat_salt_mean            =   3.5000000000000E+01
(PID.TID 0000.0001) %MON dynstat_salt_sd              =   0.0000000000000E+00
(PID.TID 0000.0001) %MON advcfl_uvel_max              =   5.9248881244168E-03
(PID.TID 0000.0001) %MON advcfl_vvel_max              =   5.0471432993539E-03
(PID.TID 0000.0001) %MON advcfl_wvel_max              =   4.2014973072964E-03
(PID.TID 0000.0001) %MON advcfl_W_hf_max              =   8.4029946145929E-03
(PID.TID 0000.0001) %MON ke_max                       =   1.0930587111698E+00
(PID.TID 0000.0001) %MON ke_mean                      =   1.7653487545757E-02
(PID.TID 0000.0001) // =======================================================
(PID.TID 0000.0001) // End MONITOR dynamic field statistics
(PID.TID 0000.0001) // =======================================================
 cg2d: Sum(rhs),rhsMax =  -1.41507445935579E-05  1.17257798686810E+04
(PID.TID 0000.0001)                    cg2d_init_res =    7.90158762511374E+00
(PID.TID 0000.0001)                       cg2d_iters =    86
(PID.TID 0000.0001)                         cg2d_res =    5.66486064141857E-10
 cg3d: Sum(rhs),rhsMax =  -4.38707230265845E-13  8.04919086204791E+03
(PID.TID 0000.0001)                    cg3d_init_res =    9.23868548348975E+00
(PID.TID 0000.0001)                       cg3d_iters =    40
(PID.TID 0000.0001)                         cg3d_res =    2.13741042185832E-04
(PID.TID 0000.0001) // =======================================================
(PID.TID 0000.0001) // Begin MONITOR dynamic field statistics
(PID.TID 0000.0001) // =======================================================
(PID.TID 0000.0001) %MON time_tsnumber                =                     9
(PID.TID 0000.0001) %MON time_secondsf                =   1.8000000000000E-03
(PID.TID 0000.0001) %MON time_secondsi                =                     0
(PID.TID 0000.0001) %MON dynstat_eta_max              =   2.3489357639007E-05
(PID.TID 0000.0001) %MON dynstat_eta_min              =  -2.2060463135418E-05
(PID.TID 0000.0001) %MON dynstat_eta_mean             =   8.2964257948335E-10
(PID.TID 0000.0001) %MON dynstat_eta_sd               =   9.8891357354876E-06
(PID.TID 0000.0001) %MON dynstat_uvel_max             =   2.8004274804503E+00
(PID.TID 0000.0001) %MON dynstat_uvel_min             =  -2.4262330743867E+00
(PID.TID 0000.0001) %MON dynstat_uvel_mean            =   6.1480332697969E-12
(PID.TID 0000.0001) %MON dynstat_uvel_sd              =   1.9891339154827E-01
(PID.TID 0000.0001) %MON dynstat_vvel_max             =   2.3606628885252E+00
(PID.TID 0000.0001) %MON dynstat_vvel_min             =  -2.2555442935406E+00
(PID.TID 0000.0001) %MON dynstat_vvel_mean            =  -3.7213634771441E-12
(PID.TID 0000.0001) %MON dynstat_vvel_sd              =   1.9874527813446E-01
(PID.TID 0000.0001) %MON dynstat_wvel_max             =   3.2008679033562E+00
(PID.TID 0000.0001) %MON dynstat_wvel_min             =  -3.0071712381873E+00
(PID.TID 0000.0001) %MON dynstat_wvel_mean            =   1.0063403817774E-12
(PID.TID 0000.0001) %MON dynstat_wvel_sd              =   3.1192139082219E-01
(PID.TID 0000.0001) %MON dynstat_theta_max            =   1.0000000000000E+00
(PID.TID 0000.0001) %MON dynstat_theta_min            =   9.8320316894209E-01
(PID.TID 0000.0001) %MON dynstat_theta_mean           =   9.9909547643599E-01
(PID.TID 0000.0001) %MON dynstat_theta_sd             =   3.6189957244997E-03
(PID.TID 0000.0001) %MON dynstat_salt_max             =   3.5000000000000E+01
(PID.TID 0000.0001) %MON dynstat_salt_min             =   3.5000000000000E+01
(PID.TID 0000.0001) %MON dynstat_salt_mean            =   3.5000000000000E+01
(PID.TID 0000.0001) %MON dynstat_salt_sd              =   0.0000000000000E+00
(PID.TID 0000.0001) %MON advcfl_uvel_max              =   8.9613679374410E-03
(PID.TID 0000.0001) %MON advcfl_vvel_max              =   7.5541212432808E-03
(PID.TID 0000.0001) %MON advcfl_wvel_max              =   6.4017358067125E-03
(PID.TID 0000.0001) %MON advcfl_W_hf_max              =   1.2803471613425E-02
(PID.TID 0000.0001) %MON ke_max                       =   2.4679058151650E+00
(PID.TID 0000.0001) %MON ke_mean                      =   3.9533111458989E-02
(PID.TID 0000.0001) // =======================================================
(PID.TID 0000.0001) // End MONITOR dynamic field statistics
(PID.TID 0000.0001) // =======================================================
 cg2d: Sum(rhs),rhsMax =  -2.36855737933694E-05  1.74127043051067E+04
(PID.TID 0000.0001)                    cg2d_init_res =    8.52970487728035E+00
(PID.TID 0000.0001)                       cg2d_iters =    86
(PID.TID 0000.0001)                         cg2d_res =    6.34303202543321E-10
 cg3d: Sum(rhs),rhsMax =  -3.59793358301053E-13  1.22905743862485E+04
(PID.TID 0000.0001)                    cg3d_init_res =    9.79379977462169E+00
(PID.TID 0000.0001)                       cg3d_iters =    40
(PID.TID 0000.0001)                         cg3d_res =    2.15388271894771E-04
(PID.TID 0000.0001) // =======================================================
(PID.TID 0000.0001) // Begin MONITOR dynamic field statistics
(PID.TID 0000.0001) // =======================================================
(PID.TID 0000.0001) %MON time_tsnumber                =                    10
(PID.TID 0000.0001) %MON time_secondsf                =   2.0000000000000E-03
(PID.TID 0000.0001) %MON time_secondsi                =                     0
(PID.TID 0000.0001) %MON dynstat_eta_max              =   3.7208876397979E-05
(PID.TID 0000.0001) %MON dynstat_eta_min              =  -3.4663649881230E-05
(PID.TID 0000.0001) %MON dynstat_eta_mean             =   2.0621494628538E-09
(PID.TID 0000.0001) %MON dynstat_eta_sd               =   1.5197782895807E-05
(PID.TID 0000.0001) %MON dynstat_uvel_max             =   4.2801661663954E+00
(PID.TID 0000.0001) %MON dynstat_uvel_min             =  -3.7309351722764E+00
(PID.TID 0000.0001) %MON dynstat_uvel_mean            =   2.1339675031310E-11
(PID.TID 0000.0001) %MON dynstat_uvel_sd              =   3.0281332972420E-01
(PID.TID 0000.0001) %MON dynstat_vvel_max             =   3.5735819944498E+00
(PID.TID 0000.0001) %MON dynstat_vvel_min             =  -3.4848717103921E+00
(PID.TID 0000.0001) %MON dynstat_vvel_mean            =  -1.0730971628021E-11
(PID.TID 0000.0001) %MON dynstat_vvel_sd              =   3.0323064730038E-01
(PID.TID 0000.0001) %MON dynstat_wvel_max             =   4.9316152514242E+00
(PID.TID 0000.0001) %MON dynstat_wvel_min             =  -4.5878335589764E+00
(PID.TID 0000.0001) %MON dynstat_wvel_mean            =   1.7925357232638E-12
(PID.TID 0000.0001) %MON dynstat_wvel_sd              =   4.7880136231587E-01
(PID.TID 0000.0001) %MON dynstat_theta_max            =   1.0000000000000E+00
(PID.TID 0000.0001) %MON dynstat_theta_min            =   9.8142937795687E-01
(PID.TID 0000.0001) %MON dynstat_theta_mean           =   9.9899497376595E-01
(PID.TID 0000.0001) %MON dynstat_theta_sd             =   3.9873194702684E-03
(PID.TID 0000.0001) %MON dynstat_salt_max             =   3.5000000000000E+01
(PID.TID 0000.0001) %MON dynstat_salt_min             =   3.5000000000000E+01
(PID.TID 0000.0001) %MON dynstat_salt_mean            =   3.5000000000000E+01
(PID.TID 0000.0001) %MON dynstat_salt_sd              =   0.0000000000000E+00
(PID.TID 0000.0001) %MON advcfl_uvel_max              =   1.3696531732465E-02
(PID.TID 0000.0001) %MON advcfl_vvel_max              =   1.1435462382239E-02
(PID.TID 0000.0001) %MON advcfl_wvel_max              =   9.8632305028484E-03
(PID.TID 0000.0001) %MON advcfl_W_hf_max              =   1.9726461005697E-02
(PID.TID 0000.0001) %MON ke_max                       =   5.7170131223798E+00
(PID.TID 0000.0001) %MON ke_mean                      =   9.1822369060433E-02
(PID.TID 0000.0001) // =======================================================
(PID.TID 0000.0001) // End MONITOR dynamic field statistics
(PID.TID 0000.0001) // =======================================================
(PID.TID 0000.0001)   Seconds in section "ALL                [THE_MODEL_MAIN]":
(PID.TID 0000.0001)           User time:  38.9699995
(PID.TID 0000.0001)         System time:  0.289999992
(PID.TID 0000.0001)     Wall clock time:  40.7000611
(PID.TID 0000.0001)          No. starts: 1
(PID.TID 0000.0001)           No. stops: 1
(PID.TID 0000.0001)   Seconds in section "INITIALISE_FIXED   [THE_MODEL_MAIN]":
(PID.TID 0000.0001)           User time:  0.390000006
(PID.TID 0000.0001)         System time:  0.0299999993
(PID.TID 0000.0001)     Wall clock time:  1.1435101
(PID.TID 0000.0001)          No. starts: 1
(PID.TID 0000.0001)           No. stops: 1
(PID.TID 0000.0001)   Seconds in section "THE_MAIN_LOOP      [THE_MODEL_MAIN]":
(PID.TID 0000.0001)           User time:  37.8200012
(PID.TID 0000.0001)         System time:  0.129999997
(PID.TID 0000.0001)     Wall clock time:  38.496901
(PID.TID 0000.0001)          No. starts: 1
(PID.TID 0000.0001)           No. stops: 1
(PID.TID 0000.0001)   Seconds in section "INITIALISE_VARIA    [THE_MAIN_LOOP]":
(PID.TID 0000.0001)           User time:  0.159999996
(PID.TID 0000.0001)         System time:  0.00999999978
(PID.TID 0000.0001)     Wall clock time:  0.226966977
(PID.TID 0000.0001)          No. starts: 1
(PID.TID 0000.0001)           No. stops: 1
(PID.TID 0000.0001)   Seconds in section "WRITE_STATE         [THE_MAIN_LOOP]":
(PID.TID 0000.0001)           User time:  0.120000005
(PID.TID 0000.0001)         System time:  0.0300000012
(PID.TID 0000.0001)     Wall clock time:  0.152464986
(PID.TID 0000.0001)          No. starts: 1
(PID.TID 0000.0001)           No. stops: 1
(PID.TID 0000.0001)   Seconds in section "MONITOR             [THE_MAIN_LOOP]":
(PID.TID 0000.0001)           User time:  0.0799999833
(PID.TID 0000.0001)         System time:  0.
(PID.TID 0000.0001)     Wall clock time:  0.084239006
(PID.TID 0000.0001)          No. starts: 1
(PID.TID 0000.0001)           No. stops: 1
(PID.TID 0000.0001)   Seconds in section "MAIN LOOP           [THE_MAIN_LOOP]":
(PID.TID 0000.0001)           User time:  37.4600012
(PID.TID 0000.0001)         System time:  0.0899999961
(PID.TID 0000.0001)     Wall clock time:  38.032935
(PID.TID 0000.0001)          No. starts: 1
(PID.TID 0000.0001)           No. stops: 1
(PID.TID 0000.0001)   Seconds in section "FORWARD_STEP        [THE_MAIN_LOOP]":
(PID.TID 0000.0001)           User time:  37.4600012
(PID.TID 0000.0001)         System time:  0.0899999961
(PID.TID 0000.0001)     Wall clock time:  38.0323219
(PID.TID 0000.0001)          No. starts: 10
(PID.TID 0000.0001)           No. stops: 10
(PID.TID 0000.0001)   Seconds in section "EXTERNAL_FIELDS_LOAD[THE_MAIN_LOOP]":
(PID.TID 0000.0001)           User time:  0.
(PID.TID 0000.0001)         System time:  0.
(PID.TID 0000.0001)     Wall clock time:  0.0005620718
(PID.TID 0000.0001)          No. starts: 10
(PID.TID 0000.0001)           No. stops: 10
(PID.TID 0000.0001)   Seconds in section "THERMODYNAMICS      [THE_MAIN_LOOP]":
(PID.TID 0000.0001)           User time:  3.64999986
(PID.TID 0000.0001)         System time:  0.0300000012
(PID.TID 0000.0001)     Wall clock time:  3.72616577
(PID.TID 0000.0001)          No. starts: 10
(PID.TID 0000.0001)           No. stops: 10
(PID.TID 0000.0001)   Seconds in section "DYNAMICS            [THE_MAIN_LOOP]":
(PID.TID 0000.0001)           User time:  4.7299993
(PID.TID 0000.0001)         System time:  0.0200000033
(PID.TID 0000.0001)     Wall clock time:  4.79015124
(PID.TID 0000.0001)          No. starts: 10
(PID.TID 0000.0001)           No. stops: 10
(PID.TID 0000.0001)   Seconds in section "CALC_GW          [THE_MAIN_LOOP]":
(PID.TID 0000.0001)           User time:  0.730000257
(PID.TID 0000.0001)         System time:  0.
(PID.TID 0000.0001)     Wall clock time:  0.759568095
(PID.TID 0000.0001)          No. starts: 10
(PID.TID 0000.0001)           No. stops: 10
(PID.TID 0000.0001)   Seconds in section "SOLVE_FOR_PRESSURE  [THE_MSTOP NORMAL END statement executed
AIN_LOOP]":
(PID.TID 0000.0001)           User time:  26.5099989
(PID.TID 0000.0001)         System time:  0.0300000012
(PID.TID 0000.0001)     Wall clock time:  26.9171128
(PID.TID 0000.0001)          No. starts: 10
(PID.TID 0000.0001)           No. stops: 10
(PID.TID 0000.0001)   Seconds in section "THE_CORRECTION_STEP [THE_MAIN_LOOP]":
(PID.TID 0000.0001)           User time:  0.499999881
(PID.TID 0000.0001)         System time:  0.
(PID.TID 0000.0001)     Wall clock time:  0.502667069
(PID.TID 0000.0001)          No. starts: 10
(PID.TID 0000.0001)           No. stops: 10
(PID.TID 0000.0001)   Seconds in section "BLOCKING_EXCHANGES  [THE_MAIN_LOOP]":
(PID.TID 0000.0001)           User time:  0.0700013638
(PID.TID 0000.0001)         System time:  0.
(PID.TID 0000.0001)     Wall clock time:  0.0860221386
(PID.TID 0000.0001)          No. starts: 10
(PID.TID 0000.0001)           No. stops: 10
(PID.TID 0000.0001)   Seconds in section "DO_THE_MODEL_IO     [THE_MAIN_LOOP]":
(PID.TID 0000.0001)           User time:  0.159999847
(PID.TID 0000.0001)         System time:  0.00999999046
(PID.TID 0000.0001)     Wall clock time:  0.152112007
(PID.TID 0000.0001)          No. starts: 10
(PID.TID 0000.0001)           No. stops: 10
(PID.TID 0000.0001)   Seconds in section "WRITE_CHECKPOINT    [THE_MAIN_LOOP]":
(PID.TID 0000.0001)           User time:  0.
(PID.TID 0000.0001)         System time:  0.
(PID.TID 0000.0001)     Wall clock time:  0.000571846962
(PID.TID 0000.0001)          No. starts: 10
(PID.TID 0000.0001)           No. stops: 10
(PID.TID 0000.0001)   Seconds in section "WRITE_CHECKPOINT   [THE_MODEL_MAIN]":
(PID.TID 0000.0001)           User time:  0.759998322
(PID.TID 0000.0001)         System time:  0.129999995
(PID.TID 0000.0001)     Wall clock time:  1.05928898
(PID.TID 0000.0001)          No. starts: 1
(PID.TID 0000.0001)           No. stops: 1
(PID.TID 0000.0001) // ======================================================
(PID.TID 0000.0001) // Tile <-> Tile communication statistics
(PID.TID 0000.0001) // ======================================================
(PID.TID 0000.0001) // o Tile number: 000001
(PID.TID 0000.0001) //         No. X exchanges =              0
(PID.TID 0000.0001) //            Max. X spins =              0
(PID.TID 0000.0001) //            Min. X spins =     1000000000
(PID.TID 0000.0001) //          Total. X spins =              0
(PID.TID 0000.0001) //            Avg. X spins =       0.00E+00
(PID.TID 0000.0001) //         No. Y exchanges =              0
(PID.TID 0000.0001) //            Max. Y spins =              0
(PID.TID 0000.0001) //            Min. Y spins =     1000000000
(PID.TID 0000.0001) //          Total. Y spins =              0
(PID.TID 0000.0001) //            Avg. Y spins =       0.00E+00
(PID.TID 0000.0001) // o Thread number: 000001
(PID.TID 0000.0001) //            No. barriers =          15900
(PID.TID 0000.0001) //      Max. barrier spins =              1
(PID.TID 0000.0001) //      Min. barrier spins =              1
(PID.TID 0000.0001) //     Total barrier spins =          15900
(PID.TID 0000.0001) //      Avg. barrier spins =       1.00E+00
