(PID.TID 0000.0001) 
(PID.TID 0000.0001) // ======================================================
(PID.TID 0000.0001) //                      MITgcm UV
(PID.TID 0000.0001) //                      =========
(PID.TID 0000.0001) // ======================================================
(PID.TID 0000.0001) // execution environment starting up...
(PID.TID 0000.0001) // Run starting Wed Apr  1 14:19:48 1998
(PID.TID 0000.0001) // on melville.lcs.mit.edu
(PID.TID 0000.0001) // account cnh
(PID.TID 0000.0001) // MITgcm UV Release: $Name:  $
(PID.TID 0000.0001) 
(PID.TID 0000.0001) // =======================================================
(PID.TID 0000.0001) // Execution Environment parameter file "eedata"
(PID.TID 0000.0001) // =======================================================
(PID.TID 0000.0001) ># Example "eedata" file
(PID.TID 0000.0001) ># Lines beginning "#" are comments
(PID.TID 0000.0001) ># nTx - No. threads per process in X
(PID.TID 0000.0001) ># nTy - No. threads per process in Y
(PID.TID 0000.0001) > &EEPARMS
(PID.TID 0000.0001) > &
(PID.TID 0000.0001) ># Note: Some systems use & as the
(PID.TID 0000.0001) ># namelist terminator. Other systems
(PID.TID 0000.0001) ># use a / character (as shown here).
(PID.TID 0000.0001) 
(PID.TID 0000.0001) // =======================================================
(PID.TID 0000.0001) // Computational Grid Specification ( see files "SIZE.h" )
(PID.TID 0000.0001) //                                  ( and "eedata"       )
(PID.TID 0000.0001) // =======================================================
(PID.TID 0000.0001)      nPx =    1 ; /* No. processes in X */
(PID.TID 0000.0001)      nPy =    1 ; /* No. processes in Y */
(PID.TID 0000.0001)      nSx =    2 ; /* No. tiles in X per process */
(PID.TID 0000.0001)      nSy =    2 ; /* No. tiles in Y per process */
(PID.TID 0000.0001)      sNx =   32 ; /* Tile size in X */
(PID.TID 0000.0001)      sNy =   32 ; /* Tile size in Y */
(PID.TID 0000.0001)      OLx =    2 ; /* Tile overlap distance in X */
(PID.TID 0000.0001)      OLy =    2 ; /* Tile overlap distance in Y */
(PID.TID 0000.0001)      nTx =    1 ; /* No. threads in X per process */
(PID.TID 0000.0001)      nTy =    1 ; /* No. threads in Y per process */
(PID.TID 0000.0001)       Nr =   20 ; /* No. levels in the vertical   */
(PID.TID 0000.0001)       nX =   64 ; /* Total domain size in X ( = nPx*nSx*sNx ) */
(PID.TID 0000.0001)       nY =   64 ; /* Total domain size in Y ( = nPy*nSy*sNy ) */
(PID.TID 0000.0001)   nTiles =    4 ; /* Total no. tiles per process ( = nSx*nSy ) */
(PID.TID 0000.0001)   nProcs =    1 ; /* Total no. processes ( = nPx*nPy ) */
(PID.TID 0000.0001) nThreads =    1 ; /* Total no. threads per process ( = nTx*nTy ) */
(PID.TID 0000.0001) usingMPI =    F ; /* Flag used to control whether MPI is in use */
(PID.TID 0000.0001)                   /*  note: To execute a program with MPI calls */
(PID.TID 0000.0001)                   /*  it must be launched appropriately e.g     */
(PID.TID 0000.0001)                   /*  "mpirun -np 64 ......"                    */
(PID.TID 0000.0001) 
(PID.TID 0000.0001) // ======================================================
(PID.TID 0000.0001) // Mapping of tiles to threads
(PID.TID 0000.0001) // ======================================================
(PID.TID 0000.0001) // -o- Thread   1, tiles (   1:   2,   1:   2)
(PID.TID 0000.0001) 
(PID.TID 0000.0001) // ======================================================
(PID.TID 0000.0001) // Tile <-> Tile connectvity table
(PID.TID 0000.0001) // ======================================================
(PID.TID 0000.0001) // Tile number: 000001 (process no. = 000001)
(PID.TID 0000.0001) //        WEST: Tile = 000002, Process = 000001, Comm = put
(PID.TID 0000.0001) //                bi = 000002, bj = 000001
(PID.TID 0000.0001) //        EAST: Tile = 000002, Process = 000001, Comm = put
(PID.TID 0000.0001) //                bi = 000002, bj = 000001
(PID.TID 0000.0001) //       SOUTH: Tile = 000003, Process = 000001, Comm = put
(PID.TID 0000.0001) //                bi = 000001, bj = 000002
(PID.TID 0000.0001) //       NORTH: Tile = 000003, Process = 000001, Comm = put
(PID.TID 0000.0001) //                bi = 000001, bj = 000002
(PID.TID 0000.0001) // Tile number: 000002 (process no. = 000001)
(PID.TID 0000.0001) //        WEST: Tile = 000001, Process = 000001, Comm = put
(PID.TID 0000.0001) //                bi = 000001, bj = 000001
(PID.TID 0000.0001) //        EAST: Tile = 000001, Process = 000001, Comm = put
(PID.TID 0000.0001) //                bi = 000001, bj = 000001
(PID.TID 0000.0001) //       SOUTH: Tile = 000004, Process = 000001, Comm = put
(PID.TID 0000.0001) //                bi = 000002, bj = 000002
(PID.TID 0000.0001) //       NORTH: Tile = 000004, Process = 000001, Comm = put
(PID.TID 0000.0001) //                bi = 000002, bj = 000002
(PID.TID 0000.0001) // Tile number: 000003 (process no. = 000001)
(PID.TID 0000.0001) //        WEST: Tile = 000004, Process = 000001, Comm = put
(PID.TID 0000.0001) //                bi = 000002, bj = 000002
(PID.TID 0000.0001) //        EAST: Tile = 000004, Process = 000001, Comm = put
(PID.TID 0000.0001) //                bi = 000002, bj = 000002
(PID.TID 0000.0001) //       SOUTH: Tile = 000001, Process = 000001, Comm = put
(PID.TID 0000.0001) //                bi = 000001, bj = 000001
(PID.TID 0000.0001) //       NORTH: Tile = 000001, Process = 000001, Comm = put
(PID.TID 0000.0001) //                bi = 000001, bj = 000001
(PID.TID 0000.0001) // Tile number: 000004 (process no. = 000001)
(PID.TID 0000.0001) //        WEST: Tile = 000003, Process = 000001, Comm = put
(PID.TID 0000.0001) //                bi = 000001, bj = 000002
(PID.TID 0000.0001) //        EAST: Tile = 000003, Process = 000001, Comm = put
(PID.TID 0000.0001) //                bi = 000001, bj = 000002
(PID.TID 0000.0001) //       SOUTH: Tile = 000002, Process = 000001, Comm = put
(PID.TID 0000.0001) //                bi = 000002, bj = 000001
(PID.TID 0000.0001) //       NORTH: Tile = 000002, Process = 000001, Comm = put
(PID.TID 0000.0001) //                bi = 000002, bj = 000001
(PID.TID 0000.0001) 
(PID.TID 0000.0001) // =======================================================
(PID.TID 0000.0001) // Model parameter file "data"
(PID.TID 0000.0001) // =======================================================
(PID.TID 0000.0001) ># ====================
(PID.TID 0000.0001) ># | Model parameters |
(PID.TID 0000.0001) ># ====================
(PID.TID 0000.0001) >#
(PID.TID 0000.0001) ># Continuous equation parameters
(PID.TID 0000.0001) > &PARM01
(PID.TID 0000.0001) > tRef=20*1.
(PID.TID 0000.0001) > sRef=20*35.,
(PID.TID 0000.0001) > viscAh=1.E0,
(PID.TID 0000.0001) > viscAz=1.E0,
(PID.TID 0000.0001) > no_slip_sides=.FALSE.,
(PID.TID 0000.0001) > no_slip_bottom=.FALSE.,
(PID.TID 0000.0001) > viscA4=0.E12,
(PID.TID 0000.0001) > diffKhT=1.E0,
(PID.TID 0000.0001) > diffKzT=1.E0,
(PID.TID 0000.0001) > diffKhS=1.E0,
(PID.TID 0000.0001) > diffKzS=1.E0,
(PID.TID 0000.0001) > f0=1250.,
(PID.TID 0000.0001) > beta=0.E-11,
(PID.TID 0000.0001) > tAlpha=1.,
(PID.TID 0000.0001) > sBeta =0.,
(PID.TID 0000.0001) > gravity=1.4E8,
(PID.TID 0000.0001) > rhoConst=1.,
(PID.TID 0000.0001) > rhoNil=1.,
(PID.TID 0000.0001) > heatCapacity_Cp=1.,
(PID.TID 0000.0001) > rigidLid=.FALSE.,
(PID.TID 0000.0001) > implicitFreeSurface=.TRUE.,
(PID.TID 0000.0001) > eosType='LINEAR',
(PID.TID 0000.0001) > nonHydrostatic=.TRUE.,
(PID.TID 0000.0001) > readBinaryPrec=64,
(PID.TID 0000.0001) > &
(PID.TID 0000.0001) >
(PID.TID 0000.0001) ># Elliptic solver parameters
(PID.TID 0000.0001) > &PARM02
(PID.TID 0000.0001) > cg2dMaxIters=1000,
(PID.TID 0000.0001) > cg2dTargetResidual=1.E-9,
(PID.TID 0000.0001) > cg3dMaxIters=40,
(PID.TID 0000.0001) > cg3dTargetResidual=1.E-9,
(PID.TID 0000.0001) > &
(PID.TID 0000.0001) >
(PID.TID 0000.0001) ># Time stepping parameters
(PID.TID 0000.0001) > &PARM03
(PID.TID 0000.0001) > nIter0=0,
(PID.TID 0000.0001) > nTimeSteps=10,
(PID.TID 0000.0001) > deltaT=2.0E-4,
(PID.TID 0000.0001) > abEps=0.1,
(PID.TID 0000.0001) > pChkptFreq=0.0,
(PID.TID 0000.0001) > chkptFreq=0.0,
(PID.TID 0000.0001) > dumpFreq=0.1,
(PID.TID 0000.0001) > monitorFreq=1.E-5,
(PID.TID 0000.0001) > &
(PID.TID 0000.0001) >
(PID.TID 0000.0001) ># Gridding parameters
(PID.TID 0000.0001) > &PARM04
(PID.TID 0000.0001) > usingCartesianGrid=.TRUE.,
(PID.TID 0000.0001) > usingSphericalPolarGrid=.FALSE.,
(PID.TID 0000.0001) > dXspacing=0.0625,
(PID.TID 0000.0001) > dYspacing=0.0625,
(PID.TID 0000.0001) > delZ=20*0.1,
(PID.TID 0000.0001) > &
(PID.TID 0000.0001) >
(PID.TID 0000.0001) ># Input datasets
(PID.TID 0000.0001) > &PARM05
(PID.TID 0000.0001) > surfQfile='Qnet.circle',
(PID.TID 0000.0001) > &
(PID.TID 0000.0001) 
(PID.TID 0000.0001) S/R INI_PARMS ; read PARM01 : OK
(PID.TID 0000.0001) S/R INI_PARMS ; read PARM02 : OK
(PID.TID 0000.0001) S/R INI_PARMS ; read PARM03 : OK
(PID.TID 0000.0001) S/R INI_PARMS ; read PARM04 : OK
(PID.TID 0000.0001) S/R INI_PARMS ; read PARM05 : OK
(PID.TID 0000.0001) %MON XC_max                       =   3.9687500000000E+00
(PID.TID 0000.0001) %MON XC_min                       =   3.1250000000000E-02
(PID.TID 0000.0001) %MON XC_mean                      =   2.0000000000000E+00
(PID.TID 0000.0001) %MON XC_sd                        =   1.1545595751194E+00
(PID.TID 0000.0001) %MON XG_max                       =   3.9375000000000E+00
(PID.TID 0000.0001) %MON XG_min                       =   6.2500000000000E-02
(PID.TID 0000.0001) %MON XG_mean                      =   2.0000000000000E+00
(PID.TID 0000.0001) %MON XG_sd                        =   1.1365151414155E+00
(PID.TID 0000.0001) %MON DXC_max                      =   6.2500000000000E-02
(PID.TID 0000.0001) %MON DXC_min                      =   6.2500000000000E-02
(PID.TID 0000.0001) %MON DXC_mean                     =   6.2500000000000E-02
(PID.TID 0000.0001) %MON DXC_sd                       =   0.0000000000000E+00
(PID.TID 0000.0001) %MON DXF_max                      =   6.2500000000000E-02
(PID.TID 0000.0001) %MON DXF_min                      =   6.2500000000000E-02
(PID.TID 0000.0001) %MON DXF_mean                     =   6.2500000000000E-02
(PID.TID 0000.0001) %MON DXF_sd                       =   0.0000000000000E+00
(PID.TID 0000.0001) %MON DXG_max                      =   6.2500000000000E-02
(PID.TID 0000.0001) %MON DXG_min                      =   6.2500000000000E-02
(PID.TID 0000.0001) %MON DXG_mean                     =   6.2500000000000E-02
(PID.TID 0000.0001) %MON DXG_sd                       =   0.0000000000000E+00
(PID.TID 0000.0001) %MON DXV_max                      =   6.2500000000000E-02
(PID.TID 0000.0001) %MON DXV_min                      =   6.2500000000000E-02
(PID.TID 0000.0001) %MON DXV_mean                     =   6.2500000000000E-02
(PID.TID 0000.0001) %MON DXV_sd                       =   0.0000000000000E+00
(PID.TID 0000.0001) %MON YC_max                       =   3.9687500000000E+00
(PID.TID 0000.0001) %MON YC_min                       =   3.1250000000000E-02
(PID.TID 0000.0001) %MON YC_mean                      =   2.0000000000000E+00
(PID.TID 0000.0001) %MON YC_sd                        =   1.1545595751194E+00
(PID.TID 0000.0001) %MON YG_max                       =   3.9375000000000E+00
(PID.TID 0000.0001) %MON YG_min                       =   6.2500000000000E-02
(PID.TID 0000.0001) %MON YG_mean                      =   2.0000000000000E+00
(PID.TID 0000.0001) %MON YG_sd                        =   1.1365151414155E+00
(PID.TID 0000.0001) %MON DYC_max                      =   6.2500000000000E-02
(PID.TID 0000.0001) %MON DYC_min                      =   6.2500000000000E-02
(PID.TID 0000.0001) %MON DYC_mean                     =   6.2500000000000E-02
(PID.TID 0000.0001) %MON DYC_sd                       =   0.0000000000000E+00
(PID.TID 0000.0001) %MON DYF_max                      =   6.2500000000000E-02
(PID.TID 0000.0001) %MON DYF_min                      =   6.2500000000000E-02
(PID.TID 0000.0001) %MON DYF_mean                     =   6.2500000000000E-02
(PID.TID 0000.0001) %MON DYF_sd                       =   0.0000000000000E+00
(PID.TID 0000.0001) %MON DYG_max                      =   6.2500000000000E-02
(PID.TID 0000.0001) %MON DYG_min                      =   6.2500000000000E-02
(PID.TID 0000.0001) %MON DYG_mean                     =   6.2500000000000E-02
(PID.TID 0000.0001) %MON DYG_sd                       =   0.0000000000000E+00
(PID.TID 0000.0001) %MON DYU_max                      =   6.2500000000000E-02
(PID.TID 0000.0001) %MON DYU_min                      =   6.2500000000000E-02
(PID.TID 0000.0001) %MON DYU_mean                     =   6.2500000000000E-02
(PID.TID 0000.0001) %MON DYU_sd                       =   0.0000000000000E+00
(PID.TID 0000.0001) %MON RA_max                       =   3.9062500000000E-03
(PID.TID 0000.0001) %MON RA_min                       =   3.9062500000000E-03
(PID.TID 0000.0001) %MON RA_mean                      =   3.9062500000000E-03
(PID.TID 0000.0001) %MON RA_sd                        =   0.0000000000000E+00
(PID.TID 0000.0001) %MON RAW_max                      =   3.9062500000000E-03
(PID.TID 0000.0001) %MON RAW_min                      =   3.9062500000000E-03
(PID.TID 0000.0001) %MON RAW_mean                     =   3.9062500000000E-03
(PID.TID 0000.0001) %MON RAW_sd                       =   0.0000000000000E+00
(PID.TID 0000.0001) %MON RAS_max                      =   3.9062500000000E-03
(PID.TID 0000.0001) %MON RAS_min                      =   3.9062500000000E-03
(PID.TID 0000.0001) %MON RAS_mean                     =   3.9062500000000E-03
(PID.TID 0000.0001) %MON RAS_sd                       =   0.0000000000000E+00
(PID.TID 0000.0001) %MON RAZ_max                      =   3.9062500000000E-03
(PID.TID 0000.0001) %MON RAZ_min                      =   3.9062500000000E-03
(PID.TID 0000.0001) %MON RAZ_mean                     =   3.9062500000000E-03
(PID.TID 0000.0001) %MON RAZ_sd                       =   0.0000000000000E+00
(PID.TID 0000.0001) // =======================================================
(PID.TID 0000.0001) // Field Model R_low (ini_masks_etc) at iteration          1
(PID.TID 0000.0001) // CMIN =         -2.000000000000000E+00
(PID.TID 0000.0001) // CMAX =         -2.000000000000000E+00
(PID.TID 0000.0001) // CINT =          0.000000000000000E+00
(PID.TID 0000.0001) // SYMBOLS (CMIN->CMAX): -abcdefghijklmnopqrstuvwxyz+
(PID.TID 0000.0001) //                  0.0: .
(PID.TID 0000.0001) // RANGE I (Lo:Hi:Step):(  -1:  66:   1)
(PID.TID 0000.0001) // RANGE J (Lo:Hi:Step):(  66:  -1:  -1)
(PID.TID 0000.0001) // RANGE K (Lo:Hi:Step):(   1:   1:   1)
(PID.TID 0000.0001) // =======================================================
(PID.TID 0000.0001) K =   1
(PID.TID 0000.0001) //                I=8       I=18      I=28      I=34      I=44      I=54      I=64
(PID.TID 0000.0001) // |--J--|*01234567|901234567|901234567|901234123|567890123|567890123|567890123|56
(PID.TID 0000.0001) //     66 ------------------------------------------------------------------------
(PID.TID 0000.0001) //     65 ------------------------------------------------------------------------
(PID.TID 0000.0001) //     64 ------------------------------------------------------------------------
(PID.TID 0000.0001) //     63 ------------------------------------------------------------------------
(PID.TID 0000.0001) //     62 ------------------------------------------------------------------------
(PID.TID 0000.0001) //     61 ------------------------------------------------------------------------
(PID.TID 0000.0001) //     60 ------------------------------------------------------------------------
(PID.TID 0000.0001) //     59 ------------------------------------------------------------------------
(PID.TID 0000.0001) //     58 ------------------------------------------------------------------------
(PID.TID 0000.0001) //     57 ------------------------------------------------------------------------
(PID.TID 0000.0001) //     56 ------------------------------------------------------------------------
(PID.TID 0000.0001) //     55 ------------------------------------------------------------------------
(PID.TID 0000.0001) //     54 ------------------------------------------------------------------------
(PID.TID 0000.0001) //     53 ------------------------------------------------------------------------
(PID.TID 0000.0001) //     52 ------------------------------------------------------------------------
(PID.TID 0000.0001) //     51 ------------------------------------------------------------------------
(PID.TID 0000.0001) //     50 ------------------------------------------------------------------------
(PID.TID 0000.0001) //     49 ------------------------------------------------------------------------
(PID.TID 0000.0001) //     48 ------------------------------------------------------------------------
(PID.TID 0000.0001) //     47 ------------------------------------------------------------------------
(PID.TID 0000.0001) //     46 ------------------------------------------------------------------------
(PID.TID 0000.0001) //     45 ------------------------------------------------------------------------
(PID.TID 0000.0001) //     44 ------------------------------------------------------------------------
(PID.TID 0000.0001) //     43 ------------------------------------------------------------------------
(PID.TID 0000.0001) //     42 ------------------------------------------------------------------------
(PID.TID 0000.0001) //     41 ------------------------------------------------------------------------
(PID.TID 0000.0001) //     40 ------------------------------------------------------------------------
(PID.TID 0000.0001) //     39 ------------------------------------------------------------------------
(PID.TID 0000.0001) //     38 ------------------------------------------------------------------------
(PID.TID 0000.0001) //     37 ------------------------------------------------------------------------
(PID.TID 0000.0001) //     36 ------------------------------------------------------------------------
(PID.TID 0000.0001) //     35 ------------------------------------------------------------------------
(PID.TID 0000.0001) //     34 ------------------------------------------------------------------------
(PID.TID 0000.0001) //     33 ------------------------------------------------------------------------
(PID.TID 0000.0001) //     32 ------------------------------------------------------------------------
(PID.TID 0000.0001) //     31 ------------------------------------------------------------------------
(PID.TID 0000.0001) //     34 ------------------------------------------------------------------------
(PID.TID 0000.0001) //     33 ------------------------------------------------------------------------
(PID.TID 0000.0001) //     32 ------------------------------------------------------------------------
(PID.TID 0000.0001) //     31 ------------------------------------------------------------------------
(PID.TID 0000.0001) //     30 ------------------------------------------------------------------------
(PID.TID 0000.0001) //     29 ------------------------------------------------------------------------
(PID.TID 0000.0001) //     28 ------------------------------------------------------------------------
(PID.TID 0000.0001) //     27 ------------------------------------------------------------------------
(PID.TID 0000.0001) //     26 ------------------------------------------------------------------------
(PID.TID 0000.0001) //     25 ------------------------------------------------------------------------
(PID.TID 0000.0001) //     24 ------------------------------------------------------------------------
(PID.TID 0000.0001) //     23 ------------------------------------------------------------------------
(PID.TID 0000.0001) //     22 ------------------------------------------------------------------------
(PID.TID 0000.0001) //     21 ------------------------------------------------------------------------
(PID.TID 0000.0001) //     20 ------------------------------------------------------------------------
(PID.TID 0000.0001) //     19 ------------------------------------------------------------------------
(PID.TID 0000.0001) //     18 ------------------------------------------------------------------------
(PID.TID 0000.0001) //     17 ------------------------------------------------------------------------
(PID.TID 0000.0001) //     16 ------------------------------------------------------------------------
(PID.TID 0000.0001) //     15 ------------------------------------------------------------------------
(PID.TID 0000.0001) //     14 ------------------------------------------------------------------------
(PID.TID 0000.0001) //     13 ------------------------------------------------------------------------
(PID.TID 0000.0001) //     12 ------------------------------------------------------------------------
(PID.TID 0000.0001) //     11 ------------------------------------------------------------------------
(PID.TID 0000.0001) //     10 ------------------------------------------------------------------------
(PID.TID 0000.0001) //      9 ------------------------------------------------------------------------
(PID.TID 0000.0001) //      8 ------------------------------------------------------------------------
(PID.TID 0000.0001) //      7 ------------------------------------------------------------------------
(PID.TID 0000.0001) //      6 ------------------------------------------------------------------------
(PID.TID 0000.0001) //      5 ------------------------------------------------------------------------
(PID.TID 0000.0001) //      4 ------------------------------------------------------------------------
(PID.TID 0000.0001) //      3 ------------------------------------------------------------------------
(PID.TID 0000.0001) //      2 ------------------------------------------------------------------------
(PID.TID 0000.0001) //      1 ------------------------------------------------------------------------
(PID.TID 0000.0001) //      0 ------------------------------------------------------------------------
(PID.TID 0000.0001) //     -1 ------------------------------------------------------------------------
(PID.TID 0000.0001) // =======================================================
(PID.TID 0000.0001) // END OF FIELD                                          =
(PID.TID 0000.0001) // =======================================================
(PID.TID 0000.0001) 
(PID.TID 0000.0001) // =======================================================
(PID.TID 0000.0001) // Field Model Ro_surf (ini_masks_etc) at iteration          1
(PID.TID 0000.0001) // CMIN =          1.942890293094024E-16
(PID.TID 0000.0001) // CMAX =          1.942890293094024E-16
(PID.TID 0000.0001) // CINT =          0.000000000000000E+00
(PID.TID 0000.0001) // SYMBOLS (CMIN->CMAX): -abcdefghijklmnopqrstuvwxyz+
(PID.TID 0000.0001) //                  0.0: .
(PID.TID 0000.0001) // RANGE I (Lo:Hi:Step):(  -1:  66:   1)
(PID.TID 0000.0001) // RANGE J (Lo:Hi:Step):(  66:  -1:  -1)
(PID.TID 0000.0001) // RANGE K (Lo:Hi:Step):(   1:   1:   1)
(PID.TID 0000.0001) // =======================================================
(PID.TID 0000.0001) K =   1
(PID.TID 0000.0001) //                I=8       I=18      I=28      I=34      I=44      I=54      I=64
(PID.TID 0000.0001) // |--J--|*01234567|901234567|901234567|901234123|567890123|567890123|567890123|56
(PID.TID 0000.0001) //     66 ------------------------------------------------------------------------
(PID.TID 0000.0001) //     65 ------------------------------------------------------------------------
(PID.TID 0000.0001) //     64 ------------------------------------------------------------------------
(PID.TID 0000.0001) //     63 ------------------------------------------------------------------------
(PID.TID 0000.0001) //     62 ------------------------------------------------------------------------
(PID.TID 0000.0001) //     61 ------------------------------------------------------------------------
(PID.TID 0000.0001) //     60 ------------------------------------------------------------------------
(PID.TID 0000.0001) //     59 ------------------------------------------------------------------------
(PID.TID 0000.0001) //     58 ------------------------------------------------------------------------
(PID.TID 0000.0001) //     57 ------------------------------------------------------------------------
(PID.TID 0000.0001) //     56 ------------------------------------------------------------------------
(PID.TID 0000.0001) //     55 ------------------------------------------------------------------------
(PID.TID 0000.0001) //     54 ------------------------------------------------------------------------
(PID.TID 0000.0001) //     53 ------------------------------------------------------------------------
(PID.TID 0000.0001) //     52 ------------------------------------------------------------------------
(PID.TID 0000.0001) //     51 ------------------------------------------------------------------------
(PID.TID 0000.0001) //     50 ------------------------------------------------------------------------
(PID.TID 0000.0001) //     49 ------------------------------------------------------------------------
(PID.TID 0000.0001) //     48 ------------------------------------------------------------------------
(PID.TID 0000.0001) //     47 ------------------------------------------------------------------------
(PID.TID 0000.0001) //     46 ------------------------------------------------------------------------
(PID.TID 0000.0001) //     45 ------------------------------------------------------------------------
(PID.TID 0000.0001) //     44 ------------------------------------------------------------------------
(PID.TID 0000.0001) //     43 ------------------------------------------------------------------------
(PID.TID 0000.0001) //     42 ------------------------------------------------------------------------
(PID.TID 0000.0001) //     41 ------------------------------------------------------------------------
(PID.TID 0000.0001) //     40 ------------------------------------------------------------------------
(PID.TID 0000.0001) //     39 ------------------------------------------------------------------------
(PID.TID 0000.0001) //     38 ------------------------------------------------------------------------
(PID.TID 0000.0001) //     37 ------------------------------------------------------------------------
(PID.TID 0000.0001) //     36 ------------------------------------------------------------------------
(PID.TID 0000.0001) //     35 ------------------------------------------------------------------------
(PID.TID 0000.0001) //     34 ------------------------------------------------------------------------
(PID.TID 0000.0001) //     33 ------------------------------------------------------------------------
(PID.TID 0000.0001) //     32 ------------------------------------------------------------------------
(PID.TID 0000.0001) //     31 ------------------------------------------------------------------------
(PID.TID 0000.0001) //     34 ------------------------------------------------------------------------
(PID.TID 0000.0001) //     33 ------------------------------------------------------------------------
(PID.TID 0000.0001) //     32 ------------------------------------------------------------------------
(PID.TID 0000.0001) //     31 ------------------------------------------------------------------------
(PID.TID 0000.0001) //     30 ------------------------------------------------------------------------
(PID.TID 0000.0001) //     29 ------------------------------------------------------------------------
(PID.TID 0000.0001) //     28 ------------------------------------------------------------------------
(PID.TID 0000.0001) //     27 ------------------------------------------------------------------------
(PID.TID 0000.0001) //     26 ------------------------------------------------------------------------
(PID.TID 0000.0001) //     25 ------------------------------------------------------------------------
(PID.TID 0000.0001) //     24 ------------------------------------------------------------------------
(PID.TID 0000.0001) //     23 ------------------------------------------------------------------------
(PID.TID 0000.0001) //     22 ------------------------------------------------------------------------
(PID.TID 0000.0001) //     21 ------------------------------------------------------------------------
(PID.TID 0000.0001) //     20 ------------------------------------------------------------------------
(PID.TID 0000.0001) //     19 ------------------------------------------------------------------------
(PID.TID 0000.0001) //     18 ------------------------------------------------------------------------
(PID.TID 0000.0001) //     17 ------------------------------------------------------------------------
(PID.TID 0000.0001) //     16 ------------------------------------------------------------------------
(PID.TID 0000.0001) //     15 ------------------------------------------------------------------------
(PID.TID 0000.0001) //     14 ------------------------------------------------------------------------
(PID.TID 0000.0001) //     13 ------------------------------------------------------------------------
(PID.TID 0000.0001) //     12 ------------------------------------------------------------------------
(PID.TID 0000.0001) //     11 ------------------------------------------------------------------------
(PID.TID 0000.0001) //     10 ------------------------------------------------------------------------
(PID.TID 0000.0001) //      9 ------------------------------------------------------------------------
(PID.TID 0000.0001) //      8 ------------------------------------------------------------------------
(PID.TID 0000.0001) //      7 ------------------------------------------------------------------------
(PID.TID 0000.0001) //      6 ------------------------------------------------------------------------
(PID.TID 0000.0001) //      5 ------------------------------------------------------------------------
(PID.TID 0000.0001) //      4 ------------------------------------------------------------------------
(PID.TID 0000.0001) //      3 ------------------------------------------------------------------------
(PID.TID 0000.0001) //      2 ------------------------------------------------------------------------
(PID.TID 0000.0001) //      1 ------------------------------------------------------------------------
(PID.TID 0000.0001) //      0 ------------------------------------------------------------------------
(PID.TID 0000.0001) //     -1 ------------------------------------------------------------------------
(PID.TID 0000.0001) // =======================================================
(PID.TID 0000.0001) // END OF FIELD                                          =
(PID.TID 0000.0001) // =======================================================
(PID.TID 0000.0001) 
(PID.TID 0000.0001) // =======================================================
(PID.TID 0000.0001) // Field hFacC at iteration          1
(PID.TID 0000.0001) // CMIN =          1.000000000000000E+00
(PID.TID 0000.0001) // CMAX =          1.000000000000000E+00
(PID.TID 0000.0001) // CINT =          0.000000000000000E+00
(PID.TID 0000.0001) // SYMBOLS (CMIN->CMAX): -abcdefghijklmnopqrstuvwxyz+
(PID.TID 0000.0001) //                  0.0: .
(PID.TID 0000.0001) // RANGE I (Lo:Hi:Step):(  -1:  66:   1)
(PID.TID 0000.0001) // RANGE J (Lo:Hi:Step):(  66:  -1:  -1)
(PID.TID 0000.0001) // RANGE K (Lo:Hi:Step):(   1:   1:   1)
(PID.TID 0000.0001) // =======================================================
(PID.TID 0000.0001) K =   1
(PID.TID 0000.0001) //                I=8       I=18      I=28      I=34      I=44      I=54      I=64
(PID.TID 0000.0001) // |--J--|*01234567|901234567|901234567|901234123|567890123|567890123|567890123|56
(PID.TID 0000.0001) //     66 ------------------------------------------------------------------------
(PID.TID 0000.0001) //     65 ------------------------------------------------------------------------
(PID.TID 0000.0001) //     64 ------------------------------------------------------------------------
(PID.TID 0000.0001) //     63 ------------------------------------------------------------------------
(PID.TID 0000.0001) //     62 ------------------------------------------------------------------------
(PID.TID 0000.0001) //     61 ------------------------------------------------------------------------
(PID.TID 0000.0001) //     60 ------------------------------------------------------------------------
(PID.TID 0000.0001) //     59 ------------------------------------------------------------------------
(PID.TID 0000.0001) //     58 ------------------------------------------------------------------------
(PID.TID 0000.0001) //     57 ------------------------------------------------------------------------
(PID.TID 0000.0001) //     56 ------------------------------------------------------------------------
(PID.TID 0000.0001) //     55 ------------------------------------------------------------------------
(PID.TID 0000.0001) //     54 ------------------------------------------------------------------------
(PID.TID 0000.0001) //     53 ------------------------------------------------------------------------
(PID.TID 0000.0001) //     52 ------------------------------------------------------------------------
(PID.TID 0000.0001) //     51 ------------------------------------------------------------------------
(PID.TID 0000.0001) //     50 ------------------------------------------------------------------------
(PID.TID 0000.0001) //     49 ------------------------------------------------------------------------
(PID.TID 0000.0001) //     48 ------------------------------------------------------------------------
(PID.TID 0000.0001) //     47 ------------------------------------------------------------------------
(PID.TID 0000.0001) //     46 ------------------------------------------------------------------------
(PID.TID 0000.0001) //     45 ------------------------------------------------------------------------
(PID.TID 0000.0001) //     44 ------------------------------------------------------------------------
(PID.TID 0000.0001) //     43 ------------------------------------------------------------------------
(PID.TID 0000.0001) //     42 ------------------------------------------------------------------------
(PID.TID 0000.0001) //     41 ------------------------------------------------------------------------
(PID.TID 0000.0001) //     40 ------------------------------------------------------------------------
(PID.TID 0000.0001) //     39 ------------------------------------------------------------------------
(PID.TID 0000.0001) //     38 ------------------------------------------------------------------------
(PID.TID 0000.0001) //     37 ------------------------------------------------------------------------
(PID.TID 0000.0001) //     36 ------------------------------------------------------------------------
(PID.TID 0000.0001) //     35 ------------------------------------------------------------------------
(PID.TID 0000.0001) //     34 ------------------------------------------------------------------------
(PID.TID 0000.0001) //     33 ------------------------------------------------------------------------
(PID.TID 0000.0001) //     32 ------------------------------------------------------------------------
(PID.TID 0000.0001) //     31 ------------------------------------------------------------------------
(PID.TID 0000.0001) //     34 ------------------------------------------------------------------------
(PID.TID 0000.0001) //     33 ------------------------------------------------------------------------
(PID.TID 0000.0001) //     32 ------------------------------------------------------------------------
(PID.TID 0000.0001) //     31 ------------------------------------------------------------------------
(PID.TID 0000.0001) //     30 ------------------------------------------------------------------------
(PID.TID 0000.0001) //     29 ------------------------------------------------------------------------
(PID.TID 0000.0001) //     28 ------------------------------------------------------------------------
(PID.TID 0000.0001) //     27 ------------------------------------------------------------------------
(PID.TID 0000.0001) //     26 ------------------------------------------------------------------------
(PID.TID 0000.0001) //     25 ------------------------------------------------------------------------
(PID.TID 0000.0001) //     24 ------------------------------------------------------------------------
(PID.TID 0000.0001) //     23 ------------------------------------------------------------------------
(PID.TID 0000.0001) //     22 ------------------------------------------------------------------------
(PID.TID 0000.0001) //     21 ------------------------------------------------------------------------
(PID.TID 0000.0001) //     20 ------------------------------------------------------------------------
(PID.TID 0000.0001) //     19 ------------------------------------------------------------------------
(PID.TID 0000.0001) //     18 ------------------------------------------------------------------------
(PID.TID 0000.0001) //     17 ------------------------------------------------------------------------
(PID.TID 0000.0001) //     16 ------------------------------------------------------------------------
(PID.TID 0000.0001) //     15 ------------------------------------------------------------------------
(PID.TID 0000.0001) //     14 ------------------------------------------------------------------------
(PID.TID 0000.0001) //     13 ------------------------------------------------------------------------
(PID.TID 0000.0001) //     12 ------------------------------------------------------------------------
(PID.TID 0000.0001) //     11 ------------------------------------------------------------------------
(PID.TID 0000.0001) //     10 ------------------------------------------------------------------------
(PID.TID 0000.0001) //      9 ------------------------------------------------------------------------
(PID.TID 0000.0001) //      8 ------------------------------------------------------------------------
(PID.TID 0000.0001) //      7 ------------------------------------------------------------------------
(PID.TID 0000.0001) //      6 ------------------------------------------------------------------------
(PID.TID 0000.0001) //      5 ------------------------------------------------------------------------
(PID.TID 0000.0001) //      4 ------------------------------------------------------------------------
(PID.TID 0000.0001) //      3 ------------------------------------------------------------------------
(PID.TID 0000.0001) //      2 ------------------------------------------------------------------------
(PID.TID 0000.0001) //      1 ------------------------------------------------------------------------
(PID.TID 0000.0001) //      0 ------------------------------------------------------------------------
(PID.TID 0000.0001) //     -1 ------------------------------------------------------------------------
(PID.TID 0000.0001) // =======================================================
(PID.TID 0000.0001) // END OF FIELD                                          =
(PID.TID 0000.0001) // =======================================================
(PID.TID 0000.0001) 
(PID.TID 0000.0001) // =======================================================
(PID.TID 0000.0001) // Field hFacW at iteration          1
(PID.TID 0000.0001) // CMIN =          1.000000000000000E+00
(PID.TID 0000.0001) // CMAX =          1.000000000000000E+00
(PID.TID 0000.0001) // CINT =          0.000000000000000E+00
(PID.TID 0000.0001) // SYMBOLS (CMIN->CMAX): -abcdefghijklmnopqrstuvwxyz+
(PID.TID 0000.0001) //                  0.0: .
(PID.TID 0000.0001) // RANGE I (Lo:Hi:Step):(  -1:  66:   1)
(PID.TID 0000.0001) // RANGE J (Lo:Hi:Step):(  66:  -1:  -1)
(PID.TID 0000.0001) // RANGE K (Lo:Hi:Step):(   1:   1:   1)
(PID.TID 0000.0001) // =======================================================
(PID.TID 0000.0001) K =   1
(PID.TID 0000.0001) //                I=8       I=18      I=28      I=34      I=44      I=54      I=64
(PID.TID 0000.0001) // |--J--|*01234567|901234567|901234567|901234123|567890123|567890123|567890123|56
(PID.TID 0000.0001) //     66 ------------------------------------------------------------------------
(PID.TID 0000.0001) //     65 ------------------------------------------------------------------------
(PID.TID 0000.0001) //     64 ------------------------------------------------------------------------
(PID.TID 0000.0001) //     63 ------------------------------------------------------------------------
(PID.TID 0000.0001) //     62 ------------------------------------------------------------------------
(PID.TID 0000.0001) //     61 ------------------------------------------------------------------------
(PID.TID 0000.0001) //     60 ------------------------------------------------------------------------
(PID.TID 0000.0001) //     59 ------------------------------------------------------------------------
(PID.TID 0000.0001) //     58 ------------------------------------------------------------------------
(PID.TID 0000.0001) //     57 ------------------------------------------------------------------------
(PID.TID 0000.0001) //     56 ------------------------------------------------------------------------
(PID.TID 0000.0001) //     55 ------------------------------------------------------------------------
(PID.TID 0000.0001) //     54 ------------------------------------------------------------------------
(PID.TID 0000.0001) //     53 ------------------------------------------------------------------------
(PID.TID 0000.0001) //     52 ------------------------------------------------------------------------
(PID.TID 0000.0001) //     51 ------------------------------------------------------------------------
(PID.TID 0000.0001) //     50 ------------------------------------------------------------------------
(PID.TID 0000.0001) //     49 ------------------------------------------------------------------------
(PID.TID 0000.0001) //     48 ------------------------------------------------------------------------
(PID.TID 0000.0001) //     47 ------------------------------------------------------------------------
(PID.TID 0000.0001) //     46 ------------------------------------------------------------------------
(PID.TID 0000.0001) //     45 ------------------------------------------------------------------------
(PID.TID 0000.0001) //     44 ------------------------------------------------------------------------
(PID.TID 0000.0001) //     43 ------------------------------------------------------------------------
(PID.TID 0000.0001) //     42 ------------------------------------------------------------------------
(PID.TID 0000.0001) //     41 ------------------------------------------------------------------------
(PID.TID 0000.0001) //     40 ------------------------------------------------------------------------
(PID.TID 0000.0001) //     39 ------------------------------------------------------------------------
(PID.TID 0000.0001) //     38 ------------------------------------------------------------------------
(PID.TID 0000.0001) //     37 ------------------------------------------------------------------------
(PID.TID 0000.0001) //     36 ------------------------------------------------------------------------
(PID.TID 0000.0001) //     35 ------------------------------------------------------------------------
(PID.TID 0000.0001) //     34 ------------------------------------------------------------------------
(PID.TID 0000.0001) //     33 ------------------------------------------------------------------------
(PID.TID 0000.0001) //     32 ------------------------------------------------------------------------
(PID.TID 0000.0001) //     31 ------------------------------------------------------------------------
(PID.TID 0000.0001) //     34 ------------------------------------------------------------------------
(PID.TID 0000.0001) //     33 ------------------------------------------------------------------------
(PID.TID 0000.0001) //     32 ------------------------------------------------------------------------
(PID.TID 0000.0001) //     31 ------------------------------------------------------------------------
(PID.TID 0000.0001) //     30 ------------------------------------------------------------------------
(PID.TID 0000.0001) //     29 ------------------------------------------------------------------------
(PID.TID 0000.0001) //     28 ------------------------------------------------------------------------
(PID.TID 0000.0001) //     27 ------------------------------------------------------------------------
(PID.TID 0000.0001) //     26 ------------------------------------------------------------------------
(PID.TID 0000.0001) //     25 ------------------------------------------------------------------------
(PID.TID 0000.0001) //     24 ------------------------------------------------------------------------
(PID.TID 0000.0001) //     23 ------------------------------------------------------------------------
(PID.TID 0000.0001) //     22 ------------------------------------------------------------------------
(PID.TID 0000.0001) //     21 ------------------------------------------------------------------------
(PID.TID 0000.0001) //     20 ------------------------------------------------------------------------
(PID.TID 0000.0001) //     19 ------------------------------------------------------------------------
(PID.TID 0000.0001) //     18 ------------------------------------------------------------------------
(PID.TID 0000.0001) //     17 ------------------------------------------------------------------------
(PID.TID 0000.0001) //     16 ------------------------------------------------------------------------
(PID.TID 0000.0001) //     15 ------------------------------------------------------------------------
(PID.TID 0000.0001) //     14 ------------------------------------------------------------------------
(PID.TID 0000.0001) //     13 ------------------------------------------------------------------------
(PID.TID 0000.0001) //     12 ------------------------------------------------------------------------
(PID.TID 0000.0001) //     11 ------------------------------------------------------------------------
(PID.TID 0000.0001) //     10 ------------------------------------------------------------------------
(PID.TID 0000.0001) //      9 ------------------------------------------------------------------------
(PID.TID 0000.0001) //      8 ------------------------------------------------------------------------
(PID.TID 0000.0001) //      7 ------------------------------------------------------------------------
(PID.TID 0000.0001) //      6 ------------------------------------------------------------------------
(PID.TID 0000.0001) //      5 ------------------------------------------------------------------------
(PID.TID 0000.0001) //      4 ------------------------------------------------------------------------
(PID.TID 0000.0001) //      3 ------------------------------------------------------------------------
(PID.TID 0000.0001) //      2 ------------------------------------------------------------------------
(PID.TID 0000.0001) //      1 ------------------------------------------------------------------------
(PID.TID 0000.0001) //      0 ------------------------------------------------------------------------
(PID.TID 0000.0001) //     -1 ------------------------------------------------------------------------
(PID.TID 0000.0001) // =======================================================
(PID.TID 0000.0001) // END OF FIELD                                          =
(PID.TID 0000.0001) // =======================================================
(PID.TID 0000.0001) 
(PID.TID 0000.0001) // =======================================================
(PID.TID 0000.0001) // Field hFacS at iteration          1
(PID.TID 0000.0001) // CMIN =          1.000000000000000E+00
(PID.TID 0000.0001) // CMAX =          1.000000000000000E+00
(PID.TID 0000.0001) // CINT =          0.000000000000000E+00
(PID.TID 0000.0001) // SYMBOLS (CMIN->CMAX): -abcdefghijklmnopqrstuvwxyz+
(PID.TID 0000.0001) //                  0.0: .
(PID.TID 0000.0001) // RANGE I (Lo:Hi:Step):(  -1:  66:   1)
(PID.TID 0000.0001) // RANGE J (Lo:Hi:Step):(  66:  -1:  -1)
(PID.TID 0000.0001) // RANGE K (Lo:Hi:Step):(   1:   1:   1)
(PID.TID 0000.0001) // =======================================================
(PID.TID 0000.0001) K =   1
(PID.TID 0000.0001) //                I=8       I=18      I=28      I=34      I=44      I=54      I=64
(PID.TID 0000.0001) // |--J--|*01234567|901234567|901234567|901234123|567890123|567890123|567890123|56
(PID.TID 0000.0001) //     66 ------------------------------------------------------------------------
(PID.TID 0000.0001) //     65 ------------------------------------------------------------------------
(PID.TID 0000.0001) //     64 ------------------------------------------------------------------------
(PID.TID 0000.0001) //     63 ------------------------------------------------------------------------
(PID.TID 0000.0001) //     62 ------------------------------------------------------------------------
(PID.TID 0000.0001) //     61 ------------------------------------------------------------------------
(PID.TID 0000.0001) //     60 ------------------------------------------------------------------------
(PID.TID 0000.0001) //     59 ------------------------------------------------------------------------
(PID.TID 0000.0001) //     58 ------------------------------------------------------------------------
(PID.TID 0000.0001) //     57 ------------------------------------------------------------------------
(PID.TID 0000.0001) //     56 ------------------------------------------------------------------------
(PID.TID 0000.0001) //     55 ------------------------------------------------------------------------
(PID.TID 0000.0001) //     54 ------------------------------------------------------------------------
(PID.TID 0000.0001) //     53 ------------------------------------------------------------------------
(PID.TID 0000.0001) //     52 ------------------------------------------------------------------------
(PID.TID 0000.0001) //     51 ------------------------------------------------------------------------
(PID.TID 0000.0001) //     50 ------------------------------------------------------------------------
(PID.TID 0000.0001) //     49 ------------------------------------------------------------------------
(PID.TID 0000.0001) //     48 ------------------------------------------------------------------------
(PID.TID 0000.0001) //     47 ------------------------------------------------------------------------
(PID.TID 0000.0001) //     46 ------------------------------------------------------------------------
(PID.TID 0000.0001) //     45 ------------------------------------------------------------------------
(PID.TID 0000.0001) //     44 ------------------------------------------------------------------------
(PID.TID 0000.0001) //     43 ------------------------------------------------------------------------
(PID.TID 0000.0001) //     42 ------------------------------------------------------------------------
(PID.TID 0000.0001) //     41 ------------------------------------------------------------------------
(PID.TID 0000.0001) //     40 ------------------------------------------------------------------------
(PID.TID 0000.0001) //     39 ------------------------------------------------------------------------
(PID.TID 0000.0001) //     38 ------------------------------------------------------------------------
(PID.TID 0000.0001) //     37 ------------------------------------------------------------------------
(PID.TID 0000.0001) //     36 ------------------------------------------------------------------------
(PID.TID 0000.0001) //     35 ------------------------------------------------------------------------
(PID.TID 0000.0001) //     34 ------------------------------------------------------------------------
(PID.TID 0000.0001) //     33 ------------------------------------------------------------------------
(PID.TID 0000.0001) //     32 ------------------------------------------------------------------------
(PID.TID 0000.0001) //     31 ------------------------------------------------------------------------
(PID.TID 0000.0001) //     34 ------------------------------------------------------------------------
(PID.TID 0000.0001) //     33 ------------------------------------------------------------------------
(PID.TID 0000.0001) //     32 ------------------------------------------------------------------------
(PID.TID 0000.0001) //     31 ------------------------------------------------------------------------
(PID.TID 0000.0001) //     30 ------------------------------------------------------------------------
(PID.TID 0000.0001) //     29 ------------------------------------------------------------------------
(PID.TID 0000.0001) //     28 ------------------------------------------------------------------------
(PID.TID 0000.0001) //     27 ------------------------------------------------------------------------
(PID.TID 0000.0001) //     26 ------------------------------------------------------------------------
(PID.TID 0000.0001) //     25 ------------------------------------------------------------------------
(PID.TID 0000.0001) //     24 ------------------------------------------------------------------------
(PID.TID 0000.0001) //     23 ------------------------------------------------------------------------
(PID.TID 0000.0001) //     22 ------------------------------------------------------------------------
(PID.TID 0000.0001) //     21 ------------------------------------------------------------------------
(PID.TID 0000.0001) //     20 ------------------------------------------------------------------------
(PID.TID 0000.0001) //     19 ------------------------------------------------------------------------
(PID.TID 0000.0001) //     18 ------------------------------------------------------------------------
(PID.TID 0000.0001) //     17 ------------------------------------------------------------------------
(PID.TID 0000.0001) //     16 ------------------------------------------------------------------------
(PID.TID 0000.0001) //     15 ------------------------------------------------------------------------
(PID.TID 0000.0001) //     14 ------------------------------------------------------------------------
(PID.TID 0000.0001) //     13 ------------------------------------------------------------------------
(PID.TID 0000.0001) //     12 ------------------------------------------------------------------------
(PID.TID 0000.0001) //     11 ------------------------------------------------------------------------
(PID.TID 0000.0001) //     10 ------------------------------------------------------------------------
(PID.TID 0000.0001) //      9 ------------------------------------------------------------------------
(PID.TID 0000.0001) //      8 ------------------------------------------------------------------------
(PID.TID 0000.0001) //      7 ------------------------------------------------------------------------
(PID.TID 0000.0001) //      6 ------------------------------------------------------------------------
(PID.TID 0000.0001) //      5 ------------------------------------------------------------------------
(PID.TID 0000.0001) //      4 ------------------------------------------------------------------------
(PID.TID 0000.0001) //      3 ------------------------------------------------------------------------
(PID.TID 0000.0001) //      2 ------------------------------------------------------------------------
(PID.TID 0000.0001) //      1 ------------------------------------------------------------------------
(PID.TID 0000.0001) //      0 ------------------------------------------------------------------------
(PID.TID 0000.0001) //     -1 ------------------------------------------------------------------------
(PID.TID 0000.0001) // =======================================================
(PID.TID 0000.0001) // END OF FIELD                                          =
(PID.TID 0000.0001) // =======================================================
(PID.TID 0000.0001) 
(PID.TID 0000.0001)  PACKAGES_BOOT: opening data.pkg
(PID.TID 0000.0001)  OPEN_COPY_DATA_FILE: opening file data.pkg
(PID.TID 0000.0001) // =======================================================
(PID.TID 0000.0001) // Parameter file "data.pkg"
(PID.TID 0000.0001) // =======================================================
(PID.TID 0000.0001) ># Packages
(PID.TID 0000.0001) > &PACKAGES
(PID.TID 0000.0001) > &
(PID.TID 0000.0001) 
(PID.TID 0000.0001)  PACKAGES_BOOT: finished reading data.pkg
(PID.TID 0000.0001) 
(PID.TID 0000.0001) // ===================================
(PID.TID 0000.0001) // GAD parameters :
(PID.TID 0000.0001) // ===================================
(PID.TID 0000.0001) tempAdvScheme =   /* Temp. advection scheme selector */
(PID.TID 0000.0001)                       2
(PID.TID 0000.0001)     ;
(PID.TID 0000.0001) tempMultiDimAdvec =   /* use Muti-Dim Advec method for Temp */
(PID.TID 0000.0001)                   F
(PID.TID 0000.0001)     ;
(PID.TID 0000.0001) tempAdamsBashforth =   /* use Adams-Bashforth time-stepping for Temp */
(PID.TID 0000.0001)                   T
(PID.TID 0000.0001)     ;
(PID.TID 0000.0001) saltAdvScheme =   /* Salt. advection scheme selector */
(PID.TID 0000.0001)                       2
(PID.TID 0000.0001)     ;
(PID.TID 0000.0001) saltMultiDimAdvec =   /* use Muti-Dim Advec method for Salt */
(PID.TID 0000.0001)                   F
(PID.TID 0000.0001)     ;
(PID.TID 0000.0001) saltAdamsBashforth =   /* use Adams-Bashforth time-stepping for Salt */
(PID.TID 0000.0001)                   T
(PID.TID 0000.0001)     ;
(PID.TID 0000.0001) // ===================================
(PID.TID 0000.0001) %MON fCori_max                    =   1.2500000000000E+03
(PID.TID 0000.0001) %MON fCori_min                    =   1.2500000000000E+03
(PID.TID 0000.0001) %MON fCori_mean                   =   1.2500000000000E+03
(PID.TID 0000.0001) %MON fCori_sd                     =   0.0000000000000E+00
(PID.TID 0000.0001) %MON fCoriG_max                   =   1.2500000000000E+03
(PID.TID 0000.0001) %MON fCoriG_min                   =   1.2500000000000E+03
(PID.TID 0000.0001) %MON fCoriG_mean                  =   1.2500000000000E+03
(PID.TID 0000.0001) %MON fCoriG_sd                    =   0.0000000000000E+00
(PID.TID 0000.0001) %MON fCoriCos_max                 =   0.0000000000000E+00
(PID.TID 0000.0001) %MON fCoriCos_min                 =   0.0000000000000E+00
(PID.TID 0000.0001) %MON fCoriCos_mean                =   0.0000000000000E+00
(PID.TID 0000.0001) %MON fCoriCos_sd                  =   0.0000000000000E+00
(PID.TID 0000.0001) // CG2D normalisation factor =          0.4999999999999998889776975E+00
(PID.TID 0000.0001) 
(PID.TID 0000.0001) // CG3D normalisation factor =          0.1000000000000000000000000E+02
(PID.TID 0000.0001) 
(PID.TID 0000.0001) CONFIG_CHECK: OK
(PID.TID 0000.0001) // =======================================================
(PID.TID 0000.0001) // Model configuration
(PID.TID 0000.0001) // =======================================================
(PID.TID 0000.0001) //
(PID.TID 0000.0001) // "Physical" paramters ( PARM01 in namelist )
(PID.TID 0000.0001) //
(PID.TID 0000.0001) buoyancyRelation = OCEANIC
(PID.TID 0000.0001) tRef =   /* Reference temperature profile ( oC or oK ) */
(PID.TID 0000.0001)    20 @  1.000000000000000E+00              /* K =  1: 20 */
(PID.TID 0000.0001)     ;
(PID.TID 0000.0001) sRef =   /* Reference salinity profile ( ppt ) */
(PID.TID 0000.0001)    20 @  3.500000000000000E+01              /* K =  1: 20 */
(PID.TID 0000.0001)     ;
(PID.TID 0000.0001) viscAh =   /* Lateral eddy viscosity ( m^2/s ) */
(PID.TID 0000.0001)                 1.000000000000000E+00
(PID.TID 0000.0001)     ;
(PID.TID 0000.0001) viscAh =   /* Lateral biharmonic viscosity ( m^4/s ) */
(PID.TID 0000.0001)                 0.000000000000000E+00
(PID.TID 0000.0001)     ;
(PID.TID 0000.0001) no_slip_sides =  /* Viscous BCs: No-slip sides */
(PID.TID 0000.0001)                   F
(PID.TID 0000.0001)     ;
(PID.TID 0000.0001) viscAr =   /* Vertical eddy viscosity ( units of r^2/s ) */
(PID.TID 0000.0001)                 1.000000000000000E+00
(PID.TID 0000.0001)     ;
(PID.TID 0000.0001) diffKhT =   /* Laplacian diffusion of heat laterally ( m^2/s ) */
(PID.TID 0000.0001)                 1.000000000000000E+00
(PID.TID 0000.0001)     ;
(PID.TID 0000.0001) diffK4T =   /* Bihaarmonic diffusion of heat laterally ( m^4/s ) */
(PID.TID 0000.0001)                 0.000000000000000E+00
(PID.TID 0000.0001)     ;
(PID.TID 0000.0001) diffKrT =   /* Laplacian diffusion of heat vertically ( m^2/s ) */
(PID.TID 0000.0001)                 1.000000000000000E+00
(PID.TID 0000.0001)     ;
(PID.TID 0000.0001) diffKhS =   /* Laplacian diffusion of salt laterally ( m^2/s ) */
(PID.TID 0000.0001)                 1.000000000000000E+00
(PID.TID 0000.0001)     ;
(PID.TID 0000.0001) diffK4S =   /* Bihaarmonic diffusion of salt laterally ( m^4/s ) */
(PID.TID 0000.0001)                 0.000000000000000E+00
(PID.TID 0000.0001)     ;
(PID.TID 0000.0001) diffKrS =   /* Laplacian diffusion of salt vertically ( m^2/s ) */
(PID.TID 0000.0001)                 1.000000000000000E+00
(PID.TID 0000.0001)     ;
(PID.TID 0000.0001)  Equation of State : eosType = LINEAR
(PID.TID 0000.0001) tAlpha =   /* Linear EOS thermal expansion coefficient ( 1/degree ) */
(PID.TID 0000.0001)                 1.000000000000000E+00
(PID.TID 0000.0001)     ;
(PID.TID 0000.0001) sBeta =   /* Linear EOS haline contraction coefficient ( 1/ppt ) */
(PID.TID 0000.0001)                 0.000000000000000E+00
(PID.TID 0000.0001)     ;
(PID.TID 0000.0001) rhonil =   /* Reference density ( kg/m^3 ) */
(PID.TID 0000.0001)                 1.000000000000000E+00
(PID.TID 0000.0001)     ;
(PID.TID 0000.0001) rhoConst =   /* Reference density ( kg/m^3 ) */
(PID.TID 0000.0001)                 1.000000000000000E+00
(PID.TID 0000.0001)     ;
(PID.TID 0000.0001) rhoConstFresh =   /* Reference density ( kg/m^3 ) */
(PID.TID 0000.0001)                 1.000000000000000E+00
(PID.TID 0000.0001)     ;
(PID.TID 0000.0001) gravity =   /* Gravitational acceleration ( m/s^2 ) */
(PID.TID 0000.0001)                 1.400000000000000E+08
(PID.TID 0000.0001)     ;
(PID.TID 0000.0001) gBaro =   /* Barotropic gravity ( m/s^2 ) */
(PID.TID 0000.0001)                 1.400000000000000E+08
(PID.TID 0000.0001)     ;
(PID.TID 0000.0001) rotationPeriod =   /* Rotation Period ( s ) */
(PID.TID 0000.0001)                 8.640000000000000E+04
(PID.TID 0000.0001)     ;
(PID.TID 0000.0001) omega =   /* Angular velocity ( rad/s ) */
(PID.TID 0000.0001)                 7.272205216643040E-05
(PID.TID 0000.0001)     ;
(PID.TID 0000.0001) f0 =   /* Reference coriolis parameter ( 1/s ) */
(PID.TID 0000.0001)                 1.250000000000000E+03
(PID.TID 0000.0001)     ;
(PID.TID 0000.0001) beta =   /* Beta ( 1/(m.s) ) */
(PID.TID 0000.0001)                 0.000000000000000E+00
(PID.TID 0000.0001)     ;
(PID.TID 0000.0001) freeSurfFac =   /* Implicit free surface factor */
(PID.TID 0000.0001)                 1.000000000000000E+00
(PID.TID 0000.0001)     ;
(PID.TID 0000.0001) implicitFreeSurface =   /* Implicit free surface on/off flag */
(PID.TID 0000.0001)                   T
(PID.TID 0000.0001)     ;
(PID.TID 0000.0001) rigidLid =   /* Rigid lid on/off flag */
(PID.TID 0000.0001)                   F
(PID.TID 0000.0001)     ;
(PID.TID 0000.0001) implicSurfPress =   /* Surface Pressure implicit factor (0-1)*/
(PID.TID 0000.0001)                 1.000000000000000E+00
(PID.TID 0000.0001)     ;
(PID.TID 0000.0001) implicDiv2Dflow =   /* Barot. Flow Div. implicit factor (0-1)*/
(PID.TID 0000.0001)                 1.000000000000000E+00
(PID.TID 0000.0001)     ;
(PID.TID 0000.0001) exactConserv =   /* Exact Volume Conservation on/off flag*/
(PID.TID 0000.0001)                   F
(PID.TID 0000.0001)     ;
(PID.TID 0000.0001) uniformLin_PhiSurf =   /* use uniform Bo_surf on/off flag*/
(PID.TID 0000.0001)                   T
(PID.TID 0000.0001)     ;
(PID.TID 0000.0001) nonlinFreeSurf =   /* Non-linear Free Surf. options (-1,0,1,2,3)*/
(PID.TID 0000.0001)                       0
(PID.TID 0000.0001)     ;
(PID.TID 0000.0001)      -1,0= Off ; 1,2,3= On, 2=+rescale gU,gV, 3=+update cg2d solv.
(PID.TID 0000.0001) hFacInf =   /* lower threshold for hFac (nonlinFreeSurf only)*/
(PID.TID 0000.0001)                 2.000000000000000E-01
(PID.TID 0000.0001)     ;
(PID.TID 0000.0001) hFacSup =   /* upper threshold for hFac (nonlinFreeSurf only)*/
(PID.TID 0000.0001)                 2.000000000000000E+00
(PID.TID 0000.0001)     ;
(PID.TID 0000.0001) select_rStar =   /* r* Coordinate options (not yet implemented)*/
(PID.TID 0000.0001)                       0
(PID.TID 0000.0001)     ;
(PID.TID 0000.0001) useRealFreshWaterFlux =   /* Real Fresh Water Flux on/off flag*/
(PID.TID 0000.0001)                   F
(PID.TID 0000.0001)     ;
(PID.TID 0000.0001) convertFW2Salt = /* convert F.W. Flux to Salt Flux (-1=use local S)(ppt)*/
(PID.TID 0000.0001)                 3.500000000000000E+01
(PID.TID 0000.0001)     ;
(PID.TID 0000.0001) multiDimAdvection =   /* enable/disable Multi-Dim Advection */
(PID.TID 0000.0001)                   T
(PID.TID 0000.0001)     ;
(PID.TID 0000.0001) staggerTimeStep =   /* Stagger time stepping on/off flag */
(PID.TID 0000.0001)                   F
(PID.TID 0000.0001)     ;
(PID.TID 0000.0001) momStepping =  /* Momentum equation on/off flag */
(PID.TID 0000.0001)                   T
(PID.TID 0000.0001)     ;
(PID.TID 0000.0001) momAdvection =  /* Momentum advection on/off flag */
(PID.TID 0000.0001)                   T
(PID.TID 0000.0001)     ;
(PID.TID 0000.0001) momViscosity =  /* Momentum viscosity on/off flag */
(PID.TID 0000.0001)                   T
(PID.TID 0000.0001)     ;
(PID.TID 0000.0001) useCoriolis =  /* Coriolis on/off flag */
(PID.TID 0000.0001)                   T
(PID.TID 0000.0001)     ;
(PID.TID 0000.0001) momForcing =  /* Momentum forcing on/off flag */
(PID.TID 0000.0001)                   T
(PID.TID 0000.0001)     ;
(PID.TID 0000.0001) momPressureForcing =  /* Momentum pressure term on/off flag */
(PID.TID 0000.0001)                   T
(PID.TID 0000.0001)     ;
(PID.TID 0000.0001) tempStepping =  /* Temperature equation on/off flag */
(PID.TID 0000.0001)                   T
(PID.TID 0000.0001)     ;
(PID.TID 0000.0001) tempAdvection=  /* Temperature advection on/off flag */
(PID.TID 0000.0001)                   T
(PID.TID 0000.0001)     ;
(PID.TID 0000.0001) tempForcing  =  /* Temperature forcing on/off flag */
(PID.TID 0000.0001)                   T
(PID.TID 0000.0001)     ;
(PID.TID 0000.0001) saltStepping =  /* Salinity equation on/off flag */
(PID.TID 0000.0001)                   T
(PID.TID 0000.0001)     ;
(PID.TID 0000.0001) saltAdvection=  /* Salinity advection on/off flag */
(PID.TID 0000.0001)                   T
(PID.TID 0000.0001)     ;
(PID.TID 0000.0001) saltForcing  =  /* Salinity forcing on/off flag */
(PID.TID 0000.0001)                   T
(PID.TID 0000.0001)     ;
(PID.TID 0000.0001) nonHydrostatic =  /* Non-Hydrostatic on/off flag */
(PID.TID 0000.0001)                   T
(PID.TID 0000.0001)     ;
(PID.TID 0000.0001) useCDscheme =  /* CD scheme on/off flag */
(PID.TID 0000.0001)                   F
(PID.TID 0000.0001)     ;
(PID.TID 0000.0001) useJamartWetPoints= /* Coriolis WetPoints method flag */
(PID.TID 0000.0001)                   F
(PID.TID 0000.0001)     ;
(PID.TID 0000.0001) //
(PID.TID 0000.0001) // Elliptic solver(s) paramters ( PARM02 in namelist )
(PID.TID 0000.0001) //
(PID.TID 0000.0001) cg2dMaxIters =   /* Upper limit on 2d con. grad iterations  */
(PID.TID 0000.0001)                    1000
(PID.TID 0000.0001)     ;
(PID.TID 0000.0001) cg2dChkResFreq =   /* 2d con. grad convergence test frequency */
(PID.TID 0000.0001)                       1
(PID.TID 0000.0001)     ;
(PID.TID 0000.0001) cg2dTargetResidual =   /* 2d con. grad target residual  */
(PID.TID 0000.0001)                 1.000000000000000E-09
(PID.TID 0000.0001)     ;
(PID.TID 0000.0001) //
(PID.TID 0000.0001) // Time stepping paramters ( PARM03 in namelist )
(PID.TID 0000.0001) //
(PID.TID 0000.0001) nIter0 =   /* Base timestep number  */
(PID.TID 0000.0001)                       0
(PID.TID 0000.0001)     ;
(PID.TID 0000.0001) nTimeSteps =   /* Number of timesteps */
(PID.TID 0000.0001)                      10
(PID.TID 0000.0001)     ;
(PID.TID 0000.0001) deltatTmom =   /* Momentum equation timestep ( s ) */
(PID.TID 0000.0001)                 2.000000000000000E-04
(PID.TID 0000.0001)     ;
(PID.TID 0000.0001) deltaTfreesurf =   /* FreeSurface equation timestep ( s ) */
(PID.TID 0000.0001)                 2.000000000000000E-04
(PID.TID 0000.0001)     ;
(PID.TID 0000.0001) deltatTtracer =   /* Tracer equation timestep ( s ) */
(PID.TID 0000.0001)                 2.000000000000000E-04
(PID.TID 0000.0001)     ;
(PID.TID 0000.0001) deltatTClock  =   /* Model clock timestep ( s ) */
(PID.TID 0000.0001)                 2.000000000000000E-04
(PID.TID 0000.0001)     ;
(PID.TID 0000.0001) cAdjFreq =   /* Convective adjustment interval ( s ) */
(PID.TID 0000.0001)                 0.000000000000000E+00
(PID.TID 0000.0001)     ;
(PID.TID 0000.0001) forcing_In_AB =   /* put T,S Forcing in Adams-Bash. stepping */
(PID.TID 0000.0001)                   T
(PID.TID 0000.0001)     ;
(PID.TID 0000.0001) abeps =   /* Adams-Bashforth stabilizing weight */
(PID.TID 0000.0001)                 1.000000000000000E-01
(PID.TID 0000.0001)     ;
(PID.TID 0000.0001) startTime =   /* Run start time ( s ). */
(PID.TID 0000.0001)                 0.000000000000000E+00
(PID.TID 0000.0001)     ;
(PID.TID 0000.0001) endTime =   /* Integration ending time ( s ). */
(PID.TID 0000.0001)                 2.000000000000000E-03
(PID.TID 0000.0001)     ;
(PID.TID 0000.0001) pChkPtFreq =   /* Permanent restart/checkpoint file interval ( s ). */
(PID.TID 0000.0001)                 0.000000000000000E+00
(PID.TID 0000.0001)     ;
(PID.TID 0000.0001) chkPtFreq =   /* Rolling restart/checkpoint file interval ( s ). */
(PID.TID 0000.0001)                 0.000000000000000E+00
(PID.TID 0000.0001)     ;
(PID.TID 0000.0001) dumpFreq =   /* Model state write out interval ( s ). */
(PID.TID 0000.0001)                 1.000000000000000E-01
(PID.TID 0000.0001)     ;
(PID.TID 0000.0001) externForcingPeriod =   /* forcing period (s) */
(PID.TID 0000.0001)                 0.000000000000000E+00
(PID.TID 0000.0001)     ;
(PID.TID 0000.0001) externForcingCycle =   /* period of the cyle (s). */
(PID.TID 0000.0001)                 0.000000000000000E+00
(PID.TID 0000.0001)     ;
(PID.TID 0000.0001) tauThetaClimRelax =   /* relaxation time scale (s) */
(PID.TID 0000.0001)                 0.000000000000000E+00
(PID.TID 0000.0001)     ;
(PID.TID 0000.0001) tauSaltClimRelax =   /* relaxation time scale (s) */
(PID.TID 0000.0001)                 0.000000000000000E+00
(PID.TID 0000.0001)     ;
(PID.TID 0000.0001) latBandClimRelax =   /* max. Lat. where relaxation */
(PID.TID 0000.0001)                 2.560000000000000E+02
(PID.TID 0000.0001)     ;
(PID.TID 0000.0001) //
(PID.TID 0000.0001) // Gridding paramters ( PARM04 in namelist )
(PID.TID 0000.0001) //
(PID.TID 0000.0001) usingCartesianGrid =   /* Cartesian coordinates flag ( True / False ) */
(PID.TID 0000.0001)                   T
(PID.TID 0000.0001)     ;
(PID.TID 0000.0001) usingSphericalPolarGrid =   /* Spherical coordinates flag ( True / False ) */
(PID.TID 0000.0001)                   F
(PID.TID 0000.0001)     ;
(PID.TID 0000.0001) groundAtK1 =   /* Lower Boundary (ground) at the surface(k=1) ( T / F ) */
(PID.TID 0000.0001)                   F
(PID.TID 0000.0001)     ;
(PID.TID 0000.0001) Ro_SeaLevel =   /* r(1) ( units of r ) */
(PID.TID 0000.0001)                 0.000000000000000E+00
(PID.TID 0000.0001)     ;
(PID.TID 0000.0001) rkFac =   /* minus Vertical index orientation  */
(PID.TID 0000.0001)                 1.000000000000000E+00
(PID.TID 0000.0001)     ;
(PID.TID 0000.0001) horiVertRatio =   /* Ratio on units : Horiz - Vertical */
(PID.TID 0000.0001)                 1.000000000000000E+00
(PID.TID 0000.0001)     ;
(PID.TID 0000.0001) drC =   /* C spacing ( units of r ) */
(PID.TID 0000.0001)                 5.000000000000000E-02,      /* K =  1 */
(PID.TID 0000.0001)    19 @  1.000000000000000E-01              /* K =  2: 20 */
(PID.TID 0000.0001)     ;
(PID.TID 0000.0001) drF =   /* W spacing ( units of r ) */
(PID.TID 0000.0001)    20 @  1.000000000000000E-01              /* K =  1: 20 */
(PID.TID 0000.0001)     ;
(PID.TID 0000.0001) delX =   /* U spacing ( m - cartesian, degrees - spherical ) */
(PID.TID 0000.0001)    64 @  6.250000000000000E-02              /* I =  1: 64 */
(PID.TID 0000.0001)     ;
(PID.TID 0000.0001) delY =   /* V spacing ( m - cartesian, degrees - spherical ) */
(PID.TID 0000.0001)    64 @  6.250000000000000E-02              /* J =  1: 64 */
(PID.TID 0000.0001)     ;
(PID.TID 0000.0001) phiMin =    /* South edge (ignored - cartesian, degrees - spherical ) */
(PID.TID 0000.0001)                 0.000000000000000E+00
(PID.TID 0000.0001)     ;
(PID.TID 0000.0001) thetaMin =    /* West edge ( ignored - cartesian, degrees - spherical ) */
(PID.TID 0000.0001)                 0.000000000000000E+00
(PID.TID 0000.0001)     ;
(PID.TID 0000.0001) rSphere =    /* Radius ( ignored - cartesian, m - spherical ) */
(PID.TID 0000.0001)                 6.370000000000000E+06
(PID.TID 0000.0001)     ;
(PID.TID 0000.0001) xcoord =   /* P-point X coord ( m - cartesian, degrees - spherical ) */
(PID.TID 0000.0001)                 3.125000000000000E-02,      /* I =  1 */
(PID.TID 0000.0001)                 9.375000000000000E-02,      /* I =  2 */
(PID.TID 0000.0001)                 1.562500000000000E-01,      /* I =  3 */
(PID.TID 0000.0001)                 2.187500000000000E-01,      /* I =  4 */
(PID.TID 0000.0001)                 2.812500000000000E-01,      /* I =  5 */
(PID.TID 0000.0001)                 3.437500000000000E-01,      /* I =  6 */
(PID.TID 0000.0001)                 4.062500000000000E-01,      /* I =  7 */
(PID.TID 0000.0001)                 4.687500000000000E-01,      /* I =  8 */
(PID.TID 0000.0001)                 5.312500000000000E-01,      /* I =  9 */
(PID.TID 0000.0001)                 5.937500000000000E-01,      /* I = 10 */
(PID.TID 0000.0001)                 6.562500000000000E-01,      /* I = 11 */
(PID.TID 0000.0001)                 7.187500000000000E-01,      /* I = 12 */
(PID.TID 0000.0001)                 7.812500000000000E-01,      /* I = 13 */
(PID.TID 0000.0001)                 8.437500000000000E-01,      /* I = 14 */
(PID.TID 0000.0001)                 9.062500000000000E-01,      /* I = 15 */
(PID.TID 0000.0001)                 9.687500000000000E-01,      /* I = 16 */
(PID.TID 0000.0001)                 1.031250000000000E+00,      /* I = 17 */
(PID.TID 0000.0001)                 1.093750000000000E+00,      /* I = 18 */
(PID.TID 0000.0001)                 1.156250000000000E+00,      /* I = 19 */
(PID.TID 0000.0001)                 1.218750000000000E+00,      /* I = 20 */
(PID.TID 0000.0001)                 1.281250000000000E+00,      /* I = 21 */
(PID.TID 0000.0001)                 1.343750000000000E+00,      /* I = 22 */
(PID.TID 0000.0001)                 1.406250000000000E+00,      /* I = 23 */
(PID.TID 0000.0001)                 1.468750000000000E+00,      /* I = 24 */
(PID.TID 0000.0001)                 1.531250000000000E+00,      /* I = 25 */
(PID.TID 0000.0001)                 1.593750000000000E+00,      /* I = 26 */
(PID.TID 0000.0001)                 1.656250000000000E+00,      /* I = 27 */
(PID.TID 0000.0001)                 1.718750000000000E+00,      /* I = 28 */
(PID.TID 0000.0001)                 1.781250000000000E+00,      /* I = 29 */
(PID.TID 0000.0001)                 1.843750000000000E+00,      /* I = 30 */
(PID.TID 0000.0001)                 1.906250000000000E+00,      /* I = 31 */
(PID.TID 0000.0001)                 1.968750000000000E+00,      /* I = 32 */
(PID.TID 0000.0001)                 2.031250000000000E+00,      /* I = 33 */
(PID.TID 0000.0001)                 2.093750000000000E+00,      /* I = 34 */
(PID.TID 0000.0001)                 2.156250000000000E+00,      /* I = 35 */
(PID.TID 0000.0001)                 2.218750000000000E+00,      /* I = 36 */
(PID.TID 0000.0001)                 2.281250000000000E+00,      /* I = 37 */
(PID.TID 0000.0001)                 2.343750000000000E+00,      /* I = 38 */
(PID.TID 0000.0001)                 2.406250000000000E+00,      /* I = 39 */
(PID.TID 0000.0001)                 2.468750000000000E+00,      /* I = 40 */
(PID.TID 0000.0001)                 2.531250000000000E+00,      /* I = 41 */
(PID.TID 0000.0001)                 2.593750000000000E+00,      /* I = 42 */
(PID.TID 0000.0001)                 2.656250000000000E+00,      /* I = 43 */
(PID.TID 0000.0001)                 2.718750000000000E+00,      /* I = 44 */
(PID.TID 0000.0001)                 2.781250000000000E+00,      /* I = 45 */
(PID.TID 0000.0001)                 2.843750000000000E+00,      /* I = 46 */
(PID.TID 0000.0001)                 2.906250000000000E+00,      /* I = 47 */
(PID.TID 0000.0001)                 2.968750000000000E+00,      /* I = 48 */
(PID.TID 0000.0001)                 3.031250000000000E+00,      /* I = 49 */
(PID.TID 0000.0001)                 3.093750000000000E+00,      /* I = 50 */
(PID.TID 0000.0001)                 3.156250000000000E+00,      /* I = 51 */
(PID.TID 0000.0001)                 3.218750000000000E+00,      /* I = 52 */
(PID.TID 0000.0001)                 3.281250000000000E+00,      /* I = 53 */
(PID.TID 0000.0001)                 3.343750000000000E+00,      /* I = 54 */
(PID.TID 0000.0001)                 3.406250000000000E+00,      /* I = 55 */
(PID.TID 0000.0001)                 3.468750000000000E+00,      /* I = 56 */
(PID.TID 0000.0001)                 3.531250000000000E+00,      /* I = 57 */
(PID.TID 0000.0001)                 3.593750000000000E+00,      /* I = 58 */
(PID.TID 0000.0001)                 3.656250000000000E+00,      /* I = 59 */
(PID.TID 0000.0001)                 3.718750000000000E+00,      /* I = 60 */
(PID.TID 0000.0001)                 3.781250000000000E+00,      /* I = 61 */
(PID.TID 0000.0001)                 3.843750000000000E+00,      /* I = 62 */
(PID.TID 0000.0001)                 3.906250000000000E+00,      /* I = 63 */
(PID.TID 0000.0001)                 3.968750000000000E+00       /* I = 64 */
(PID.TID 0000.0001)     ;
(PID.TID 0000.0001) ycoord =   /* P-point Y coord ( m - cartesian, degrees - spherical ) */
(PID.TID 0000.0001)                 3.125000000000000E-02,      /* J =  1 */
(PID.TID 0000.0001)                 9.375000000000000E-02,      /* J =  2 */
(PID.TID 0000.0001)                 1.562500000000000E-01,      /* J =  3 */
(PID.TID 0000.0001)                 2.187500000000000E-01,      /* J =  4 */
(PID.TID 0000.0001)                 2.812500000000000E-01,      /* J =  5 */
(PID.TID 0000.0001)                 3.437500000000000E-01,      /* J =  6 */
(PID.TID 0000.0001)                 4.062500000000000E-01,      /* J =  7 */
(PID.TID 0000.0001)                 4.687500000000000E-01,      /* J =  8 */
(PID.TID 0000.0001)                 5.312500000000000E-01,      /* J =  9 */
(PID.TID 0000.0001)                 5.937500000000000E-01,      /* J = 10 */
(PID.TID 0000.0001)                 6.562500000000000E-01,      /* J = 11 */
(PID.TID 0000.0001)                 7.187500000000000E-01,      /* J = 12 */
(PID.TID 0000.0001)                 7.812500000000000E-01,      /* J = 13 */
(PID.TID 0000.0001)                 8.437500000000000E-01,      /* J = 14 */
(PID.TID 0000.0001)                 9.062500000000000E-01,      /* J = 15 */
(PID.TID 0000.0001)                 9.687500000000000E-01,      /* J = 16 */
(PID.TID 0000.0001)                 1.031250000000000E+00,      /* J = 17 */
(PID.TID 0000.0001)                 1.093750000000000E+00,      /* J = 18 */
(PID.TID 0000.0001)                 1.156250000000000E+00,      /* J = 19 */
(PID.TID 0000.0001)                 1.218750000000000E+00,      /* J = 20 */
(PID.TID 0000.0001)                 1.281250000000000E+00,      /* J = 21 */
(PID.TID 0000.0001)                 1.343750000000000E+00,      /* J = 22 */
(PID.TID 0000.0001)                 1.406250000000000E+00,      /* J = 23 */
(PID.TID 0000.0001)                 1.468750000000000E+00,      /* J = 24 */
(PID.TID 0000.0001)                 1.531250000000000E+00,      /* J = 25 */
(PID.TID 0000.0001)                 1.593750000000000E+00,      /* J = 26 */
(PID.TID 0000.0001)                 1.656250000000000E+00,      /* J = 27 */
(PID.TID 0000.0001)                 1.718750000000000E+00,      /* J = 28 */
(PID.TID 0000.0001)                 1.781250000000000E+00,      /* J = 29 */
(PID.TID 0000.0001)                 1.843750000000000E+00,      /* J = 30 */
(PID.TID 0000.0001)                 1.906250000000000E+00,      /* J = 31 */
(PID.TID 0000.0001)                 1.968750000000000E+00,      /* J = 32 */
(PID.TID 0000.0001)                 2.031250000000000E+00,      /* J = 33 */
(PID.TID 0000.0001)                 2.093750000000000E+00,      /* J = 34 */
(PID.TID 0000.0001)                 2.156250000000000E+00,      /* J = 35 */
(PID.TID 0000.0001)                 2.218750000000000E+00,      /* J = 36 */
(PID.TID 0000.0001)                 2.281250000000000E+00,      /* J = 37 */
(PID.TID 0000.0001)                 2.343750000000000E+00,      /* J = 38 */
(PID.TID 0000.0001)                 2.406250000000000E+00,      /* J = 39 */
(PID.TID 0000.0001)                 2.468750000000000E+00,      /* J = 40 */
(PID.TID 0000.0001)                 2.531250000000000E+00,      /* J = 41 */
(PID.TID 0000.0001)                 2.593750000000000E+00,      /* J = 42 */
(PID.TID 0000.0001)                 2.656250000000000E+00,      /* J = 43 */
(PID.TID 0000.0001)                 2.718750000000000E+00,      /* J = 44 */
(PID.TID 0000.0001)                 2.781250000000000E+00,      /* J = 45 */
(PID.TID 0000.0001)                 2.843750000000000E+00,      /* J = 46 */
(PID.TID 0000.0001)                 2.906250000000000E+00,      /* J = 47 */
(PID.TID 0000.0001)                 2.968750000000000E+00,      /* J = 48 */
(PID.TID 0000.0001)                 3.031250000000000E+00,      /* J = 49 */
(PID.TID 0000.0001)                 3.093750000000000E+00,      /* J = 50 */
(PID.TID 0000.0001)                 3.156250000000000E+00,      /* J = 51 */
(PID.TID 0000.0001)                 3.218750000000000E+00,      /* J = 52 */
(PID.TID 0000.0001)                 3.281250000000000E+00,      /* J = 53 */
(PID.TID 0000.0001)                 3.343750000000000E+00,      /* J = 54 */
(PID.TID 0000.0001)                 3.406250000000000E+00,      /* J = 55 */
(PID.TID 0000.0001)                 3.468750000000000E+00,      /* J = 56 */
(PID.TID 0000.0001)                 3.531250000000000E+00,      /* J = 57 */
(PID.TID 0000.0001)                 3.593750000000000E+00,      /* J = 58 */
(PID.TID 0000.0001)                 3.656250000000000E+00,      /* J = 59 */
(PID.TID 0000.0001)                 3.718750000000000E+00,      /* J = 60 */
(PID.TID 0000.0001)                 3.781250000000000E+00,      /* J = 61 */
(PID.TID 0000.0001)                 3.843750000000000E+00,      /* J = 62 */
(PID.TID 0000.0001)                 3.906250000000000E+00,      /* J = 63 */
(PID.TID 0000.0001)                 3.968750000000000E+00       /* J = 64 */
(PID.TID 0000.0001)     ;
(PID.TID 0000.0001) rcoord =   /* P-point R coordinate (  units of r ) */
(PID.TID 0000.0001)                -5.000000000000000E-02,      /* K =  1 */
(PID.TID 0000.0001)                -1.500000000000000E-01,      /* K =  2 */
(PID.TID 0000.0001)                -2.500000000000000E-01,      /* K =  3 */
(PID.TID 0000.0001)                -3.500000000000000E-01,      /* K =  4 */
(PID.TID 0000.0001)                -4.500000000000000E-01,      /* K =  5 */
(PID.TID 0000.0001)                -5.499999999999999E-01,      /* K =  6 */
(PID.TID 0000.0001)                -6.499999999999999E-01,      /* K =  7 */
(PID.TID 0000.0001)                -7.499999999999999E-01,      /* K =  8 */
(PID.TID 0000.0001)                -8.499999999999999E-01,      /* K =  9 */
(PID.TID 0000.0001)                -9.499999999999998E-01,      /* K = 10 */
(PID.TID 0000.0001)                -1.050000000000000E+00,      /* K = 11 */
(PID.TID 0000.0001)                -1.150000000000000E+00,      /* K = 12 */
(PID.TID 0000.0001)                -1.250000000000000E+00,      /* K = 13 */
(PID.TID 0000.0001)                -1.350000000000000E+00,      /* K = 14 */
(PID.TID 0000.0001)                -1.450000000000000E+00,      /* K = 15 */
(PID.TID 0000.0001)                -1.550000000000000E+00,      /* K = 16 */
(PID.TID 0000.0001)                -1.650000000000000E+00,      /* K = 17 */
(PID.TID 0000.0001)                -1.750000000000000E+00,      /* K = 18 */
(PID.TID 0000.0001)                -1.850000000000001E+00,      /* K = 19 */
(PID.TID 0000.0001)                -1.950000000000001E+00       /* K = 20 */
(PID.TID 0000.0001)     ;
(PID.TID 0000.0001) rF =   /* W-Interf. R coordinate (  units of r ) */
(PID.TID 0000.0001)                 0.000000000000000E+00,      /* K =  1 */
(PID.TID 0000.0001)                -1.000000000000000E-01,      /* K =  2 */
(PID.TID 0000.0001)                -2.000000000000000E-01,      /* K =  3 */
(PID.TID 0000.0001)                -3.000000000000000E-01,      /* K =  4 */
(PID.TID 0000.0001)                -4.000000000000000E-01,      /* K =  5 */
(PID.TID 0000.0001)                -5.000000000000000E-01,      /* K =  6 */
(PID.TID 0000.0001)                -6.000000000000000E-01,      /* K =  7 */
(PID.TID 0000.0001)                -7.000000000000000E-01,      /* K =  8 */
(PID.TID 0000.0001)                -7.999999999999999E-01,      /* K =  9 */
(PID.TID 0000.0001)                -8.999999999999999E-01,      /* K = 10 */
(PID.TID 0000.0001)                -9.999999999999999E-01,      /* K = 11 */
(PID.TID 0000.0001)                -1.100000000000000E+00,      /* K = 12 */
(PID.TID 0000.0001)                -1.200000000000000E+00,      /* K = 13 */
(PID.TID 0000.0001)                -1.300000000000000E+00,      /* K = 14 */
(PID.TID 0000.0001)                -1.400000000000000E+00,      /* K = 15 */
(PID.TID 0000.0001)                -1.500000000000000E+00,      /* K = 16 */
(PID.TID 0000.0001)                -1.600000000000000E+00,      /* K = 17 */
(PID.TID 0000.0001)                -1.700000000000000E+00,      /* K = 18 */
(PID.TID 0000.0001)                -1.800000000000000E+00,      /* K = 19 */
(PID.TID 0000.0001)                -1.900000000000001E+00,      /* K = 20 */
(PID.TID 0000.0001)                -2.000000000000000E+00       /* K = 21 */
(PID.TID 0000.0001)     ;
(PID.TID 0000.0001) dxF =  /* dxF(:,1,:,1) ( m - cartesian, degrees - spherical ) */
(PID.TID 0000.0001)    64 @  6.250000000000000E-02              /* I =  1: 64 */
(PID.TID 0000.0001)     ;
(PID.TID 0000.0001) dxF =  /* dxF(1,:,1,:) ( m - cartesian, degrees - spherical ) */
(PID.TID 0000.0001)    64 @  6.250000000000000E-02              /* J =  1: 64 */
(PID.TID 0000.0001)     ;
(PID.TID 0000.0001) dyF =  /* dyF(:,1,:,1) ( m - cartesian, degrees - spherical ) */
(PID.TID 0000.0001)    64 @  6.250000000000000E-02              /* I =  1: 64 */
(PID.TID 0000.0001)     ;
(PID.TID 0000.0001) dyF =  /* dyF(1,:,1,:) ( m - cartesian, degrees - spherical ) */
(PID.TID 0000.0001)    64 @  6.250000000000000E-02              /* J =  1: 64 */
(PID.TID 0000.0001)     ;
(PID.TID 0000.0001) dxG =  /* dxG(:,1,:,1) ( m - cartesian, degrees - spherical ) */
(PID.TID 0000.0001)    64 @  6.250000000000000E-02              /* I =  1: 64 */
(PID.TID 0000.0001)     ;
(PID.TID 0000.0001) dxG =  /* dxG(1,:,1,:) ( m - cartesian, degrees - spherical ) */
(PID.TID 0000.0001)    64 @  6.250000000000000E-02              /* J =  1: 64 */
(PID.TID 0000.0001)     ;
(PID.TID 0000.0001) dyG =  /* dyG(:,1,:,1) ( m - cartesian, degrees - spherical ) */
(PID.TID 0000.0001)    64 @  6.250000000000000E-02              /* I =  1: 64 */
(PID.TID 0000.0001)     ;
(PID.TID 0000.0001) dyG =  /* dyG(1,:,1,:) ( m - cartesian, degrees - spherical ) */
(PID.TID 0000.0001)    64 @  6.250000000000000E-02              /* J =  1: 64 */
(PID.TID 0000.0001)     ;
(PID.TID 0000.0001) dxC =  /* dxC(:,1,:,1) ( m - cartesian, degrees - spherical ) */
(PID.TID 0000.0001)    64 @  6.250000000000000E-02              /* I =  1: 64 */
(PID.TID 0000.0001)     ;
(PID.TID 0000.0001) dxC =  /* dxC(1,:,1,:) ( m - cartesian, degrees - spherical ) */
(PID.TID 0000.0001)    64 @  6.250000000000000E-02              /* J =  1: 64 */
(PID.TID 0000.0001)     ;
(PID.TID 0000.0001) dyC =  /* dyC(:,1,:,1) ( m - cartesian, degrees - spherical ) */
(PID.TID 0000.0001)    64 @  6.250000000000000E-02              /* I =  1: 64 */
(PID.TID 0000.0001)     ;
(PID.TID 0000.0001) dyC =  /* dyC(1,:,1,:) ( m - cartesian, degrees - spherical ) */
(PID.TID 0000.0001)    64 @  6.250000000000000E-02              /* J =  1: 64 */
(PID.TID 0000.0001)     ;
(PID.TID 0000.0001) dxV =  /* dxV(:,1,:,1) ( m - cartesian, degrees - spherical ) */
(PID.TID 0000.0001)    64 @  6.250000000000000E-02              /* I =  1: 64 */
(PID.TID 0000.0001)     ;
(PID.TID 0000.0001) dxV =  /* dxV(1,:,1,:) ( m - cartesian, degrees - spherical ) */
(PID.TID 0000.0001)    64 @  6.250000000000000E-02              /* J =  1: 64 */
(PID.TID 0000.0001)     ;
(PID.TID 0000.0001) dyU =  /* dyU(:,1,:,1) ( m - cartesian, degrees - spherical ) */
(PID.TID 0000.0001)    64 @  6.250000000000000E-02              /* I =  1: 64 */
(PID.TID 0000.0001)     ;
(PID.TID 0000.0001) dyU =  /* dyU(1,:,1,:) ( m - cartesian, degrees - spherical ) */
(PID.TID 0000.0001)    64 @  6.250000000000000E-02              /* J =  1: 64 */
(PID.TID 0000.0001)     ;
(PID.TID 0000.0001) rA =  /* rA(:,1,:,1) ( m - cartesian, degrees - spherical ) */
(PID.TID 0000.0001)    64 @  3.906250000000000E-03              /* I =  1: 64 */
(PID.TID 0000.0001)     ;
(PID.TID 0000.0001) rA =  /* rA(1,:,1,:) ( m - cartesian, degrees - spherical ) */
(PID.TID 0000.0001)    64 @  3.906250000000000E-03              /* J =  1: 64 */
(PID.TID 0000.0001)     ;
(PID.TID 0000.0001) rAw =  /* rAw(:,1,:,1) ( m - cartesian, degrees - spherical ) */
(PID.TID 0000.0001)    64 @  3.906250000000000E-03              /* I =  1: 64 */
(PID.TID 0000.0001)     ;
(PID.TID 0000.0001) rAw =  /* rAw(1,:,1,:) ( m - cartesian, degrees - spherical ) */
(PID.TID 0000.0001)    64 @  3.906250000000000E-03              /* J =  1: 64 */
(PID.TID 0000.0001)     ;
(PID.TID 0000.0001) rAs =  /* rAs(:,1,:,1) ( m - cartesian, degrees - spherical ) */
(PID.TID 0000.0001)    64 @  3.906250000000000E-03              /* I =  1: 64 */
(PID.TID 0000.0001)     ;
(PID.TID 0000.0001) rAs =  /* rAs(1,:,1,:) ( m - cartesian, degrees - spherical ) */
(PID.TID 0000.0001)    64 @  3.906250000000000E-03              /* J =  1: 64 */
(PID.TID 0000.0001)     ;
(PID.TID 0000.0001) 
(PID.TID 0000.0001) // =======================================================
(PID.TID 0000.0001) // Field Initial Temperature at iteration          1
(PID.TID 0000.0001) // CMIN =          1.000000000000000E+00
(PID.TID 0000.0001) // CMAX =          1.000000000000000E+00
(PID.TID 0000.0001) // CINT =          0.000000000000000E+00
(PID.TID 0000.0001) // SYMBOLS (CMIN->CMAX): -abcdefghijklmnopqrstuvwxyz+
(PID.TID 0000.0001) //                  0.0: .
(PID.TID 0000.0001) // RANGE I (Lo:Hi:Step):(   1:  64:   1)
(PID.TID 0000.0001) // RANGE J (Lo:Hi:Step):(  64:   1:  -1)
(PID.TID 0000.0001) // RANGE K (Lo:Hi:Step):(   1:   1:   1)
(PID.TID 0000.0001) // =======================================================
(PID.TID 0000.0001) K =   1
(PID.TID 0000.0001)                I=10      I=20      I=30      I=40      I=50      I=60
(PID.TID 0000.0001) |--J--|123456789|123456789|123456789|123456789|123456789|123456789|1234
(PID.TID 0000.0001)     64 ----------------------------------------------------------------
(PID.TID 0000.0001)     63 ----------------------------------------------------------------
(PID.TID 0000.0001)     62 ----------------------------------------------------------------
(PID.TID 0000.0001)     61 ----------------------------------------------------------------
(PID.TID 0000.0001)     60 ----------------------------------------------------------------
(PID.TID 0000.0001)     59 ----------------------------------------------------------------
(PID.TID 0000.0001)     58 ----------------------------------------------------------------
(PID.TID 0000.0001)     57 ----------------------------------------------------------------
(PID.TID 0000.0001)     56 ----------------------------------------------------------------
(PID.TID 0000.0001)     55 ----------------------------------------------------------------
(PID.TID 0000.0001)     54 ----------------------------------------------------------------
(PID.TID 0000.0001)     53 ----------------------------------------------------------------
(PID.TID 0000.0001)     52 ----------------------------------------------------------------
(PID.TID 0000.0001)     51 ----------------------------------------------------------------
(PID.TID 0000.0001)     50 ----------------------------------------------------------------
(PID.TID 0000.0001)     49 ----------------------------------------------------------------
(PID.TID 0000.0001)     48 ----------------------------------------------------------------
(PID.TID 0000.0001)     47 ----------------------------------------------------------------
(PID.TID 0000.0001)     46 ----------------------------------------------------------------
(PID.TID 0000.0001)     45 ----------------------------------------------------------------
(PID.TID 0000.0001)     44 ----------------------------------------------------------------
(PID.TID 0000.0001)     43 ----------------------------------------------------------------
(PID.TID 0000.0001)     42 ----------------------------------------------------------------
(PID.TID 0000.0001)     41 ----------------------------------------------------------------
(PID.TID 0000.0001)     40 ----------------------------------------------------------------
(PID.TID 0000.0001)     39 ----------------------------------------------------------------
(PID.TID 0000.0001)     38 ----------------------------------------------------------------
(PID.TID 0000.0001)     37 ----------------------------------------------------------------
(PID.TID 0000.0001)     36 ----------------------------------------------------------------
(PID.TID 0000.0001)     35 ----------------------------------------------------------------
(PID.TID 0000.0001)     34 ----------------------------------------------------------------
(PID.TID 0000.0001)     33 ----------------------------------------------------------------
(PID.TID 0000.0001)     32 ----------------------------------------------------------------
(PID.TID 0000.0001)     31 ----------------------------------------------------------------
(PID.TID 0000.0001)     30 ----------------------------------------------------------------
(PID.TID 0000.0001)     29 ----------------------------------------------------------------
(PID.TID 0000.0001)     28 ----------------------------------------------------------------
(PID.TID 0000.0001)     27 ----------------------------------------------------------------
(PID.TID 0000.0001)     26 ----------------------------------------------------------------
(PID.TID 0000.0001)     25 ----------------------------------------------------------------
(PID.TID 0000.0001)     24 ----------------------------------------------------------------
(PID.TID 0000.0001)     23 ----------------------------------------------------------------
(PID.TID 0000.0001)     22 ----------------------------------------------------------------
(PID.TID 0000.0001)     21 ----------------------------------------------------------------
(PID.TID 0000.0001)     20 ----------------------------------------------------------------
(PID.TID 0000.0001)     19 ----------------------------------------------------------------
(PID.TID 0000.0001)     18 ----------------------------------------------------------------
(PID.TID 0000.0001)     17 ----------------------------------------------------------------
(PID.TID 0000.0001)     16 ----------------------------------------------------------------
(PID.TID 0000.0001)     15 ----------------------------------------------------------------
(PID.TID 0000.0001)     14 ----------------------------------------------------------------
(PID.TID 0000.0001)     13 ----------------------------------------------------------------
(PID.TID 0000.0001)     12 ----------------------------------------------------------------
(PID.TID 0000.0001)     11 ----------------------------------------------------------------
(PID.TID 0000.0001)     10 ----------------------------------------------------------------
(PID.TID 0000.0001)      9 ----------------------------------------------------------------
(PID.TID 0000.0001)      8 ----------------------------------------------------------------
(PID.TID 0000.0001)      7 ----------------------------------------------------------------
(PID.TID 0000.0001)      6 ----------------------------------------------------------------
(PID.TID 0000.0001)      5 ----------------------------------------------------------------
(PID.TID 0000.0001)      4 ----------------------------------------------------------------
(PID.TID 0000.0001)      3 ----------------------------------------------------------------
(PID.TID 0000.0001)      2 ----------------------------------------------------------------
(PID.TID 0000.0001)      1 ----------------------------------------------------------------
(PID.TID 0000.0001) // =======================================================
(PID.TID 0000.0001) // END OF FIELD                                          =
(PID.TID 0000.0001) // =======================================================
(PID.TID 0000.0001) 
(PID.TID 0000.0001) // =======================================================
(PID.TID 0000.0001) // Field Initial Salinity at iteration          1
(PID.TID 0000.0001) // CMIN =          3.500000000000000E+01
(PID.TID 0000.0001) // CMAX =          3.500000000000000E+01
(PID.TID 0000.0001) // CINT =          0.000000000000000E+00
(PID.TID 0000.0001) // SYMBOLS (CMIN->CMAX): -abcdefghijklmnopqrstuvwxyz+
(PID.TID 0000.0001) //                  0.0: .
(PID.TID 0000.0001) // RANGE I (Lo:Hi:Step):(   1:  64:   1)
(PID.TID 0000.0001) // RANGE J (Lo:Hi:Step):(  64:   1:  -1)
(PID.TID 0000.0001) // RANGE K (Lo:Hi:Step):(   1:   1:   1)
(PID.TID 0000.0001) // =======================================================
(PID.TID 0000.0001) K =   1
(PID.TID 0000.0001)                I=10      I=20      I=30      I=40      I=50      I=60
(PID.TID 0000.0001) |--J--|123456789|123456789|123456789|123456789|123456789|123456789|1234
(PID.TID 0000.0001)     64 ----------------------------------------------------------------
(PID.TID 0000.0001)     63 ----------------------------------------------------------------
(PID.TID 0000.0001)     62 ----------------------------------------------------------------
(PID.TID 0000.0001)     61 ----------------------------------------------------------------
(PID.TID 0000.0001)     60 ----------------------------------------------------------------
(PID.TID 0000.0001)     59 ----------------------------------------------------------------
(PID.TID 0000.0001)     58 ----------------------------------------------------------------
(PID.TID 0000.0001)     57 ----------------------------------------------------------------
(PID.TID 0000.0001)     56 ----------------------------------------------------------------
(PID.TID 0000.0001)     55 ----------------------------------------------------------------
(PID.TID 0000.0001)     54 ----------------------------------------------------------------
(PID.TID 0000.0001)     53 ----------------------------------------------------------------
(PID.TID 0000.0001)     52 ----------------------------------------------------------------
(PID.TID 0000.0001)     51 ----------------------------------------------------------------
(PID.TID 0000.0001)     50 ----------------------------------------------------------------
(PID.TID 0000.0001)     49 ----------------------------------------------------------------
(PID.TID 0000.0001)     48 ----------------------------------------------------------------
(PID.TID 0000.0001)     47 ----------------------------------------------------------------
(PID.TID 0000.0001)     46 ----------------------------------------------------------------
(PID.TID 0000.0001)     45 ----------------------------------------------------------------
(PID.TID 0000.0001)     44 ----------------------------------------------------------------
(PID.TID 0000.0001)     43 ----------------------------------------------------------------
(PID.TID 0000.0001)     42 ----------------------------------------------------------------
(PID.TID 0000.0001)     41 ----------------------------------------------------------------
(PID.TID 0000.0001)     40 ----------------------------------------------------------------
(PID.TID 0000.0001)     39 ----------------------------------------------------------------
(PID.TID 0000.0001)     38 ----------------------------------------------------------------
(PID.TID 0000.0001)     37 ----------------------------------------------------------------
(PID.TID 0000.0001)     36 ----------------------------------------------------------------
(PID.TID 0000.0001)     35 ----------------------------------------------------------------
(PID.TID 0000.0001)     34 ----------------------------------------------------------------
(PID.TID 0000.0001)     33 ----------------------------------------------------------------
(PID.TID 0000.0001)     32 ----------------------------------------------------------------
(PID.TID 0000.0001)     31 ----------------------------------------------------------------
(PID.TID 0000.0001)     30 ----------------------------------------------------------------
(PID.TID 0000.0001)     29 ----------------------------------------------------------------
(PID.TID 0000.0001)     28 ----------------------------------------------------------------
(PID.TID 0000.0001)     27 ----------------------------------------------------------------
(PID.TID 0000.0001)     26 ----------------------------------------------------------------
(PID.TID 0000.0001)     25 ----------------------------------------------------------------
(PID.TID 0000.0001)     24 ----------------------------------------------------------------
(PID.TID 0000.0001)     23 ----------------------------------------------------------------
(PID.TID 0000.0001)     22 ----------------------------------------------------------------
(PID.TID 0000.0001)     21 ----------------------------------------------------------------
(PID.TID 0000.0001)     20 ----------------------------------------------------------------
(PID.TID 0000.0001)     19 ----------------------------------------------------------------
(PID.TID 0000.0001)     18 ----------------------------------------------------------------
(PID.TID 0000.0001)     17 ----------------------------------------------------------------
(PID.TID 0000.0001)     16 ----------------------------------------------------------------
(PID.TID 0000.0001)     15 ----------------------------------------------------------------
(PID.TID 0000.0001)     14 ----------------------------------------------------------------
(PID.TID 0000.0001)     13 ----------------------------------------------------------------
(PID.TID 0000.0001)     12 ----------------------------------------------------------------
(PID.TID 0000.0001)     11 ----------------------------------------------------------------
(PID.TID 0000.0001)     10 ----------------------------------------------------------------
(PID.TID 0000.0001)      9 ----------------------------------------------------------------
(PID.TID 0000.0001)      8 ----------------------------------------------------------------
(PID.TID 0000.0001)      7 ----------------------------------------------------------------
(PID.TID 0000.0001)      6 ----------------------------------------------------------------
(PID.TID 0000.0001)      5 ----------------------------------------------------------------
(PID.TID 0000.0001)      4 ----------------------------------------------------------------
(PID.TID 0000.0001)      3 ----------------------------------------------------------------
(PID.TID 0000.0001)      2 ----------------------------------------------------------------
(PID.TID 0000.0001)      1 ----------------------------------------------------------------
(PID.TID 0000.0001) // =======================================================
(PID.TID 0000.0001) // END OF FIELD                                          =
(PID.TID 0000.0001) // =======================================================
(PID.TID 0000.0001) 
(PID.TID 0000.0001) Start initial hydrostatic pressure computation
(PID.TID 0000.0001) Pressure is predetermined for buoyancyRelation OCEANIC
(PID.TID 0000.0001) 
(PID.TID 0000.0001)  MDSREADFIELD: opening global file: Qnet.circle
(PID.TID 0000.0001) // =======================================================
(PID.TID 0000.0001) // Model current state
(PID.TID 0000.0001) // =======================================================
(PID.TID 0000.0001) 
(PID.TID 0000.0001) // =======================================================
(PID.TID 0000.0001) // Begin MONITOR dynamic field statistics
(PID.TID 0000.0001) // =======================================================
(PID.TID 0000.0001) %MON time_tsnumber                =                     0
(PID.TID 0000.0001) %MON time_secondsf                =   0.0000000000000E+00
(PID.TID 0000.0001) %MON dynstat_eta_max              =   0.0000000000000E+00
(PID.TID 0000.0001) %MON dynstat_eta_min              =   0.0000000000000E+00
(PID.TID 0000.0001) %MON dynstat_eta_mean             =   0.0000000000000E+00
(PID.TID 0000.0001) %MON dynstat_eta_sd               =   0.0000000000000E+00
(PID.TID 0000.0001) %MON dynstat_eta_del2             =   0.0000000000000E+00
(PID.TID 0000.0001) %MON dynstat_uvel_max             =   0.0000000000000E+00
(PID.TID 0000.0001) %MON dynstat_uvel_min             =   0.0000000000000E+00
(PID.TID 0000.0001) %MON dynstat_uvel_mean            =   0.0000000000000E+00
(PID.TID 0000.0001) %MON dynstat_uvel_sd              =   0.0000000000000E+00
(PID.TID 0000.0001) %MON dynstat_uvel_del2            =   0.0000000000000E+00
(PID.TID 0000.0001) %MON dynstat_vvel_max             =   0.0000000000000E+00
(PID.TID 0000.0001) %MON dynstat_vvel_min             =   0.0000000000000E+00
(PID.TID 0000.0001) %MON dynstat_vvel_mean            =   0.0000000000000E+00
(PID.TID 0000.0001) %MON dynstat_vvel_sd              =   0.0000000000000E+00
(PID.TID 0000.0001) %MON dynstat_vvel_del2            =   0.0000000000000E+00
(PID.TID 0000.0001) %MON dynstat_wvel_max             =   0.0000000000000E+00
(PID.TID 0000.0001) %MON dynstat_wvel_min             =   0.0000000000000E+00
(PID.TID 0000.0001) %MON dynstat_wvel_mean            =   0.0000000000000E+00
(PID.TID 0000.0001) %MON dynstat_wvel_sd              =   0.0000000000000E+00
(PID.TID 0000.0001) %MON dynstat_wvel_del2            =   0.0000000000000E+00
(PID.TID 0000.0001) %MON dynstat_theta_max            =   1.0000000000000E+00
(PID.TID 0000.0001) %MON dynstat_theta_min            =   1.0000000000000E+00
(PID.TID 0000.0001) %MON dynstat_theta_mean           =   1.0000000000000E+00
(PID.TID 0000.0001) %MON dynstat_theta_sd             =   0.0000000000000E+00
(PID.TID 0000.0001) %MON dynstat_theta_del2           =   0.0000000000000E+00
(PID.TID 0000.0001) %MON dynstat_salt_max             =   3.5000000000000E+01
(PID.TID 0000.0001) %MON dynstat_salt_min             =   3.5000000000000E+01
(PID.TID 0000.0001) %MON dynstat_salt_mean            =   3.4999999999948E+01
(PID.TID 0000.0001) %MON dynstat_salt_sd              =   5.2423843044373E-11
(PID.TID 0000.0001) %MON dynstat_salt_del2            =   0.0000000000000E+00
(PID.TID 0000.0001) %MON advcfl_uvel_max              =   0.0000000000000E+00
(PID.TID 0000.0001) %MON advcfl_vvel_max              =   0.0000000000000E+00
(PID.TID 0000.0001) %MON advcfl_wvel_max              =   0.0000000000000E+00
(PID.TID 0000.0001) %MON advcfl_W_hf_max              =   0.0000000000000E+00
(PID.TID 0000.0001) %MON pe_b_mean                    =   0.0000000000000E+00
(PID.TID 0000.0001) %MON ke_max                       =   0.0000000000000E+00
(PID.TID 0000.0001) %MON ke_mean                      =   0.0000000000000E+00
(PID.TID 0000.0001) %MON ke_vol                       =   3.2000000000048E+01
(PID.TID 0000.0001) %MON vort_r_min                   =   0.0000000000000E+00
(PID.TID 0000.0001) %MON vort_r_max                   =   0.0000000000000E+00
(PID.TID 0000.0001) %MON vort_a_mean                  =   1.2499999999981E+03
(PID.TID 0000.0001) %MON vort_a_sd                    =   1.5299156555768E-03
(PID.TID 0000.0001) %MON vort_p_mean                  =   1.2499999999981E+03
(PID.TID 0000.0001) %MON vort_p_sd                    =   1.5299156555768E-03
(PID.TID 0000.0001) %MON surfExpan_theta_mean         =   0.0000000000000E+00
(PID.TID 0000.0001) %MON surfExpan_salt_mean          =   0.0000000000000E+00
(PID.TID 0000.0001) // =======================================================
(PID.TID 0000.0001) // End MONITOR dynamic field statistics
(PID.TID 0000.0001) // =======================================================
 cg2d: Sum(rhs),rhsMax =   0.00000000000000E+00  0.00000000000000E+00
(PID.TID 0000.0001)                    cg2d_init_res =    0.00000000000000E+00
(PID.TID 0000.0001)                       cg2d_iters =     0
(PID.TID 0000.0001)                         cg2d_res =    0.00000000000000E+00
 cg3d: Sum(rhs),rhsMax =   0.00000000000000E+00  0.00000000000000E+00
(PID.TID 0000.0001)                    cg3d_init_res =    0.00000000000000E+00
(PID.TID 0000.0001)                       cg3d_iters =     0
(PID.TID 0000.0001)                         cg3d_res =    0.00000000000000E+00
(PID.TID 0000.0001) // =======================================================
(PID.TID 0000.0001) // Begin MONITOR dynamic field statistics
(PID.TID 0000.0001) // =======================================================
(PID.TID 0000.0001) %MON time_tsnumber                =                     1
(PID.TID 0000.0001) %MON time_secondsf                =   2.0000000000000E-04
(PID.TID 0000.0001) %MON dynstat_eta_max              =   0.0000000000000E+00
(PID.TID 0000.0001) %MON dynstat_eta_min              =   0.0000000000000E+00
(PID.TID 0000.0001) %MON dynstat_eta_mean             =   0.0000000000000E+00
(PID.TID 0000.0001) %MON dynstat_eta_sd               =   0.0000000000000E+00
(PID.TID 0000.0001) %MON dynstat_eta_del2             =   0.0000000000000E+00
(PID.TID 0000.0001) %MON dynstat_uvel_max             =   0.0000000000000E+00
(PID.TID 0000.0001) %MON dynstat_uvel_min             =   0.0000000000000E+00
(PID.TID 0000.0001) %MON dynstat_uvel_mean            =   0.0000000000000E+00
(PID.TID 0000.0001) %MON dynstat_uvel_sd              =   0.0000000000000E+00
(PID.TID 0000.0001) %MON dynstat_uvel_del2            =   0.0000000000000E+00
(PID.TID 0000.0001) %MON dynstat_vvel_max             =   0.0000000000000E+00
(PID.TID 0000.0001) %MON dynstat_vvel_min             =   0.0000000000000E+00
(PID.TID 0000.0001) %MON dynstat_vvel_mean            =   0.0000000000000E+00
(PID.TID 0000.0001) %MON dynstat_vvel_sd              =   0.0000000000000E+00
(PID.TID 0000.0001) %MON dynstat_vvel_del2            =   0.0000000000000E+00
(PID.TID 0000.0001) %MON dynstat_wvel_max             =   0.0000000000000E+00
(PID.TID 0000.0001) %MON dynstat_wvel_min             =   0.0000000000000E+00
(PID.TID 0000.0001) %MON dynstat_wvel_mean            =   0.0000000000000E+00
(PID.TID 0000.0001) %MON dynstat_wvel_sd              =   0.0000000000000E+00
(PID.TID 0000.0001) %MON dynstat_wvel_del2            =   0.0000000000000E+00
(PID.TID 0000.0001) %MON dynstat_theta_max            =   1.0000000000000E+00
(PID.TID 0000.0001) %MON dynstat_theta_min            =   9.9798000605500E-01
(PID.TID 0000.0001) %MON dynstat_theta_mean           =   9.9989949738801E-01
(PID.TID 0000.0001) %MON dynstat_theta_sd             =   4.3808264463937E-04
(PID.TID 0000.0001) %MON dynstat_theta_del2           =   2.7410267899897E-07
(PID.TID 0000.0001) %MON dynstat_salt_max             =   3.5000000000000E+01
(PID.TID 0000.0001) %MON dynstat_salt_min             =   3.5000000000000E+01
(PID.TID 0000.0001) %MON dynstat_salt_mean            =   3.4999999999948E+01
(PID.TID 0000.0001) %MON dynstat_salt_sd              =   5.2423843044373E-11
(PID.TID 0000.0001) %MON dynstat_salt_del2            =   0.0000000000000E+00
(PID.TID 0000.0001) %MON advcfl_uvel_max              =   0.0000000000000E+00
(PID.TID 0000.0001) %MON advcfl_vvel_max              =   0.0000000000000E+00
(PID.TID 0000.0001) %MON advcfl_wvel_max              =   0.0000000000000E+00
(PID.TID 0000.0001) %MON advcfl_W_hf_max              =   0.0000000000000E+00
(PID.TID 0000.0001) %MON pe_b_mean                    =   0.0000000000000E+00
(PID.TID 0000.0001) %MON ke_max                       =   0.0000000000000E+00
(PID.TID 0000.0001) %MON ke_mean                      =   0.0000000000000E+00
(PID.TID 0000.0001) %MON ke_vol                       =   3.2000000000048E+01
(PID.TID 0000.0001) %MON vort_r_min                   =   0.0000000000000E+00
(PID.TID 0000.0001) %MON vort_r_max                   =   0.0000000000000E+00
(PID.TID 0000.0001) %MON vort_a_mean                  =   1.2499999999981E+03
(PID.TID 0000.0001) %MON vort_a_sd                    =   1.5299156555768E-03
(PID.TID 0000.0001) %MON vort_p_mean                  =   1.2499999999981E+03
(PID.TID 0000.0001) %MON vort_p_sd                    =   1.5299156555768E-03
(PID.TID 0000.0001) %MON surfExpan_theta_mean         =   0.0000000000000E+00
(PID.TID 0000.0001) %MON surfExpan_salt_mean          =   0.0000000000000E+00
(PID.TID 0000.0001) // =======================================================
(PID.TID 0000.0001) // End MONITOR dynamic field statistics
(PID.TID 0000.0001) // =======================================================
 cg2d: Sum(rhs),rhsMax =  -4.66293670342566E-15  1.50911513742212E+03
(PID.TID 0000.0001)                    cg2d_init_res =    2.42404160368524E+01
(PID.TID 0000.0001)                       cg2d_iters =    75
(PID.TID 0000.0001)                         cg2d_res =    9.32959722495333E-10
 cg3d: Sum(rhs),rhsMax =   2.40606146117983E-14  7.36595953809390E+02
(PID.TID 0000.0001)                    cg3d_init_res =    2.48899184039123E+01
(PID.TID 0000.0001)                       cg3d_iters =    40
(PID.TID 0000.0001)                         cg3d_res =    1.61891696351269E-03
(PID.TID 0000.0001) // =======================================================
(PID.TID 0000.0001) // Begin MONITOR dynamic field statistics
(PID.TID 0000.0001) // =======================================================
(PID.TID 0000.0001) %MON time_tsnumber                =                     2
(PID.TID 0000.0001) %MON time_secondsf                =   4.0000000000000E-04
(PID.TID 0000.0001) %MON dynstat_eta_max              =   1.5686841383176E-06
(PID.TID 0000.0001) %MON dynstat_eta_min              =  -1.5507256684406E-06
(PID.TID 0000.0001) %MON dynstat_eta_mean             =   4.1192327278980E-21
(PID.TID 0000.0001) %MON dynstat_eta_sd               =   9.0361577448630E-07
(PID.TID 0000.0001) %MON dynstat_eta_del2             =   8.5513822738757E-07
(PID.TID 0000.0001) %MON dynstat_uvel_max             =   7.0216889713736E-02
(PID.TID 0000.0001) %MON dynstat_uvel_min             =  -7.4928095877981E-02
(PID.TID 0000.0001) %MON dynstat_uvel_mean            =   2.8584377248291E-19
(PID.TID 0000.0001) %MON dynstat_uvel_sd              =   7.4206188918075E-03
(PID.TID 0000.0001) %MON dynstat_uvel_del2            =   2.0085134251778E-03
(PID.TID 0000.0001) %MON dynstat_vvel_max             =   7.2247889546268E-02
(PID.TID 0000.0001) %MON dynstat_vvel_min             =  -7.0010756879722E-02
(PID.TID 0000.0001) %MON dynstat_vvel_mean            =  -2.0373585052704E-19
(PID.TID 0000.0001) %MON dynstat_vvel_sd              =   7.4910956781727E-03
(PID.TID 0000.0001) %MON dynstat_vvel_del2            =   2.0088359001110E-03
(PID.TID 0000.0001) %MON dynstat_wvel_max             =   2.1724642419256E-01
(PID.TID 0000.0001) %MON dynstat_wvel_min             =  -2.2498624176825E-01
(PID.TID 0000.0001) %MON dynstat_wvel_mean            =  -1.0945239154122E-19
(PID.TID 0000.0001) %MON dynstat_wvel_sd              =   2.3874024312709E-02
(PID.TID 0000.0001) %MON dynstat_wvel_del2            =   5.9340238031014E-03
(PID.TID 0000.0001) %MON dynstat_theta_max            =   1.0000000000000E+00
(PID.TID 0000.0001) %MON dynstat_theta_min            =   9.9602619555180E-01
(PID.TID 0000.0001) %MON dynstat_theta_mean           =   9.9979899477602E-01
(PID.TID 0000.0001) %MON dynstat_theta_sd             =   8.6152144466889E-04
(PID.TID 0000.0001) %MON dynstat_theta_del2           =   4.2473317293494E-07
(PID.TID 0000.0001) %MON dynstat_salt_max             =   3.5000000000000E+01
(PID.TID 0000.0001) %MON dynstat_salt_min             =   3.5000000000000E+01
(PID.TID 0000.0001) %MON dynstat_salt_mean            =   3.4999999999948E+01
(PID.TID 0000.0001) %MON dynstat_salt_sd              =   5.2423843044373E-11
(PID.TID 0000.0001) %MON dynstat_salt_del2            =   0.0000000000000E+00
(PID.TID 0000.0001) %MON advcfl_uvel_max              =   2.3976990680954E-04
(PID.TID 0000.0001) %MON advcfl_vvel_max              =   2.3119324654806E-04
(PID.TID 0000.0001) %MON advcfl_wvel_max              =   4.4997248353650E-04
(PID.TID 0000.0001) %MON advcfl_W_hf_max              =   8.9994496707299E-04
(PID.TID 0000.0001) %MON pe_b_mean                    =   2.8578251376476E-05
(PID.TID 0000.0001) %MON ke_max                       =   2.2811713405712E-03
(PID.TID 0000.0001) %MON ke_mean                      =   5.5591049598493E-05
(PID.TID 0000.0001) %MON ke_vol                       =   3.2000000000048E+01
(PID.TID 0000.0001) %MON vort_r_min                   =  -6.7888403232352E-15
(PID.TID 0000.0001) %MON vort_r_max                   =   6.7850456156315E-15
(PID.TID 0000.0001) %MON vort_a_mean                  =   1.2499999999981E+03
(PID.TID 0000.0001) %MON vort_a_sd                    =   1.5299156555768E-03
(PID.TID 0000.0001) %MON vort_p_mean                  =   1.2499999999981E+03
(PID.TID 0000.0001) %MON vort_p_sd                    =   1.5299156555768E-03
(PID.TID 0000.0001) %MON surfExpan_theta_mean         =   2.4661679722284E-08
(PID.TID 0000.0001) %MON surfExpan_salt_mean          =  -7.2351436772094E-18
(PID.TID 0000.0001) // =======================================================
(PID.TID 0000.0001) // End MONITOR dynamic field statistics
(PID.TID 0000.0001) // =======================================================
 cg2d: Sum(rhs),rhsMax =  -8.38218383591993E-15  1.66196401097917E+03
(PID.TID 0000.0001)                    cg2d_init_res =    4.47384594157446E+00
(PID.TID 0000.0001)                       cg2d_iters =    70
(PID.TID 0000.0001)                         cg2d_res =    9.90603692973089E-10
 cg3d: Sum(rhs),rhsMax =   1.66724273276131E-14  8.30748036583769E+02
(PID.TID 0000.0001)                    cg3d_init_res =    5.00628629122845E+00
(PID.TID 0000.0001)                       cg3d_iters =    40
(PID.TID 0000.0001)                         cg3d_res =    1.91282978760808E-04
(PID.TID 0000.0001) // =======================================================
(PID.TID 0000.0001) // Begin MONITOR dynamic field statistics
(PID.TID 0000.0001) // =======================================================
(PID.TID 0000.0001) %MON time_tsnumber                =                     3
(PID.TID 0000.0001) %MON time_secondsf                =   6.0000000000000E-04
(PID.TID 0000.0001) %MON dynstat_eta_max              =   2.3220420342451E-06
(PID.TID 0000.0001) %MON dynstat_eta_min              =  -2.2905738570999E-06
(PID.TID 0000.0001) %MON dynstat_eta_mean             =   7.6783603961904E-21
(PID.TID 0000.0001) %MON dynstat_eta_sd               =   1.1793394878506E-06
(PID.TID 0000.0001) %MON dynstat_eta_del2             =   1.0043297110646E-06
(PID.TID 0000.0001) %MON dynstat_uvel_max             =   1.7303224455154E-01
(PID.TID 0000.0001) %MON dynstat_uvel_min             =  -1.6746470440942E-01
(PID.TID 0000.0001) %MON dynstat_uvel_mean            =  -2.7162491085279E-19
(PID.TID 0000.0001) %MON dynstat_uvel_sd              =   1.5316383652446E-02
(PID.TID 0000.0001) %MON dynstat_uvel_del2            =   3.5327215232912E-03
(PID.TID 0000.0001) %MON dynstat_vvel_max             =   1.5975494532606E-01
(PID.TID 0000.0001) %MON dynstat_vvel_min             =  -1.5844669181919E-01
(PID.TID 0000.0001) %MON dynstat_vvel_mean            =   1.9208846840588E-19
(PID.TID 0000.0001) %MON dynstat_vvel_sd              =   1.5410089468420E-02
(PID.TID 0000.0001) %MON dynstat_vvel_del2            =   3.5277201819959E-03
(PID.TID 0000.0001) %MON dynstat_wvel_max             =   4.0298340420269E-01
(PID.TID 0000.0001) %MON dynstat_wvel_min             =  -3.9579708407549E-01
(PID.TID 0000.0001) %MON dynstat_wvel_mean            =   3.4707147209025E-19
(PID.TID 0000.0001) %MON dynstat_wvel_sd              =   4.4907537506524E-02
(PID.TID 0000.0001) %MON dynstat_wvel_del2            =   1.0107847999396E-02
(PID.TID 0000.0001) %MON dynstat_theta_max            =   1.0000000000000E+00
(PID.TID 0000.0001) %MON dynstat_theta_min            =   9.9410812997046E-01
(PID.TID 0000.0001) %MON dynstat_theta_mean           =   9.9969849216008E-01
(PID.TID 0000.0001) %MON dynstat_theta_sd             =   1.2769446051881E-03
(PID.TID 0000.0001) %MON dynstat_theta_del2           =   6.2565647251303E-07
(PID.TID 0000.0001) %MON dynstat_salt_max             =   3.5000000000000E+01
(PID.TID 0000.0001) %MON dynstat_salt_min             =   3.5000000000000E+01
(PID.TID 0000.0001) %MON dynstat_salt_mean            =   3.4999999999948E+01
(PID.TID 0000.0001) %MON dynstat_salt_sd              =   5.2423843044373E-11
(PID.TID 0000.0001) %MON dynstat_salt_del2            =   0.0000000000000E+00
(PID.TID 0000.0001) %MON advcfl_uvel_max              =   5.5370318256494E-04
(PID.TID 0000.0001) %MON advcfl_vvel_max              =   5.1121582504340E-04
(PID.TID 0000.0001) %MON advcfl_wvel_max              =   8.0596680840538E-04
(PID.TID 0000.0001) %MON advcfl_W_hf_max              =   1.6119336168108E-03
(PID.TID 0000.0001) %MON pe_b_mean                    =   4.8679456966063E-05
(PID.TID 0000.0001) %MON ke_max                       =   1.1203091840843E-02
(PID.TID 0000.0001) %MON ke_mean                      =   2.3603123280680E-04
(PID.TID 0000.0001) %MON ke_vol                       =   3.2000000000048E+01
(PID.TID 0000.0001) %MON vort_r_min                   =  -5.3066546765686E-01
(PID.TID 0000.0001) %MON vort_r_max                   =   5.2374931595679E-01
(PID.TID 0000.0001) %MON vort_a_mean                  =   1.2499999999981E+03
(PID.TID 0000.0001) %MON vort_a_sd                    =   5.1498582239226E-02
(PID.TID 0000.0001) %MON vort_p_mean                  =   1.2499999999981E+03
(PID.TID 0000.0001) %MON vort_p_sd                    =   5.1498582239226E-02
(PID.TID 0000.0001) %MON surfExpan_theta_mean         =   1.0908591478431E-08
(PID.TID 0000.0001) %MON surfExpan_salt_mean          =  -8.4003433752761E-18
(PID.TID 0000.0001) // =======================================================
(PID.TID 0000.0001) // End MONITOR dynamic field statistics
(PID.TID 0000.0001) // =======================================================
 cg2d: Sum(rhs),rhsMax =  -3.36272483220101E-07  2.38416291451148E+03
(PID.TID 0000.0001)                    cg2d_init_res =    7.90564781765535E+00
(PID.TID 0000.0001)                       cg2d_iters =    86
(PID.TID 0000.0001)                         cg2d_res =    8.71575821916282E-10
 cg3d: Sum(rhs),rhsMax =  -2.71924305988991E-11  1.27920334761012E+03
(PID.TID 0000.0001)                    cg3d_init_res =    9.40857821591187E+00
(PID.TID 0000.0001)                       cg3d_iters =    40
(PID.TID 0000.0001)                         cg3d_res =    5.58588322842797E-04
(PID.TID 0000.0001) // =======================================================
(PID.TID 0000.0001) // Begin MONITOR dynamic field statistics
(PID.TID 0000.0001) // =======================================================
(PID.TID 0000.0001) %MON time_tsnumber                =                     4
(PID.TID 0000.0001) %MON time_secondsf                =   8.0000000000000E-04
(PID.TID 0000.0001) %MON dynstat_eta_max              =   3.3220146002099E-06
(PID.TID 0000.0001) %MON dynstat_eta_min              =  -3.2841667513145E-06
(PID.TID 0000.0001) %MON dynstat_eta_mean             =   4.0086332318638E-12
(PID.TID 0000.0001) %MON dynstat_eta_sd               =   1.6937724029129E-06
(PID.TID 0000.0001) %MON dynstat_eta_del2             =   1.4475374611423E-06
(PID.TID 0000.0001) %MON dynstat_uvel_max             =   3.1875315878658E-01
(PID.TID 0000.0001) %MON dynstat_uvel_min             =  -2.9544605706818E-01
(PID.TID 0000.0001) %MON dynstat_uvel_mean            =  -2.6016201529758E-15
(PID.TID 0000.0001) %MON dynstat_uvel_sd              =   2.6446920731294E-02
(PID.TID 0000.0001) %MON dynstat_uvel_del2            =   5.8962533435385E-03
(PID.TID 0000.0001) %MON dynstat_vvel_max             =   2.8692025450588E-01
(PID.TID 0000.0001) %MON dynstat_vvel_min             =  -2.7696786078794E-01
(PID.TID 0000.0001) %MON dynstat_vvel_mean            =   1.9942065993710E-15
(PID.TID 0000.0001) %MON dynstat_vvel_sd              =   2.6499201633663E-02
(PID.TID 0000.0001) %MON dynstat_vvel_del2            =   5.8795503492446E-03
(PID.TID 0000.0001) %MON dynstat_wvel_max             =   6.7754354332352E-01
(PID.TID 0000.0001) %MON dynstat_wvel_min             =  -6.7200526926727E-01
(PID.TID 0000.0001) %MON dynstat_wvel_mean            =   6.1858112509925E-19
(PID.TID 0000.0001) %MON dynstat_wvel_sd              =   7.6578919276867E-02
(PID.TID 0000.0001) %MON dynstat_wvel_del2            =   1.7514664979106E-02
(PID.TID 0000.0001) %MON dynstat_theta_max            =   1.0000000000000E+00
(PID.TID 0000.0001) %MON dynstat_theta_min            =   9.9222421608739E-01
(PID.TID 0000.0001) %MON dynstat_theta_mean           =   9.9959798954782E-01
(PID.TID 0000.0001) %MON dynstat_theta_sd             =   1.6845968606207E-03
(PID.TID 0000.0001) %MON dynstat_theta_del2           =   8.3802863308154E-07
(PID.TID 0000.0001) %MON dynstat_salt_max             =   3.5000000000000E+01
(PID.TID 0000.0001) %MON dynstat_salt_min             =   3.5000000000000E+01
(PID.TID 0000.0001) %MON dynstat_salt_mean            =   3.4999999999948E+01
(PID.TID 0000.0001) %MON dynstat_salt_sd              =   5.2423843044373E-11
(PID.TID 0000.0001) %MON dynstat_salt_del2            =   0.0000000000000E+00
(PID.TID 0000.0001) %MON advcfl_uvel_max              =   1.0200101081171E-03
(PID.TID 0000.0001) %MON advcfl_vvel_max              =   9.1814481441882E-04
(PID.TID 0000.0001) %MON advcfl_wvel_max              =   1.3550870866470E-03
(PID.TID 0000.0001) %MON advcfl_W_hf_max              =   2.7101741732941E-03
(PID.TID 0000.0001) %MON pe_b_mean                    =   1.0041027335085E-04
(PID.TID 0000.0001) %MON ke_max                       =   3.6098084167219E-02
(PID.TID 0000.0001) %MON ke_mean                      =   7.0082365169445E-04
(PID.TID 0000.0001) %MON ke_vol                       =   3.2000000000048E+01
(PID.TID 0000.0001) %MON vort_r_min                   =  -1.3729994917368E+00
(PID.TID 0000.0001) %MON vort_r_max                   =   1.2598483911133E+00
(PID.TID 0000.0001) %MON vort_a_mean                  =   1.2499999999981E+03
(PID.TID 0000.0001) %MON vort_a_sd                    =   1.2913470671460E-01
(PID.TID 0000.0001) %MON vort_p_mean                  =   1.2499999999981E+03
(PID.TID 0000.0001) %MON vort_p_sd                    =   1.2913470671460E-01
(PID.TID 0000.0001) %MON surfExpan_theta_mean         =   2.2108548763648E-08
(PID.TID 0000.0001) %MON surfExpan_salt_mean          =   7.1362525806175E-19
(PID.TID 0000.0001) // =======================================================
(PID.TID 0000.0001) // End MONITOR dynamic field statistics
(PID.TID 0000.0001) // =======================================================
 cg2d: Sum(rhs),rhsMax =  -9.71776268260394E-07  3.07615221988744E+03
(PID.TID 0000.0001)                    cg2d_init_res =    5.87575433034045E+00
(PID.TID 0000.0001)                       cg2d_iters =    85
(PID.TID 0000.0001)                         cg2d_res =    9.57019591046292E-10
 cg3d: Sum(rhs),rhsMax =  -1.42390873397735E-11  1.73835321727961E+03
(PID.TID 0000.0001)                    cg3d_init_res =    7.25734721437140E+00
(PID.TID 0000.0001)                       cg3d_iters =    40
(PID.TID 0000.0001)                         cg3d_res =    4.44996994128609E-04
(PID.TID 0000.0001) // =======================================================
(PID.TID 0000.0001) // Begin MONITOR dynamic field statistics
(PID.TID 0000.0001) // =======================================================
(PID.TID 0000.0001) %MON time_tsnumber                =                     5
(PID.TID 0000.0001) %MON time_secondsf                =   1.0000000000000E-03
(PID.TID 0000.0001) %MON dynstat_eta_max              =   4.7352004201188E-06
(PID.TID 0000.0001) %MON dynstat_eta_min              =  -4.6551642032295E-06
(PID.TID 0000.0001) %MON dynstat_eta_mean             =   1.4946652498788E-11
(PID.TID 0000.0001) %MON dynstat_eta_sd               =   2.2881890902444E-06
(PID.TID 0000.0001) %MON dynstat_eta_del2             =   1.8686001157094E-06
(PID.TID 0000.0001) %MON dynstat_uvel_max             =   5.2216773579939E-01
(PID.TID 0000.0001) %MON dynstat_uvel_min             =  -4.6643797745359E-01
(PID.TID 0000.0001) %MON dynstat_uvel_mean            =   2.2327961405452E-14
(PID.TID 0000.0001) %MON dynstat_uvel_sd              =   4.0933283959093E-02
(PID.TID 0000.0001) %MON dynstat_uvel_del2            =   8.6796157182587E-03
(PID.TID 0000.0001) %MON dynstat_vvel_max             =   4.6109569168525E-01
(PID.TID 0000.0001) %MON dynstat_vvel_min             =  -4.4050052262501E-01
(PID.TID 0000.0001) %MON dynstat_vvel_mean            =  -1.3634242298915E-14
(PID.TID 0000.0001) %MON dynstat_vvel_sd              =   4.0880956050953E-02
(PID.TID 0000.0001) %MON dynstat_vvel_del2            =   8.6428122798084E-03
(PID.TID 0000.0001) %MON dynstat_wvel_max             =   1.0524425459329E+00
(PID.TID 0000.0001) %MON dynstat_wvel_min             =  -1.0413159005788E+00
(PID.TID 0000.0001) %MON dynstat_wvel_mean            =  -6.0213536989299E-19
(PID.TID 0000.0001) %MON dynstat_wvel_sd              =   1.1686860859331E-01
(PID.TID 0000.0001) %MON dynstat_wvel_del2            =   2.6415234470203E-02
(PID.TID 0000.0001) %MON dynstat_theta_max            =   1.0000000000000E+00
(PID.TID 0000.0001) %MON dynstat_theta_min            =   9.9037230316349E-01
(PID.TID 0000.0001) %MON dynstat_theta_mean           =   9.9949748693295E-01
(PID.TID 0000.0001) %MON dynstat_theta_sd             =   2.0848671049604E-03
(PID.TID 0000.0001) %MON dynstat_theta_del2           =   1.1524217573259E-06
(PID.TID 0000.0001) %MON dynstat_salt_max             =   3.5000000000000E+01
(PID.TID 0000.0001) %MON dynstat_salt_min             =   3.5000000000000E+01
(PID.TID 0000.0001) %MON dynstat_salt_mean            =   3.4999999999948E+01
(PID.TID 0000.0001) %MON dynstat_salt_sd              =   5.2423843044373E-11
(PID.TID 0000.0001) %MON dynstat_salt_del2            =   0.0000000000000E+00
(PID.TID 0000.0001) %MON advcfl_uvel_max              =   1.6709367545580E-03
(PID.TID 0000.0001) %MON advcfl_vvel_max              =   1.4755062133928E-03
(PID.TID 0000.0001) %MON advcfl_wvel_max              =   2.1048850918658E-03
(PID.TID 0000.0001) %MON advcfl_W_hf_max              =   4.2097701837316E-03
(PID.TID 0000.0001) %MON pe_b_mean                    =   1.8325332595253E-04
(PID.TID 0000.0001) %MON ke_max                       =   9.2897452315305E-02
(PID.TID 0000.0001) %MON ke_mean                      =   1.6733931516578E-03
(PID.TID 0000.0001) %MON ke_vol                       =   3.2000000000048E+01
(PID.TID 0000.0001) %MON vort_r_min                   =  -2.7238092331397E+00
(PID.TID 0000.0001) %MON vort_r_max                   =   2.4724483100334E+00
(PID.TID 0000.0001) %MON vort_a_mean                  =   1.2499999999981E+03
(PID.TID 0000.0001) %MON vort_a_sd                    =   2.5122549085397E-01
(PID.TID 0000.0001) %MON vort_p_mean                  =   1.2499999999981E+03
(PID.TID 0000.0001) %MON vort_p_sd                    =   2.5122549085397E-01
(PID.TID 0000.0001) %MON surfExpan_theta_mean         =   3.0500058718702E-08
(PID.TID 0000.0001) %MON surfExpan_salt_mean          =   1.0009811854178E-17
(PID.TID 0000.0001) // =======================================================
(PID.TID 0000.0001) // End MONITOR dynamic field statistics
(PID.TID 0000.0001) // =======================================================
 cg2d: Sum(rhs),rhsMax =  -2.26003617256887E-06  4.22923677340303E+03
(PID.TID 0000.0001)                    cg2d_init_res =    7.12958283464449E+00
(PID.TID 0000.0001)                       cg2d_iters =    86
(PID.TID 0000.0001)                         cg2d_res =    6.85650032989452E-10
 cg3d: Sum(rhs),rhsMax =  -3.92296264917213E-12  2.54647254178732E+03
(PID.TID 0000.0001)                    cg3d_init_res =    8.86911939278599E+00
(PID.TID 0000.0001)                       cg3d_iters =    40
(PID.TID 0000.0001)                         cg3d_res =    3.48974026164597E-04
(PID.TID 0000.0001) // =======================================================
(PID.TID 0000.0001) // Begin MONITOR dynamic field statistics
(PID.TID 0000.0001) // =======================================================
(PID.TID 0000.0001) %MON time_tsnumber                =                     6
(PID.TID 0000.0001) %MON time_secondsf                =   1.2000000000000E-03
(PID.TID 0000.0001) %MON dynstat_eta_max              =   6.7622010497978E-06
(PID.TID 0000.0001) %MON dynstat_eta_min              =  -6.6107751103593E-06
(PID.TID 0000.0001) %MON dynstat_eta_mean             =   4.7791138266596E-11
(PID.TID 0000.0001) %MON dynstat_eta_sd               =   3.2106625854597E-06
(PID.TID 0000.0001) %MON dynstat_eta_del2             =   2.5837381570161E-06
(PID.TID 0000.0001) %MON dynstat_uvel_max             =   8.1061833241753E-01
(PID.TID 0000.0001) %MON dynstat_uvel_min             =  -7.1182456382698E-01
(PID.TID 0000.0001) %MON dynstat_uvel_mean            =   1.7902609579121E-13
(PID.TID 0000.0001) %MON dynstat_uvel_sd              =   6.1168245814981E-02
(PID.TID 0000.0001) %MON dynstat_uvel_del2            =   1.2661640251667E-02
(PID.TID 0000.0001) %MON dynstat_vvel_max             =   7.0674488825536E-01
(PID.TID 0000.0001) %MON dynstat_vvel_min             =  -6.7111764894056E-01
(PID.TID 0000.0001) %MON dynstat_vvel_mean            =  -1.2149423974030E-13
(PID.TID 0000.0001) %MON dynstat_vvel_sd              =   6.0976004805341E-02
(PID.TID 0000.0001) %MON dynstat_vvel_del2            =   1.2603037334522E-02
(PID.TID 0000.0001) %MON dynstat_wvel_max             =   1.5950982041850E+00
(PID.TID 0000.0001) %MON dynstat_wvel_min             =  -1.5580597372100E+00
(PID.TID 0000.0001) %MON dynstat_wvel_mean            =  -2.6601148511437E-19
(PID.TID 0000.0001) %MON dynstat_wvel_sd              =   1.7578251401490E-01
(PID.TID 0000.0001) %MON dynstat_wvel_del2            =   4.0141475811048E-02
(PID.TID 0000.0001) %MON dynstat_theta_max            =   1.0000000000000E+00
(PID.TID 0000.0001) %MON dynstat_theta_min            =   9.8854919109276E-01
(PID.TID 0000.0001) %MON dynstat_theta_mean           =   9.9939698431734E-01
(PID.TID 0000.0001) %MON dynstat_theta_sd             =   2.4781152469227E-03
(PID.TID 0000.0001) %MON dynstat_theta_del2           =   1.5760299283348E-06
(PID.TID 0000.0001) %MON dynstat_salt_max             =   3.5000000000000E+01
(PID.TID 0000.0001) %MON dynstat_salt_min             =   3.5000000000000E+01
(PID.TID 0000.0001) %MON dynstat_salt_mean            =   3.4999999999948E+01
(PID.TID 0000.0001) %MON dynstat_salt_sd              =   5.2423843044373E-11
(PID.TID 0000.0001) %MON dynstat_salt_del2            =   0.0000000000000E+00
(PID.TID 0000.0001) %MON advcfl_uvel_max              =   2.5939786637361E-03
(PID.TID 0000.0001) %MON advcfl_vvel_max              =   2.2615836424172E-03
(PID.TID 0000.0001) %MON advcfl_wvel_max              =   3.1901964083699E-03
(PID.TID 0000.0001) %MON advcfl_W_hf_max              =   6.3803928167398E-03
(PID.TID 0000.0001) %MON pe_b_mean                    =   3.6079239839790E-04
(PID.TID 0000.0001) %MON ke_max                       =   2.1857702209509E-01
(PID.TID 0000.0001) %MON ke_mean                      =   3.7298137290515E-03
(PID.TID 0000.0001) %MON ke_vol                       =   3.2000000000048E+01
(PID.TID 0000.0001) %MON vort_r_min                   =  -4.6949146239220E+00
(PID.TID 0000.0001) %MON vort_r_max                   =   4.2845518414265E+00
(PID.TID 0000.0001) %MON vort_a_mean                  =   1.2499999999981E+03
(PID.TID 0000.0001) %MON vort_a_sd                    =   4.2718941324057E-01
(PID.TID 0000.0001) %MON vort_p_mean                  =   1.2499999999981E+03
(PID.TID 0000.0001) %MON vort_p_sd                    =   4.2718941324057E-01
(PID.TID 0000.0001) %MON surfExpan_theta_mean         =   5.4971562874933E-08
(PID.TID 0000.0001) %MON surfExpan_salt_mean          =   4.2081443852541E-17
(PID.TID 0000.0001) // =======================================================
(PID.TID 0000.0001) // End MONITOR dynamic field statistics
(PID.TID 0000.0001) // =======================================================
 cg2d: Sum(rhs),rhsMax =  -4.47968509861840E-06  5.75057441808710E+03
(PID.TID 0000.0001)                    cg2d_init_res =    6.87568437376404E+00
(PID.TID 0000.0001)                       cg2d_iters =    86
(PID.TID 0000.0001)                         cg2d_res =    5.31128123930413E-10
 cg3d: Sum(rhs),rhsMax =  -1.35449811089483E-12  3.64131298477129E+03
(PID.TID 0000.0001)                    cg3d_init_res =    8.39806980489102E+00
(PID.TID 0000.0001)                       cg3d_iters =    40
(PID.TID 0000.0001)                         cg3d_res =    2.91958528800592E-04
(PID.TID 0000.0001) // =======================================================
(PID.TID 0000.0001) // Begin MONITOR dynamic field statistics
(PID.TID 0000.0001) // =======================================================
(PID.TID 0000.0001) %MON time_tsnumber                =                     7
(PID.TID 0000.0001) %MON time_secondsf                =   1.4000000000000E-03
(PID.TID 0000.0001) %MON dynstat_eta_max              =   1.0012454783311E-05
(PID.TID 0000.0001) %MON dynstat_eta_min              =  -9.6337482498298E-06
(PID.TID 0000.0001) %MON dynstat_eta_mean             =   1.2880381171948E-10
(PID.TID 0000.0001) %MON dynstat_eta_sd               =   4.5364489998906E-06
(PID.TID 0000.0001) %MON dynstat_eta_del2             =   3.5146687558984E-06
(PID.TID 0000.0001) %MON dynstat_uvel_max             =   1.2294908934540E+00
(PID.TID 0000.0001) %MON dynstat_uvel_min             =  -1.0599656127218E+00
(PID.TID 0000.0001) %MON dynstat_uvel_mean            =   5.4072556369637E-13
(PID.TID 0000.0001) %MON dynstat_uvel_sd              =   9.0020307360818E-02
(PID.TID 0000.0001) %MON dynstat_uvel_del2            =   1.8115378712394E-02
(PID.TID 0000.0001) %MON dynstat_vvel_max             =   1.0581996597523E+00
(PID.TID 0000.0001) %MON dynstat_vvel_min             =  -1.0010302063496E+00
(PID.TID 0000.0001) %MON dynstat_vvel_mean            =  -4.1000052366197E-13
(PID.TID 0000.0001) %MON dynstat_vvel_sd              =   8.9702146288028E-02
(PID.TID 0000.0001) %MON dynstat_vvel_del2            =   1.8034619143365E-02
(PID.TID 0000.0001) %MON dynstat_wvel_max             =   2.3890844212640E+00
(PID.TID 0000.0001) %MON dynstat_wvel_min             =  -2.3584181404872E+00
(PID.TID 0000.0001) %MON dynstat_wvel_mean            =  -1.7218120233622E-18
(PID.TID 0000.0001) %MON dynstat_wvel_sd              =   2.6140904032175E-01
(PID.TID 0000.0001) %MON dynstat_wvel_del2            =   5.9382501764025E-02
(PID.TID 0000.0001) %MON dynstat_theta_max            =   1.0000000000000E+00
(PID.TID 0000.0001) %MON dynstat_theta_min            =   9.8675116950408E-01
(PID.TID 0000.0001) %MON dynstat_theta_mean           =   9.9929648169835E-01
(PID.TID 0000.0001) %MON dynstat_theta_sd             =   2.8646788876031E-03
(PID.TID 0000.0001) %MON dynstat_theta_del2           =   2.2254622567916E-06
(PID.TID 0000.0001) %MON dynstat_salt_max             =   3.5000000000000E+01
(PID.TID 0000.0001) %MON dynstat_salt_min             =   3.5000000000000E+01
(PID.TID 0000.0001) %MON dynstat_salt_mean            =   3.4999999999948E+01
(PID.TID 0000.0001) %MON dynstat_salt_sd              =   5.2423843044373E-11
(PID.TID 0000.0001) %MON dynstat_salt_del2            =   0.0000000000000E+00
(PID.TID 0000.0001) %MON advcfl_uvel_max              =   3.9343708590527E-03
(PID.TID 0000.0001) %MON advcfl_vvel_max              =   3.3862389112074E-03
(PID.TID 0000.0001) %MON advcfl_wvel_max              =   4.7781688425280E-03
(PID.TID 0000.0001) %MON advcfl_W_hf_max              =   9.5563376850561E-03
(PID.TID 0000.0001) %MON pe_b_mean                    =   7.2027793408092E-04
(PID.TID 0000.0001) %MON ke_max                       =   4.9056786153330E-01
(PID.TID 0000.0001) %MON ke_mean                      =   8.0750653930075E-03
(PID.TID 0000.0001) %MON ke_vol                       =   3.2000000000048E+01
(PID.TID 0000.0001) %MON vort_r_min                   =  -7.5762049064568E+00
(PID.TID 0000.0001) %MON vort_r_max                   =   6.9683151095392E+00
(PID.TID 0000.0001) %MON vort_a_mean                  =   1.2499999999981E+03
(PID.TID 0000.0001) %MON vort_a_sd                    =   6.8157976323069E-01
(PID.TID 0000.0001) %MON vort_p_mean                  =   1.2499999999981E+03
(PID.TID 0000.0001) %MON vort_p_sd                    =   6.8157976323069E-01
(PID.TID 0000.0001) %MON surfExpan_theta_mean         =   9.9457679397825E-08
(PID.TID 0000.0001) %MON surfExpan_salt_mean          =   2.7236344418962E-18
(PID.TID 0000.0001) // =======================================================
(PID.TID 0000.0001) // End MONITOR dynamic field statistics
(PID.TID 0000.0001) // =======================================================
 cg2d: Sum(rhs),rhsMax =  -8.12768540876807E-06  8.18619829093472E+03
(PID.TID 0000.0001)                    cg2d_init_res =    7.66017798737238E+00
(PID.TID 0000.0001)                       cg2d_iters =    86
(PID.TID 0000.0001)                         cg2d_res =    6.42871557529020E-10
 cg3d: Sum(rhs),rhsMax =  -6.26678396675739E-13  5.42765091253080E+03
(PID.TID 0000.0001)                    cg3d_init_res =    9.14906371717296E+00
(PID.TID 0000.0001)                       cg3d_iters =    40
(PID.TID 0000.0001)                         cg3d_res =    2.42722858876781E-04
(PID.TID 0000.0001) // =======================================================
(PID.TID 0000.0001) // Begin MONITOR dynamic field statistics
(PID.TID 0000.0001) // =======================================================
(PID.TID 0000.0001) %MON time_tsnumber                =                     8
(PID.TID 0000.0001) %MON time_secondsf                =   1.6000000000000E-03
(PID.TID 0000.0001) %MON dynstat_eta_max              =   1.5138695210149E-05
(PID.TID 0000.0001) %MON dynstat_eta_min              =  -1.4409802750647E-05
(PID.TID 0000.0001) %MON dynstat_eta_mean             =   3.3267422087744E-10
(PID.TID 0000.0001) %MON dynstat_eta_sd               =   6.6264471311544E-06
(PID.TID 0000.0001) %MON dynstat_eta_del2             =   5.0044690065142E-06
(PID.TID 0000.0001) %MON dynstat_uvel_max             =   1.8515275388802E+00
(PID.TID 0000.0001) %MON dynstat_uvel_min             =  -1.5952513491469E+00
(PID.TID 0000.0001) %MON dynstat_uvel_mean            =   1.8767063260273E-12
(PID.TID 0000.0001) %MON dynstat_uvel_sd              =   1.3304108152316E-01
(PID.TID 0000.0001) %MON dynstat_uvel_del2            =   2.6242267001840E-02
(PID.TID 0000.0001) %MON dynstat_vvel_max             =   1.5772322810481E+00
(PID.TID 0000.0001) %MON dynstat_vvel_min             =  -1.4868752933257E+00
(PID.TID 0000.0001) %MON dynstat_vvel_mean            =  -1.3419869540075E-12
(PID.TID 0000.0001) %MON dynstat_vvel_sd              =   1.3269154350828E-01
(PID.TID 0000.0001) %MON dynstat_vvel_del2            =   2.6137857475672E-02
(PID.TID 0000.0001) %MON dynstat_wvel_max             =   3.6103030568312E+00
(PID.TID 0000.0001) %MON dynstat_wvel_min             =  -3.5594959742451E+00
(PID.TID 0000.0001) %MON dynstat_wvel_mean            =   2.1407908645148E-18
(PID.TID 0000.0001) %MON dynstat_wvel_sd              =   3.9319333167780E-01
(PID.TID 0000.0001) %MON dynstat_wvel_del2            =   8.9058259250015E-02
(PID.TID 0000.0001) %MON dynstat_theta_max            =   1.0000000000000E+00
(PID.TID 0000.0001) %MON dynstat_theta_min            =   9.8497242760423E-01
(PID.TID 0000.0001) %MON dynstat_theta_mean           =   9.9919597907387E-01
(PID.TID 0000.0001) %MON dynstat_theta_sd             =   3.2448738603248E-03
(PID.TID 0000.0001) %MON dynstat_theta_del2           =   3.1892564227107E-06
(PID.TID 0000.0001) %MON dynstat_salt_max             =   3.5000000000000E+01
(PID.TID 0000.0001) %MON dynstat_salt_min             =   3.5000000000000E+01
(PID.TID 0000.0001) %MON dynstat_salt_mean            =   3.4999999999948E+01
(PID.TID 0000.0001) %MON dynstat_salt_sd              =   5.2423843044373E-11
(PID.TID 0000.0001) %MON dynstat_salt_del2            =   0.0000000000000E+00
(PID.TID 0000.0001) %MON advcfl_uvel_max              =   5.9248881244166E-03
(PID.TID 0000.0001) %MON advcfl_vvel_max              =   5.0471432993539E-03
(PID.TID 0000.0001) %MON advcfl_wvel_max              =   7.2206061136624E-03
(PID.TID 0000.0001) %MON advcfl_W_hf_max              =   1.4441212227325E-02
(PID.TID 0000.0001) %MON pe_b_mean                    =   1.5368430592408E-03
(PID.TID 0000.0001) %MON ke_max                       =   1.0930587111697E+00
(PID.TID 0000.0001) %MON ke_mean                      =   1.7653487545731E-02
(PID.TID 0000.0001) %MON ke_vol                       =   3.2000000000048E+01
(PID.TID 0000.0001) %MON vort_r_min                   =  -1.1778069718447E+01
(PID.TID 0000.0001) %MON vort_r_max                   =   1.0955367165228E+01
(PID.TID 0000.0001) %MON vort_a_mean                  =   1.2499999999981E+03
(PID.TID 0000.0001) %MON vort_a_sd                    =   1.0525224717096E+00
(PID.TID 0000.0001) %MON vort_p_mean                  =   1.2499999999981E+03
(PID.TID 0000.0001) %MON vort_p_sd                    =   1.0525224717096E+00
(PID.TID 0000.0001) %MON surfExpan_theta_mean         =   2.0394616516870E-07
(PID.TID 0000.0001) %MON surfExpan_salt_mean          =   3.5562678290472E-17
(PID.TID 0000.0001) // =======================================================
(PID.TID 0000.0001) // End MONITOR dynamic field statistics
(PID.TID 0000.0001) // =======================================================
 cg2d: Sum(rhs),rhsMax =  -1.41507445946543E-05  1.17257798686810E+04
(PID.TID 0000.0001)                    cg2d_init_res =    7.90158762511328E+00
(PID.TID 0000.0001)                       cg2d_iters =    86
(PID.TID 0000.0001)                         cg2d_res =    5.66486064142082E-10
 cg3d: Sum(rhs),rhsMax =  -4.35727842695854E-13  8.04919086204793E+03
(PID.TID 0000.0001)                    cg3d_init_res =    9.23868548348938E+00
(PID.TID 0000.0001)                       cg3d_iters =    40
(PID.TID 0000.0001)                         cg3d_res =    2.13741042184983E-04
(PID.TID 0000.0001) // =======================================================
(PID.TID 0000.0001) // Begin MONITOR dynamic field statistics
(PID.TID 0000.0001) // =======================================================
(PID.TID 0000.0001) %MON time_tsnumber                =                     9
(PID.TID 0000.0001) %MON time_secondsf                =   1.8000000000000E-03
(PID.TID 0000.0001) %MON dynstat_eta_max              =   2.3489357639007E-05
(PID.TID 0000.0001) %MON dynstat_eta_min              =  -2.2060463135418E-05
(PID.TID 0000.0001) %MON dynstat_eta_mean             =   8.2964257948290E-10
(PID.TID 0000.0001) %MON dynstat_eta_sd               =   9.8891357354873E-06
(PID.TID 0000.0001) %MON dynstat_eta_del2             =   7.1907472768543E-06
(PID.TID 0000.0001) %MON dynstat_uvel_max             =   2.8004274804502E+00
(PID.TID 0000.0001) %MON dynstat_uvel_min             =  -2.4262330743868E+00
(PID.TID 0000.0001) %MON dynstat_uvel_mean            =   6.1480241352908E-12
(PID.TID 0000.0001) %MON dynstat_uvel_sd              =   1.9891339154813E-01
(PID.TID 0000.0001) %MON dynstat_uvel_del2            =   3.8357641167975E-02
(PID.TID 0000.0001) %MON dynstat_vvel_max             =   2.3606628885253E+00
(PID.TID 0000.0001) %MON dynstat_vvel_min             =  -2.2555442935407E+00
(PID.TID 0000.0001) %MON dynstat_vvel_mean            =  -3.7213761751521E-12
(PID.TID 0000.0001) %MON dynstat_vvel_sd              =   1.9874527813431E-01
(PID.TID 0000.0001) %MON dynstat_vvel_del2            =   3.8242356097189E-02
(PID.TID 0000.0001) %MON dynstat_wvel_max             =   5.5474122545665E+00
(PID.TID 0000.0001) %MON dynstat_wvel_min             =  -5.4494298607604E+00
(PID.TID 0000.0001) %MON dynstat_wvel_mean            =   4.3504860501126E-19
(PID.TID 0000.0001) %MON dynstat_wvel_sd              =   5.9822144783756E-01
(PID.TID 0000.0001) %MON dynstat_wvel_del2            =   1.3370816359778E-01
(PID.TID 0000.0001) %MON dynstat_theta_max            =   1.0000000000000E+00
(PID.TID 0000.0001) %MON dynstat_theta_min            =   9.8320316894209E-01
(PID.TID 0000.0001) %MON dynstat_theta_mean           =   9.9909547643526E-01
(PID.TID 0000.0001) %MON dynstat_theta_sd             =   3.6189957244916E-03
(PID.TID 0000.0001) %MON dynstat_theta_del2           =   4.7119449977899E-06
(PID.TID 0000.0001) %MON dynstat_salt_max             =   3.5000000000000E+01
(PID.TID 0000.0001) %MON dynstat_salt_min             =   3.5000000000000E+01
(PID.TID 0000.0001) %MON dynstat_salt_mean            =   3.4999999999948E+01
(PID.TID 0000.0001) %MON dynstat_salt_sd              =   5.2423843044373E-11
(PID.TID 0000.0001) %MON dynstat_salt_del2            =   0.0000000000000E+00
(PID.TID 0000.0001) %MON advcfl_uvel_max              =   8.9613679374408E-03
(PID.TID 0000.0001) %MON advcfl_vvel_max              =   7.5541212432809E-03
(PID.TID 0000.0001) %MON advcfl_wvel_max              =   1.1094824509133E-02
(PID.TID 0000.0001) %MON advcfl_W_hf_max              =   2.2189649018266E-02
(PID.TID 0000.0001) %MON pe_b_mean                    =   3.4228252199070E-03
(PID.TID 0000.0001) %MON ke_max                       =   2.4679058151651E+00
(PID.TID 0000.0001) %MON ke_mean                      =   3.9533111458931E-02
(PID.TID 0000.0001) %MON ke_vol                       =   3.2000000000048E+01
(PID.TID 0000.0001) %MON vort_r_min                   =  -1.8010029085951E+01
(PID.TID 0000.0001) %MON vort_r_max                   =   1.7008006840850E+01
(PID.TID 0000.0001) %MON vort_a_mean                  =   1.2499999999981E+03
(PID.TID 0000.0001) %MON vort_a_sd                    =   1.6063923424911E+00
(PID.TID 0000.0001) %MON vort_p_mean                  =   1.2499999999981E+03
(PID.TID 0000.0001) %MON vort_p_sd                    =   1.6063923424911E+00
(PID.TID 0000.0001) %MON surfExpan_theta_mean         =   4.3971677798555E-07
(PID.TID 0000.0001) %MON surfExpan_salt_mean          =  -9.0550786676800E-17
(PID.TID 0000.0001) // =======================================================
(PID.TID 0000.0001) // End MONITOR dynamic field statistics
(PID.TID 0000.0001) // =======================================================
 cg2d: Sum(rhs),rhsMax =  -2.36855737974634E-05  1.74127043051067E+04
(PID.TID 0000.0001)                    cg2d_init_res =    8.52970487728039E+00
(PID.TID 0000.0001)                       cg2d_iters =    86
(PID.TID 0000.0001)                         cg2d_res =    6.34303202543207E-10
 cg3d: Sum(rhs),rhsMax =  -1.51895423322612E-13  1.22905743862485E+04
(PID.TID 0000.0001)                    cg3d_init_res =    9.79379977462159E+00
(PID.TID 0000.0001)                       cg3d_iters =    40
(PID.TID 0000.0001)                         cg3d_res =    2.15388271896089E-04
(PID.TID 0000.0001) // =======================================================
(PID.TID 0000.0001) // Begin MONITOR dynamic field statistics
(PID.TID 0000.0001) // =======================================================
(PID.TID 0000.0001) %MON time_tsnumber                =                    10
(PID.TID 0000.0001) %MON time_secondsf                =   2.0000000000000E-03
(PID.TID 0000.0001) %MON dynstat_eta_max              =   3.7208876397980E-05
(PID.TID 0000.0001) %MON dynstat_eta_min              =  -3.4663649881230E-05
(PID.TID 0000.0001) %MON dynstat_eta_mean             =   2.0621494634721E-09
(PID.TID 0000.0001) %MON dynstat_eta_sd               =   1.5197782895807E-05
(PID.TID 0000.0001) %MON dynstat_eta_del2             =   1.0712520997144E-05
(PID.TID 0000.0001) %MON dynstat_uvel_max             =   4.2801661663952E+00
(PID.TID 0000.0001) %MON dynstat_uvel_min             =  -3.7309351722764E+00
(PID.TID 0000.0001) %MON dynstat_uvel_mean            =   2.1339653941379E-11
(PID.TID 0000.0001) %MON dynstat_uvel_sd              =   3.0281332972398E-01
(PID.TID 0000.0001) %MON dynstat_uvel_del2            =   5.7278170440936E-02
(PID.TID 0000.0001) %MON dynstat_vvel_max             =   3.5735819944498E+00
(PID.TID 0000.0001) %MON dynstat_vvel_min             =  -3.4848717103921E+00
(PID.TID 0000.0001) %MON dynstat_vvel_mean            =  -1.0730982389290E-11
(PID.TID 0000.0001) %MON dynstat_vvel_sd              =   3.0323064730015E-01
(PID.TID 0000.0001) %MON dynstat_vvel_del2            =   5.7147775891318E-02
(PID.TID 0000.0001) %MON dynstat_wvel_max             =   8.6476314941158E+00
(PID.TID 0000.0001) %MON dynstat_wvel_min             =  -8.4414033645220E+00
(PID.TID 0000.0001) %MON dynstat_wvel_mean            =   2.6542785888118E-18
(PID.TID 0000.0001) %MON dynstat_wvel_sd              =   9.2665759390121E-01
(PID.TID 0000.0001) %MON dynstat_wvel_del2            =   2.0421206383802E-01
(PID.TID 0000.0001) %MON dynstat_theta_max            =   1.0000000000000E+00
(PID.TID 0000.0001) %MON dynstat_theta_min            =   9.8142937795687E-01
(PID.TID 0000.0001) %MON dynstat_theta_mean           =   9.9899497376520E-01
(PID.TID 0000.0001) %MON dynstat_theta_sd             =   3.9873194702604E-03
(PID.TID 0000.0001) %MON dynstat_theta_del2           =   7.1091330047957E-06
(PID.TID 0000.0001) %MON dynstat_salt_max             =   3.5000000000000E+01
(PID.TID 0000.0001) %MON dynstat_salt_min             =   3.5000000000000E+01
(PID.TID 0000.0001) %MON dynstat_salt_mean            =   3.4999999999948E+01
(PID.TID 0000.0001) %MON dynstat_salt_sd              =   5.2423843044373E-11
(PID.TID 0000.0001) %MON dynstat_salt_del2            =   0.0000000000000E+00
(PID.TID 0000.0001) %MON advcfl_uvel_max              =   1.3696531732465E-02
(PID.TID 0000.0001) %MON advcfl_vvel_max              =   1.1435462382239E-02
(PID.TID 0000.0001) %MON advcfl_wvel_max              =   1.7295262988232E-02
(PID.TID 0000.0001) %MON advcfl_W_hf_max              =   3.4590525976463E-02
(PID.TID 0000.0001) %MON pe_b_mean                    =   8.0840413220070E-03
(PID.TID 0000.0001) %MON ke_max                       =   5.7170131223804E+00
(PID.TID 0000.0001) %MON ke_mean                      =   9.1822369060298E-02
(PID.TID 0000.0001) %MON ke_vol                       =   3.2000000000048E+01
(PID.TID 0000.0001) %MON vort_r_min                   =  -2.7401359376991E+01
(PID.TID 0000.0001) %MON vort_r_max                   =   2.6409002050822E+01
(PID.TID 0000.0001) %MON vort_a_mean                  =   1.2499999999981E+03
(PID.TID 0000.0001) %MON vort_a_sd                    =   2.4537108964440E+00
(PID.TID 0000.0001) %MON vort_p_mean                  =   1.2499999999981E+03
(PID.TID 0000.0001) %MON vort_p_sd                    =   2.4537108964440E+00
(PID.TID 0000.0001) %MON surfExpan_theta_mean         =   1.0301047833205E-06
(PID.TID 0000.0001) %MON surfExpan_salt_mean          =   2.3581397251560E-18
(PID.TID 0000.0001) // =======================================================
(PID.TID 0000.0001) // End MONITOR dynamic field statistics
(PID.TID 0000.0001) // =======================================================
(PID.TID 0000.0001) %CHECKPOINT        10 ckptA
(PID.TID 0000.0001)   Seconds in section "ALL                    [THE_MODEL_MAIN]":
(PID.TID 0000.0001)           User time:  33.0099983
(PID.TID 0000.0001)         System time:  0.409999996
(PID.TID 0000.0001)     Wall clock time:  34.8656679
(PID.TID 0000.0001)          No. starts: 1
(PID.TID 0000.0001)           No. stops: 1
(PID.TID 0000.0001)   Seconds in section "INITIALISE_FIXED       [THE_MODEL_MAIN]":
(PID.TID 0000.0001)           User time:  0.270000011
(PID.TID 0000.0001)         System time:  0.0500000007
(PID.TID 0000.0001)     Wall clock time:  0.597944975
(PID.TID 0000.0001)          No. starts: 1
(PID.TID 0000.0001)           No. stops: 1
(PID.TID 0000.0001)   Seconds in section "THE_MAIN_LOOP          [THE_MODEL_MAIN]":
(PID.TID 0000.0001)           User time:  32.5499997
(PID.TID 0000.0001)         System time:  0.139999997
(PID.TID 0000.0001)     Wall clock time:  33.3246599
(PID.TID 0000.0001)          No. starts: 1
(PID.TID 0000.0001)           No. stops: 1
(PID.TID 0000.0001)   Seconds in section "INITIALISE_VARIA    [THE_MAIN_LOOP]":
(PID.TID 0000.0001)           User time:  0.0900000036
(PID.TID 0000.0001)         System time:  0.0199999996
(PID.TID 0000.0001)     Wall clock time:  0.177875042
(PID.TID 0000.0001)          No. starts: 1
(PID.TID 0000.0001)           No. stops: 1
(PID.TID 0000.0001)   Seconds in section "MONITOR             [THE_MAIN_LOOP]":
(PID.TID 0000.0001)           User time:  0.199999988
(PID.TID 0000.0001)         System time:  0.
(PID.TID 0000.0001)     Wall clock time:  0.197539091
(PID.TID 0000.0001)          No. starts: 1
(PID.TID 0000.0001)           No. stops: 1
(PID.TID 0000.0001)   Seconds in section "DO_THE_MODEL_IO     [THE_MAIN_LOOP]":
(PID.TID 0000.0001)           User time:  0.0500000119
(PID.TID 0000.0001)         System time:  0.0200000033
(PID.TID 0000.0001)     Wall clock time:  0.258498073
(PID.TID 0000.0001)          No. starts: 1
(PID.TID 0000.0001)           No. stops: 1
(PID.TID 0000.0001)   Seconds in section "MAIN LOOP           [THE_MAIN_LOOP]":
(PID.TID 0000.0001)           User time:  32.2099997
(PID.TID 0000.0001)         System time:  0.099999994
(PID.TID 0000.0001)     Wall clock time:  32.690636
(PID.TID 0000.0001)          No. starts: 1
(PID.TID 0000.0001)           No. stops: 1
(PID.TID 0000.0001)   Seconds in section "FORWARD_STEP        [THE_MAIN_LOOP]":
(PID.TID 0000.0001)           User time:  32.1999995
(PID.TID 0000.0001)         System time:  0.099999994
(PID.TID 0000.0001)     Wall clock time:  32.690389
(PID.TID 0000.0001)          No. starts: 10
(PID.TID 0000.0001)           No. stops: 10
(PID.TID 0000.0001)   Seconds in section "EXTERNAL_FIELDS_LOAD[FORWARD_STEP]":
(PID.TID 0000.0001)           User time:  0.
(PID.TID 0000.0001)         System time:  0.
(PID.TID 0000.0001)     Wall clock time:  0.000215172768
(PID.TID 0000.0001)          No. starts: 10
(PID.TID 0000.0001)           No. stops: 10
(PID.TID 0000.0001)   Seconds in section "THERMODYNAMICS      [FORWARD_STEP]":
(PID.TID 0000.0001)           User time:  2.12000078
(PID.TID 0000.0001)         System time:  0.
(PID.TID 0000.0001)     Wall clock time:  2.13100183
(PID.TID 0000.0001)          No. starts: 10
(PID.TID 0000.0001)           No. stops: 10
(PID.TID 0000.0001)   Seconds in section "BLOCKING_EXCHANGES  [FORWARD_STEP]":
(PID.TID 0000.0001)           User time:  0.0700013638
(PID.TID 0000.0001)         System time:  0.
(PID.TID 0000.0001)     Wall clock time:  0.070379138
(PID.TID 0000.0001)          No. starts: 20
(PID.TID 0000.0001)           No. stops: 20
(PID.TID 0000.0001)   Seconds in section "DYNAMICS            [FORWARD_STEP]":
(PID.TID 0000.0001)           User time:  2.84000045
(PID.TID 0000.0001)         System time:  0.00999999791
(PID.TID 0000.0001)     Wall clock time:  2.83372295
(PID.TID 0000.0001)          No. starts: 10
(PID.TID 0000.0001)           No. stops: 10
(PID.TID 0000.0001)   Seconds in section "CALC_GW          [FORWARD_STEP]":
(PID.TID 0000.0001)           User time:  0.479999065
(PID.TID 0000.0001)         System time:  0.
(PID.TID 0000.0001)     Wall clock time:  0.490390062
(PID.TID 0000.0001)          No. starts: 10
(PID.TID 0000.0001)           No. stops: 10
(PID.TID 0000.0001)   Seconds in section "SOLVE_FOR_PRESSURE  [FORWARD_STEP]":
(PID.TID 0000.0001)           User time:  24.2500008
(PID.TID 0000.0001)         System time:  0.00999999791
(PID.TID 0000.0001)     Wall clock time:  24.2661101
(PID.TID 0000.0001)          No. starts: 10
(PID.TID 0000.0001)           No. stops: 10
(PID.TID 0000.0001)   Seconds in section "THE_CORRECTION_STEP [FORWARD_STEP]":
(PID.TID 0000.0001)           User time:  0.380000114
(PID.TID 0000.0001)         System time:  0.
(PID.TID 0000.0001)     Wall clock time:  0.389831781
(PID.TID 0000.0001)          No. starts: 10
(PID.TID 0000.0001)           No. stops: 10
(PID.TID 0000.0001)   Seconds in section "MONITOR             [FORWARD_STEP]":
(PID.TID 0000.0001)           User time:  1.99999547
(PID.TID 0000.0001)         System time:  0.
(PID.TID 0000.0001)     Wall clock time:  1.98658705
(PID.TID 0000.0001)          No. starts: 10
(PID.TID 0000.0001)           No. stops: 10
(PID.TID 0000.0001)   Seconds in section "DO_THE_MODEL_IO     [FORWARD_STEP]":
(PID.TID 0000.0001)           User time:  0.0600013733
(PID.TID 0000.0001)         System time:  0.0799999982
(PID.TID 0000.0001)     Wall clock time:  0.519330859
(PID.TID 0000.0001)          No. starts: 10
(PID.TID 0000.0001)           No. stops: 10
(PID.TID 0000.0001)   Seconds in section "WRITE_CHECKPOINT    [FORWARD_STEP]":
(PID.TID 0000.0001)           User time:  0.
(PID.TID 0000.0001)         System time:  0.
(PID.TID 0000.0001)     Wall clock time:  0.000215888023
(PID.TID 0000.0001)          No. starts: 10
(PID.TID 0000.0001)           No. stops: 10
(PID.TID 0000.0001)   Seconds in section "WRITE_CHECKPOINT       [THE_MODEL_MAIN]":
(PID.TID 0000.0001)           User time:  0.189998627
(PID.TID 0000.0001)         System time:  0.219999999
(PID.TID 0000.0001)     Wall clock time:  0.942961097
(PID.TID 0000.0001)          No. starts: 1
(PID.TID 0000.0001)           No. stops: 1
(PID.TID 0000.0001) // ======================================================
(PID.TID 0000.0001) // Tile <-> Tile communication statistics
(PID.TID 0000.0001) // ======================================================
(PID.TID 0000.0001) // o Tile number: 000001
(PID.TID 0000.0001) //         No. X exchanges =              0
(PID.TID 0000.0001) //            Max. X spins =              0
(PID.TID 0000.0001) //            Min. X spins =     1000000000
(PID.TID 0000.0001) //          Total. X spins =              0
(PID.TID 0000.0001) //            Avg. X spins =       0.00E+00
(PID.TID 0000.0001) //         No. Y exchanges =              0
(PID.TID 0000.0001) //            Max. Y spins =              0
(PID.TID 0000.0001) //            Min. Y spins =     1000000000
(PID.TID 0000.0001) //          Total. Y spins =              0
(PID.TID 0000.0001) //            Avg. Y spins =       0.00E+00
(PID.TID 0000.0001) // o Tile number: 000002
(PID.TID 0000.0001) //         No. X exchanges =              0
(PID.TID 0000.0001) //            Max. X spins =              0
(PID.TID 0000.0001) //            Min. X spins =     1000000000
(PID.TID 0000.0001) //          Total. X spins =              0
(PID.TID 0000.0001) //            Avg. X spins =       0.00E+00
(PID.TID 0000.0001) //         No. Y exchanges =              0
(PID.TID 0000.0001) //            Max. Y spins =              0
(PID.TID 0000.0001) //            Min. Y spins =     1000000000
(PID.TID 0000.0001) //          Total. Y spins =              0
(PID.TID 0000.0001) //            Avg. Y spins =       0.00E+00
(PID.TID 0000.0001) // o Tile number: 000003
(PID.TID 0000.0001) //         No. X exchanges =              0
(PID.TID 0000.0001) //            Max. X spins =              0
(PID.TID 0000.0001) //            Min. X spins =     1000000000
(PID.TID 0000.0001) //          Total. X spins =              0
(PID.TID 0000.0001) //            Avg. X spins =       0.00E+00
(PID.TID 0000.0001) //         No. Y exchanges =              0
(PID.TID 0000.0001) //            Max. Y spins =              0
(PID.TID 0000.0001) //            Min. Y spins =     1000000000
(PID.TID 0000.0001) //          Total. Y spins =              0
(PID.TID 0000.0001) //            Avg. Y spins =       0.00E+00
(PID.TID 0000.0001) // o Tile number: 000004
(PID.TID 0000.0001) //         No. X exchanges =              0
(PID.TID 0000.0001) //            Max. X spins =              0
(PID.TID 0000.0001) //            Min. X spins =     1000000000
(PID.TID 0000.0001) //          Total. X spins =              0
(PID.TID 0000.0001) //            Avg. X spins =       0.00E+00
(PID.TID 0000.0001) //         No. Y exchanges =              0
(PID.TID 0000.0001) //            Max. Y spins =              0
(PID.TID 0000.0001) //            Min. Y spins =     1000000000
(PID.TID 0000.0001) //          Total. Y spins =              0
(PID.TID 0000.0001) //            Avg. Y spins =       0.00E+00
(PID.TID 0000.0001) // o Thread number: 000001
(PID.TID 0000.0001) //            No. barriers =          17518
(PID.TID 0000.0001) //      Max. barrier spins =              1
(PID.TID 0000.0001) //      Min. barrier spins =              1
(PID.TID 0000.0001) //     Total barrier spins =          17518
(PID.TID 0000.0001) //      Avg. barrier spins =       1.00E+00
