(PID.TID 0000.0001) 
(PID.TID 0000.0001) // ======================================================
(PID.TID 0000.0001) //                      MITgcm UV
(PID.TID 0000.0001) //                      =========
(PID.TID 0000.0001) // ======================================================
(PID.TID 0000.0001) // execution environment starting up...
(PID.TID 0000.0001) // Run starting Wed Apr  1 14:19:48 1998
(PID.TID 0000.0001) // on melville.lcs.mit.edu
(PID.TID 0000.0001) // account cnh
(PID.TID 0000.0001) // MITgcm UV Release: $Name:  $
(PID.TID 0000.0001) 
(PID.TID 0000.0001) // =======================================================
(PID.TID 0000.0001) // Execution Environment parameter file "eedata"
(PID.TID 0000.0001) // =======================================================
(PID.TID 0000.0001) ># Example "eedata" file
(PID.TID 0000.0001) ># Lines beginning "#" are comments
(PID.TID 0000.0001) ># nTx - No. threads per process in X
(PID.TID 0000.0001) ># nTy - No. threads per process in Y
(PID.TID 0000.0001) > &EEPARMS
(PID.TID 0000.0001) > &
(PID.TID 0000.0001) ># Note: Some systems use & as the
(PID.TID 0000.0001) ># namelist terminator. Other systems
(PID.TID 0000.0001) ># use a / character (as shown here).
(PID.TID 0000.0001) 
(PID.TID 0000.0001) // =======================================================
(PID.TID 0000.0001) // Computational Grid Specification ( see files "SIZE.h" )
(PID.TID 0000.0001) //                                  ( and "eedata"       )
(PID.TID 0000.0001) // =======================================================
(PID.TID 0000.0001)      nPx =    1 ; /* No. processes in X */
(PID.TID 0000.0001)      nPy =    1 ; /* No. processes in Y */
(PID.TID 0000.0001)      nSx =    1 ; /* No. tiles in X per process */
(PID.TID 0000.0001)      nSy =    1 ; /* No. tiles in Y per process */
(PID.TID 0000.0001)      sNx =   64 ; /* Tile size in X */
(PID.TID 0000.0001)      sNy =   64 ; /* Tile size in Y */
(PID.TID 0000.0001)      OLx =    3 ; /* Tile overlap distance in X */
(PID.TID 0000.0001)      OLy =    3 ; /* Tile overlap distance in Y */
(PID.TID 0000.0001)      nTx =    1 ; /* No. threads in X per process */
(PID.TID 0000.0001)      nTy =    1 ; /* No. threads in Y per process */
(PID.TID 0000.0001)       Nr =   20 ; /* No. levels in the vertical   */
(PID.TID 0000.0001)       nX =   64 ; /* Total domain size in X ( = nPx*nSx*sNx ) */
(PID.TID 0000.0001)       nY =   64 ; /* Total domain size in Y ( = nPy*nSy*sNy ) */
(PID.TID 0000.0001)   nTiles =    1 ; /* Total no. tiles per process ( = nSx*nSy ) */
(PID.TID 0000.0001)   nProcs =    1 ; /* Total no. processes ( = nPx*nPy ) */
(PID.TID 0000.0001) nThreads =    1 ; /* Total no. threads per process ( = nTx*nTy ) */
(PID.TID 0000.0001) usingMPI =    F ; /* Flag used to control whether MPI is in use */
(PID.TID 0000.0001)                   /*  note: To execute a program with MPI calls */
(PID.TID 0000.0001)                   /*  it must be launched appropriately e.g     */
(PID.TID 0000.0001)                   /*  "mpirun -np 64 ......"                    */
(PID.TID 0000.0001) 
(PID.TID 0000.0001) // ======================================================
(PID.TID 0000.0001) // Mapping of tiles to threads
(PID.TID 0000.0001) // ======================================================
(PID.TID 0000.0001) // -o- Thread   1, tiles (   1:   1,   1:   1)
(PID.TID 0000.0001) 
(PID.TID 0000.0001) // ======================================================
(PID.TID 0000.0001) // Tile <-> Tile connectvity table
(PID.TID 0000.0001) // ======================================================
(PID.TID 0000.0001) // Tile number: 000001 (process no. = 000001)
(PID.TID 0000.0001) //        WEST: Tile = 000001, Process = 000001, Comm = put
(PID.TID 0000.0001) //                bi = 000001, bj = 000001
(PID.TID 0000.0001) //        EAST: Tile = 000001, Process = 000001, Comm = put
(PID.TID 0000.0001) //                bi = 000001, bj = 000001
(PID.TID 0000.0001) //       SOUTH: Tile = 000001, Process = 000001, Comm = put
(PID.TID 0000.0001) //                bi = 000001, bj = 000001
(PID.TID 0000.0001) //       NORTH: Tile = 000001, Process = 000001, Comm = put
(PID.TID 0000.0001) //                bi = 000001, bj = 000001
(PID.TID 0000.0001) 
(PID.TID 0000.0001) // =======================================================
(PID.TID 0000.0001) // Model parameter file "data"
(PID.TID 0000.0001) // =======================================================
(PID.TID 0000.0001) ># ====================
(PID.TID 0000.0001) ># | Model parameters |
(PID.TID 0000.0001) ># ====================
(PID.TID 0000.0001) >#
(PID.TID 0000.0001) ># Continuous equation parameters
(PID.TID 0000.0001) > &PARM01
(PID.TID 0000.0001) > tRef=20*1.
(PID.TID 0000.0001) > sRef=20*35.,
(PID.TID 0000.0001) > viscAh=1.E0,
(PID.TID 0000.0001) > viscAz=1.E0,
(PID.TID 0000.0001) > no_slip_sides=.FALSE.,
(PID.TID 0000.0001) > no_slip_bottom=.FALSE.,
(PID.TID 0000.0001) > viscA4=0.E12,
(PID.TID 0000.0001) > diffKhT=1.E0,
(PID.TID 0000.0001) > diffKzT=1.E0,
(PID.TID 0000.0001) > diffKhS=1.E0,
(PID.TID 0000.0001) > diffKzS=1.E0,
(PID.TID 0000.0001) > f0=1250.,
(PID.TID 0000.0001) > beta=0.E-11,
(PID.TID 0000.0001) > tAlpha=1.,
(PID.TID 0000.0001) > sBeta =0.,
(PID.TID 0000.0001) > gravity=1.4E8,
(PID.TID 0000.0001) > rhoConst=1.,
(PID.TID 0000.0001) > rhoNil=1.,
(PID.TID 0000.0001) > heatCapacity_Cp=1.,
(PID.TID 0000.0001) > rigidLid=.FALSE.,
(PID.TID 0000.0001) > implicitFreeSurface=.TRUE.,
(PID.TID 0000.0001) > eosType='LINEAR',
(PID.TID 0000.0001) > nonHydrostatic=.TRUE.,
(PID.TID 0000.0001) > readBinaryPrec=64,
(PID.TID 0000.0001) > &
(PID.TID 0000.0001) >
(PID.TID 0000.0001) ># Elliptic solver parameters
(PID.TID 0000.0001) > &PARM02
(PID.TID 0000.0001) > cg2dMaxIters=1000,
(PID.TID 0000.0001) > cg2dTargetResidual=1.E-9,
(PID.TID 0000.0001) > cg3dMaxIters=40,
(PID.TID 0000.0001) > cg3dTargetResidual=1.E-9,
(PID.TID 0000.0001) > &
(PID.TID 0000.0001) >
(PID.TID 0000.0001) ># Time stepping parameters
(PID.TID 0000.0001) > &PARM03
(PID.TID 0000.0001) > nIter0=0,
(PID.TID 0000.0001) > nTimeSteps=10,
(PID.TID 0000.0001) > deltaT=2.0E-4,
(PID.TID 0000.0001) > abEps=0.1,
(PID.TID 0000.0001) > pChkptFreq=0.0,
(PID.TID 0000.0001) > chkptFreq=0.0,
(PID.TID 0000.0001) > dumpFreq=0.1,
(PID.TID 0000.0001) > monitorFreq=1.E-5,
(PID.TID 0000.0001) > &
(PID.TID 0000.0001) >
(PID.TID 0000.0001) ># Gridding parameters
(PID.TID 0000.0001) > &PARM04
(PID.TID 0000.0001) > usingCartesianGrid=.TRUE.,
(PID.TID 0000.0001) > usingSphericalPolarGrid=.FALSE.,
(PID.TID 0000.0001) > dXspacing=0.0625,
(PID.TID 0000.0001) > dYspacing=0.0625,
(PID.TID 0000.0001) > delZ=20*0.1,
(PID.TID 0000.0001) > &
(PID.TID 0000.0001) >
(PID.TID 0000.0001) ># Input datasets
(PID.TID 0000.0001) > &PARM05
(PID.TID 0000.0001) > surfQfile='Qnet.circle',
(PID.TID 0000.0001) > &
(PID.TID 0000.0001) 
(PID.TID 0000.0001) S/R INI_PARMS ; read PARM01 : OK
(PID.TID 0000.0001) S/R INI_PARMS ; read PARM02 : OK
(PID.TID 0000.0001) S/R INI_PARMS ; read PARM03 : OK
(PID.TID 0000.0001) S/R INI_PARMS ; read PARM04 : OK
(PID.TID 0000.0001) S/R INI_PARMS ; read PARM05 : OK
(PID.TID 0000.0001) %MON XC_max                       =   3.9687500000000E+00
(PID.TID 0000.0001) %MON XC_min                       =   3.1250000000000E-02
(PID.TID 0000.0001) %MON XC_mean                      =   2.0000000000000E+00
(PID.TID 0000.0001) %MON XC_sd                        =   1.1545595751194E+00
(PID.TID 0000.0001) %MON XG_max                       =   3.9375000000000E+00
(PID.TID 0000.0001) %MON XG_min                       =   6.2500000000000E-02
(PID.TID 0000.0001) %MON XG_mean                      =   2.0000000000000E+00
(PID.TID 0000.0001) %MON XG_sd                        =   1.1365151414155E+00
(PID.TID 0000.0001) %MON DXC_max                      =   6.2500000000000E-02
(PID.TID 0000.0001) %MON DXC_min                      =   6.2500000000000E-02
(PID.TID 0000.0001) %MON DXC_mean                     =   6.2500000000000E-02
(PID.TID 0000.0001) %MON DXC_sd                       =   0.0000000000000E+00
(PID.TID 0000.0001) %MON DXF_max                      =   6.2500000000000E-02
(PID.TID 0000.0001) %MON DXF_min                      =   6.2500000000000E-02
(PID.TID 0000.0001) %MON DXF_mean                     =   6.2500000000000E-02
(PID.TID 0000.0001) %MON DXF_sd                       =   0.0000000000000E+00
(PID.TID 0000.0001) %MON DXG_max                      =   6.2500000000000E-02
(PID.TID 0000.0001) %MON DXG_min                      =   6.2500000000000E-02
(PID.TID 0000.0001) %MON DXG_mean                     =   6.2500000000000E-02
(PID.TID 0000.0001) %MON DXG_sd                       =   0.0000000000000E+00
(PID.TID 0000.0001) %MON DXV_max                      =   6.2500000000000E-02
(PID.TID 0000.0001) %MON DXV_min                      =   6.2500000000000E-02
(PID.TID 0000.0001) %MON DXV_mean                     =   6.2500000000000E-02
(PID.TID 0000.0001) %MON DXV_sd                       =   0.0000000000000E+00
(PID.TID 0000.0001) %MON YC_max                       =   3.9687500000000E+00
(PID.TID 0000.0001) %MON YC_min                       =   3.1250000000000E-02
(PID.TID 0000.0001) %MON YC_mean                      =   2.0000000000000E+00
(PID.TID 0000.0001) %MON YC_sd                        =   1.1545595751194E+00
(PID.TID 0000.0001) %MON YG_max                       =   3.9375000000000E+00
(PID.TID 0000.0001) %MON YG_min                       =   6.2500000000000E-02
(PID.TID 0000.0001) %MON YG_mean                      =   2.0000000000000E+00
(PID.TID 0000.0001) %MON YG_sd                        =   1.1365151414155E+00
(PID.TID 0000.0001) %MON DYC_max                      =   6.2500000000000E-02
(PID.TID 0000.0001) %MON DYC_min                      =   6.2500000000000E-02
(PID.TID 0000.0001) %MON DYC_mean                     =   6.2500000000000E-02
(PID.TID 0000.0001) %MON DYC_sd                       =   0.0000000000000E+00
(PID.TID 0000.0001) %MON DYF_max                      =   6.2500000000000E-02
(PID.TID 0000.0001) %MON DYF_min                      =   6.2500000000000E-02
(PID.TID 0000.0001) %MON DYF_mean                     =   6.2500000000000E-02
(PID.TID 0000.0001) %MON DYF_sd                       =   0.0000000000000E+00
(PID.TID 0000.0001) %MON DYG_max                      =   6.2500000000000E-02
(PID.TID 0000.0001) %MON DYG_min                      =   6.2500000000000E-02
(PID.TID 0000.0001) %MON DYG_mean                     =   6.2500000000000E-02
(PID.TID 0000.0001) %MON DYG_sd                       =   0.0000000000000E+00
(PID.TID 0000.0001) %MON DYU_max                      =   6.2500000000000E-02
(PID.TID 0000.0001) %MON DYU_min                      =   6.2500000000000E-02
(PID.TID 0000.0001) %MON DYU_mean                     =   6.2500000000000E-02
(PID.TID 0000.0001) %MON DYU_sd                       =   0.0000000000000E+00
(PID.TID 0000.0001) %MON RA_max                       =   3.9062500000000E-03
(PID.TID 0000.0001) %MON RA_min                       =   3.9062500000000E-03
(PID.TID 0000.0001) %MON RA_mean                      =   3.9062500000000E-03
(PID.TID 0000.0001) %MON RA_sd                        =   0.0000000000000E+00
(PID.TID 0000.0001) %MON RAW_max                      =   3.9062500000000E-03
(PID.TID 0000.0001) %MON RAW_min                      =   3.9062500000000E-03
(PID.TID 0000.0001) %MON RAW_mean                     =   3.9062500000000E-03
(PID.TID 0000.0001) %MON RAW_sd                       =   0.0000000000000E+00
(PID.TID 0000.0001) %MON RAS_max                      =   3.9062500000000E-03
(PID.TID 0000.0001) %MON RAS_min                      =   3.9062500000000E-03
(PID.TID 0000.0001) %MON RAS_mean                     =   3.9062500000000E-03
(PID.TID 0000.0001) %MON RAS_sd                       =   0.0000000000000E+00
(PID.TID 0000.0001) %MON RAZ_max                      =   3.9062500000000E-03
(PID.TID 0000.0001) %MON RAZ_min                      =   3.9062500000000E-03
(PID.TID 0000.0001) %MON RAZ_mean                     =   3.9062500000000E-03
(PID.TID 0000.0001) %MON RAZ_sd                       =   0.0000000000000E+00
(PID.TID 0000.0001) // =======================================================
(PID.TID 0000.0001) // Field Model R_low (ini_masks_etc) at iteration          1
(PID.TID 0000.0001) // CMIN =         -2.000000000000000E+00
(PID.TID 0000.0001) // CMAX =         -2.000000000000000E+00
(PID.TID 0000.0001) // CINT =          0.000000000000000E+00
(PID.TID 0000.0001) // SYMBOLS (CMIN->CMAX): -abcdefghijklmnopqrstuvwxyz+
(PID.TID 0000.0001) //                  0.0: .
(PID.TID 0000.0001) // RANGE I (Lo:Hi:Step):(  -2:  67:   1)
(PID.TID 0000.0001) // RANGE J (Lo:Hi:Step):(  67:  -2:  -1)
(PID.TID 0000.0001) // RANGE K (Lo:Hi:Step):(   1:   1:   1)
(PID.TID 0000.0001) // =======================================================
(PID.TID 0000.0001) K =   1
(PID.TID 0000.0001) //                I=7       I=17      I=27      I=37      I=47      I=57      I=67
(PID.TID 0000.0001) // |--J--|**0123456|890123456|890123456|890123456|890123456|890123456|890123456|
(PID.TID 0000.0001) //     67 ----------------------------------------------------------------------
(PID.TID 0000.0001) //     66 ----------------------------------------------------------------------
(PID.TID 0000.0001) //     65 ----------------------------------------------------------------------
(PID.TID 0000.0001) //     64 ----------------------------------------------------------------------
(PID.TID 0000.0001) //     63 ----------------------------------------------------------------------
(PID.TID 0000.0001) //     62 ----------------------------------------------------------------------
(PID.TID 0000.0001) //     61 ----------------------------------------------------------------------
(PID.TID 0000.0001) //     60 ----------------------------------------------------------------------
(PID.TID 0000.0001) //     59 ----------------------------------------------------------------------
(PID.TID 0000.0001) //     58 ----------------------------------------------------------------------
(PID.TID 0000.0001) //     57 ----------------------------------------------------------------------
(PID.TID 0000.0001) //     56 ----------------------------------------------------------------------
(PID.TID 0000.0001) //     55 ----------------------------------------------------------------------
(PID.TID 0000.0001) //     54 ----------------------------------------------------------------------
(PID.TID 0000.0001) //     53 ----------------------------------------------------------------------
(PID.TID 0000.0001) //     52 ----------------------------------------------------------------------
(PID.TID 0000.0001) //     51 ----------------------------------------------------------------------
(PID.TID 0000.0001) //     50 ----------------------------------------------------------------------
(PID.TID 0000.0001) //     49 ----------------------------------------------------------------------
(PID.TID 0000.0001) //     48 ----------------------------------------------------------------------
(PID.TID 0000.0001) //     47 ----------------------------------------------------------------------
(PID.TID 0000.0001) //     46 ----------------------------------------------------------------------
(PID.TID 0000.0001) //     45 ----------------------------------------------------------------------
(PID.TID 0000.0001) //     44 ----------------------------------------------------------------------
(PID.TID 0000.0001) //     43 ----------------------------------------------------------------------
(PID.TID 0000.0001) //     42 ----------------------------------------------------------------------
(PID.TID 0000.0001) //     41 ----------------------------------------------------------------------
(PID.TID 0000.0001) //     40 ----------------------------------------------------------------------
(PID.TID 0000.0001) //     39 ----------------------------------------------------------------------
(PID.TID 0000.0001) //     38 ----------------------------------------------------------------------
(PID.TID 0000.0001) //     37 ----------------------------------------------------------------------
(PID.TID 0000.0001) //     36 ----------------------------------------------------------------------
(PID.TID 0000.0001) //     35 ----------------------------------------------------------------------
(PID.TID 0000.0001) //     34 ----------------------------------------------------------------------
(PID.TID 0000.0001) //     33 ----------------------------------------------------------------------
(PID.TID 0000.0001) //     32 ----------------------------------------------------------------------
(PID.TID 0000.0001) //     31 ----------------------------------------------------------------------
(PID.TID 0000.0001) //     30 ----------------------------------------------------------------------
(PID.TID 0000.0001) //     29 ----------------------------------------------------------------------
(PID.TID 0000.0001) //     28 ----------------------------------------------------------------------
(PID.TID 0000.0001) //     27 ----------------------------------------------------------------------
(PID.TID 0000.0001) //     26 ----------------------------------------------------------------------
(PID.TID 0000.0001) //     25 ----------------------------------------------------------------------
(PID.TID 0000.0001) //     24 ----------------------------------------------------------------------
(PID.TID 0000.0001) //     23 ----------------------------------------------------------------------
(PID.TID 0000.0001) //     22 ----------------------------------------------------------------------
(PID.TID 0000.0001) //     21 ----------------------------------------------------------------------
(PID.TID 0000.0001) //     20 ----------------------------------------------------------------------
(PID.TID 0000.0001) //     19 ----------------------------------------------------------------------
(PID.TID 0000.0001) //     18 ----------------------------------------------------------------------
(PID.TID 0000.0001) //     17 ----------------------------------------------------------------------
(PID.TID 0000.0001) //     16 ----------------------------------------------------------------------
(PID.TID 0000.0001) //     15 ----------------------------------------------------------------------
(PID.TID 0000.0001) //     14 ----------------------------------------------------------------------
(PID.TID 0000.0001) //     13 ----------------------------------------------------------------------
(PID.TID 0000.0001) //     12 ----------------------------------------------------------------------
(PID.TID 0000.0001) //     11 ----------------------------------------------------------------------
(PID.TID 0000.0001) //     10 ----------------------------------------------------------------------
(PID.TID 0000.0001) //      9 ----------------------------------------------------------------------
(PID.TID 0000.0001) //      8 ----------------------------------------------------------------------
(PID.TID 0000.0001) //      7 ----------------------------------------------------------------------
(PID.TID 0000.0001) //      6 ----------------------------------------------------------------------
(PID.TID 0000.0001) //      5 ----------------------------------------------------------------------
(PID.TID 0000.0001) //      4 ----------------------------------------------------------------------
(PID.TID 0000.0001) //      3 ----------------------------------------------------------------------
(PID.TID 0000.0001) //      2 ----------------------------------------------------------------------
(PID.TID 0000.0001) //      1 ----------------------------------------------------------------------
(PID.TID 0000.0001) //      0 ----------------------------------------------------------------------
(PID.TID 0000.0001) //     -1 ----------------------------------------------------------------------
(PID.TID 0000.0001) //     -2 ----------------------------------------------------------------------
(PID.TID 0000.0001) // =======================================================
(PID.TID 0000.0001) // END OF FIELD                                          =
(PID.TID 0000.0001) // =======================================================
(PID.TID 0000.0001) 
(PID.TID 0000.0001) // =======================================================
(PID.TID 0000.0001) // Field Model Ro_surf (ini_masks_etc) at iteration          1
(PID.TID 0000.0001) // CMIN =          1.942890293094024E-16
(PID.TID 0000.0001) // CMAX =          1.942890293094024E-16
(PID.TID 0000.0001) // CINT =          0.000000000000000E+00
(PID.TID 0000.0001) // SYMBOLS (CMIN->CMAX): -abcdefghijklmnopqrstuvwxyz+
(PID.TID 0000.0001) //                  0.0: .
(PID.TID 0000.0001) // RANGE I (Lo:Hi:Step):(  -2:  67:   1)
(PID.TID 0000.0001) // RANGE J (Lo:Hi:Step):(  67:  -2:  -1)
(PID.TID 0000.0001) // RANGE K (Lo:Hi:Step):(   1:   1:   1)
(PID.TID 0000.0001) // =======================================================
(PID.TID 0000.0001) K =   1
(PID.TID 0000.0001) //                I=7       I=17      I=27      I=37      I=47      I=57      I=67
(PID.TID 0000.0001) // |--J--|**0123456|890123456|890123456|890123456|890123456|890123456|890123456|
(PID.TID 0000.0001) //     67 ----------------------------------------------------------------------
(PID.TID 0000.0001) //     66 ----------------------------------------------------------------------
(PID.TID 0000.0001) //     65 ----------------------------------------------------------------------
(PID.TID 0000.0001) //     64 ----------------------------------------------------------------------
(PID.TID 0000.0001) //     63 ----------------------------------------------------------------------
(PID.TID 0000.0001) //     62 ----------------------------------------------------------------------
(PID.TID 0000.0001) //     61 ----------------------------------------------------------------------
(PID.TID 0000.0001) //     60 ----------------------------------------------------------------------
(PID.TID 0000.0001) //     59 ----------------------------------------------------------------------
(PID.TID 0000.0001) //     58 ----------------------------------------------------------------------
(PID.TID 0000.0001) //     57 ----------------------------------------------------------------------
(PID.TID 0000.0001) //     56 ----------------------------------------------------------------------
(PID.TID 0000.0001) //     55 ----------------------------------------------------------------------
(PID.TID 0000.0001) //     54 ----------------------------------------------------------------------
(PID.TID 0000.0001) //     53 ----------------------------------------------------------------------
(PID.TID 0000.0001) //     52 ----------------------------------------------------------------------
(PID.TID 0000.0001) //     51 ----------------------------------------------------------------------
(PID.TID 0000.0001) //     50 ----------------------------------------------------------------------
(PID.TID 0000.0001) //     49 ----------------------------------------------------------------------
(PID.TID 0000.0001) //     48 ----------------------------------------------------------------------
(PID.TID 0000.0001) //     47 ----------------------------------------------------------------------
(PID.TID 0000.0001) //     46 ----------------------------------------------------------------------
(PID.TID 0000.0001) //     45 ----------------------------------------------------------------------
(PID.TID 0000.0001) //     44 ----------------------------------------------------------------------
(PID.TID 0000.0001) //     43 ----------------------------------------------------------------------
(PID.TID 0000.0001) //     42 ----------------------------------------------------------------------
(PID.TID 0000.0001) //     41 ----------------------------------------------------------------------
(PID.TID 0000.0001) //     40 ----------------------------------------------------------------------
(PID.TID 0000.0001) //     39 ----------------------------------------------------------------------
(PID.TID 0000.0001) //     38 ----------------------------------------------------------------------
(PID.TID 0000.0001) //     37 ----------------------------------------------------------------------
(PID.TID 0000.0001) //     36 ----------------------------------------------------------------------
(PID.TID 0000.0001) //     35 ----------------------------------------------------------------------
(PID.TID 0000.0001) //     34 ----------------------------------------------------------------------
(PID.TID 0000.0001) //     33 ----------------------------------------------------------------------
(PID.TID 0000.0001) //     32 ----------------------------------------------------------------------
(PID.TID 0000.0001) //     31 ----------------------------------------------------------------------
(PID.TID 0000.0001) //     30 ----------------------------------------------------------------------
(PID.TID 0000.0001) //     29 ----------------------------------------------------------------------
(PID.TID 0000.0001) //     28 ----------------------------------------------------------------------
(PID.TID 0000.0001) //     27 ----------------------------------------------------------------------
(PID.TID 0000.0001) //     26 ----------------------------------------------------------------------
(PID.TID 0000.0001) //     25 ----------------------------------------------------------------------
(PID.TID 0000.0001) //     24 ----------------------------------------------------------------------
(PID.TID 0000.0001) //     23 ----------------------------------------------------------------------
(PID.TID 0000.0001) //     22 ----------------------------------------------------------------------
(PID.TID 0000.0001) //     21 ----------------------------------------------------------------------
(PID.TID 0000.0001) //     20 ----------------------------------------------------------------------
(PID.TID 0000.0001) //     19 ----------------------------------------------------------------------
(PID.TID 0000.0001) //     18 ----------------------------------------------------------------------
(PID.TID 0000.0001) //     17 ----------------------------------------------------------------------
(PID.TID 0000.0001) //     16 ----------------------------------------------------------------------
(PID.TID 0000.0001) //     15 ----------------------------------------------------------------------
(PID.TID 0000.0001) //     14 ----------------------------------------------------------------------
(PID.TID 0000.0001) //     13 ----------------------------------------------------------------------
(PID.TID 0000.0001) //     12 ----------------------------------------------------------------------
(PID.TID 0000.0001) //     11 ----------------------------------------------------------------------
(PID.TID 0000.0001) //     10 ----------------------------------------------------------------------
(PID.TID 0000.0001) //      9 ----------------------------------------------------------------------
(PID.TID 0000.0001) //      8 ----------------------------------------------------------------------
(PID.TID 0000.0001) //      7 ----------------------------------------------------------------------
(PID.TID 0000.0001) //      6 ----------------------------------------------------------------------
(PID.TID 0000.0001) //      5 ----------------------------------------------------------------------
(PID.TID 0000.0001) //      4 ----------------------------------------------------------------------
(PID.TID 0000.0001) //      3 ----------------------------------------------------------------------
(PID.TID 0000.0001) //      2 ----------------------------------------------------------------------
(PID.TID 0000.0001) //      1 ----------------------------------------------------------------------
(PID.TID 0000.0001) //      0 ----------------------------------------------------------------------
(PID.TID 0000.0001) //     -1 ----------------------------------------------------------------------
(PID.TID 0000.0001) //     -2 ----------------------------------------------------------------------
(PID.TID 0000.0001) // =======================================================
(PID.TID 0000.0001) // END OF FIELD                                          =
(PID.TID 0000.0001) // =======================================================
(PID.TID 0000.0001) 
(PID.TID 0000.0001) // =======================================================
(PID.TID 0000.0001) // Field hFacC at iteration          1
(PID.TID 0000.0001) // CMIN =          1.000000000000000E+00
(PID.TID 0000.0001) // CMAX =          1.000000000000000E+00
(PID.TID 0000.0001) // CINT =          0.000000000000000E+00
(PID.TID 0000.0001) // SYMBOLS (CMIN->CMAX): -abcdefghijklmnopqrstuvwxyz+
(PID.TID 0000.0001) //                  0.0: .
(PID.TID 0000.0001) // RANGE I (Lo:Hi:Step):(  -2:  67:   1)
(PID.TID 0000.0001) // RANGE J (Lo:Hi:Step):(  67:  -2:  -1)
(PID.TID 0000.0001) // RANGE K (Lo:Hi:Step):(   1:   1:   1)
(PID.TID 0000.0001) // =======================================================
(PID.TID 0000.0001) K =   1
(PID.TID 0000.0001) //                I=7       I=17      I=27      I=37      I=47      I=57      I=67
(PID.TID 0000.0001) // |--J--|**0123456|890123456|890123456|890123456|890123456|890123456|890123456|
(PID.TID 0000.0001) //     67 ----------------------------------------------------------------------
(PID.TID 0000.0001) //     66 ----------------------------------------------------------------------
(PID.TID 0000.0001) //     65 ----------------------------------------------------------------------
(PID.TID 0000.0001) //     64 ----------------------------------------------------------------------
(PID.TID 0000.0001) //     63 ----------------------------------------------------------------------
(PID.TID 0000.0001) //     62 ----------------------------------------------------------------------
(PID.TID 0000.0001) //     61 ----------------------------------------------------------------------
(PID.TID 0000.0001) //     60 ----------------------------------------------------------------------
(PID.TID 0000.0001) //     59 ----------------------------------------------------------------------
(PID.TID 0000.0001) //     58 ----------------------------------------------------------------------
(PID.TID 0000.0001) //     57 ----------------------------------------------------------------------
(PID.TID 0000.0001) //     56 ----------------------------------------------------------------------
(PID.TID 0000.0001) //     55 ----------------------------------------------------------------------
(PID.TID 0000.0001) //     54 ----------------------------------------------------------------------
(PID.TID 0000.0001) //     53 ----------------------------------------------------------------------
(PID.TID 0000.0001) //     52 ----------------------------------------------------------------------
(PID.TID 0000.0001) //     51 ----------------------------------------------------------------------
(PID.TID 0000.0001) //     50 ----------------------------------------------------------------------
(PID.TID 0000.0001) //     49 ----------------------------------------------------------------------
(PID.TID 0000.0001) //     48 ----------------------------------------------------------------------
(PID.TID 0000.0001) //     47 ----------------------------------------------------------------------
(PID.TID 0000.0001) //     46 ----------------------------------------------------------------------
(PID.TID 0000.0001) //     45 ----------------------------------------------------------------------
(PID.TID 0000.0001) //     44 ----------------------------------------------------------------------
(PID.TID 0000.0001) //     43 ----------------------------------------------------------------------
(PID.TID 0000.0001) //     42 ----------------------------------------------------------------------
(PID.TID 0000.0001) //     41 ----------------------------------------------------------------------
(PID.TID 0000.0001) //     40 ----------------------------------------------------------------------
(PID.TID 0000.0001) //     39 ----------------------------------------------------------------------
(PID.TID 0000.0001) //     38 ----------------------------------------------------------------------
(PID.TID 0000.0001) //     37 ----------------------------------------------------------------------
(PID.TID 0000.0001) //     36 ----------------------------------------------------------------------
(PID.TID 0000.0001) //     35 ----------------------------------------------------------------------
(PID.TID 0000.0001) //     34 ----------------------------------------------------------------------
(PID.TID 0000.0001) //     33 ----------------------------------------------------------------------
(PID.TID 0000.0001) //     32 ----------------------------------------------------------------------
(PID.TID 0000.0001) //     31 ----------------------------------------------------------------------
(PID.TID 0000.0001) //     30 ----------------------------------------------------------------------
(PID.TID 0000.0001) //     29 ----------------------------------------------------------------------
(PID.TID 0000.0001) //     28 ----------------------------------------------------------------------
(PID.TID 0000.0001) //     27 ----------------------------------------------------------------------
(PID.TID 0000.0001) //     26 ----------------------------------------------------------------------
(PID.TID 0000.0001) //     25 ----------------------------------------------------------------------
(PID.TID 0000.0001) //     24 ----------------------------------------------------------------------
(PID.TID 0000.0001) //     23 ----------------------------------------------------------------------
(PID.TID 0000.0001) //     22 ----------------------------------------------------------------------
(PID.TID 0000.0001) //     21 ----------------------------------------------------------------------
(PID.TID 0000.0001) //     20 ----------------------------------------------------------------------
(PID.TID 0000.0001) //     19 ----------------------------------------------------------------------
(PID.TID 0000.0001) //     18 ----------------------------------------------------------------------
(PID.TID 0000.0001) //     17 ----------------------------------------------------------------------
(PID.TID 0000.0001) //     16 ----------------------------------------------------------------------
(PID.TID 0000.0001) //     15 ----------------------------------------------------------------------
(PID.TID 0000.0001) //     14 ----------------------------------------------------------------------
(PID.TID 0000.0001) //     13 ----------------------------------------------------------------------
(PID.TID 0000.0001) //     12 ----------------------------------------------------------------------
(PID.TID 0000.0001) //     11 ----------------------------------------------------------------------
(PID.TID 0000.0001) //     10 ----------------------------------------------------------------------
(PID.TID 0000.0001) //      9 ----------------------------------------------------------------------
(PID.TID 0000.0001) //      8 ----------------------------------------------------------------------
(PID.TID 0000.0001) //      7 ----------------------------------------------------------------------
(PID.TID 0000.0001) //      6 ----------------------------------------------------------------------
(PID.TID 0000.0001) //      5 ----------------------------------------------------------------------
(PID.TID 0000.0001) //      4 ----------------------------------------------------------------------
(PID.TID 0000.0001) //      3 ----------------------------------------------------------------------
(PID.TID 0000.0001) //      2 ----------------------------------------------------------------------
(PID.TID 0000.0001) //      1 ----------------------------------------------------------------------
(PID.TID 0000.0001) //      0 ----------------------------------------------------------------------
(PID.TID 0000.0001) //     -1 ----------------------------------------------------------------------
(PID.TID 0000.0001) //     -2 ----------------------------------------------------------------------
(PID.TID 0000.0001) // =======================================================
(PID.TID 0000.0001) // END OF FIELD                                          =
(PID.TID 0000.0001) // =======================================================
(PID.TID 0000.0001) 
(PID.TID 0000.0001) // =======================================================
(PID.TID 0000.0001) // Field hFacW at iteration          1
(PID.TID 0000.0001) // CMIN =          1.000000000000000E+00
(PID.TID 0000.0001) // CMAX =          1.000000000000000E+00
(PID.TID 0000.0001) // CINT =          0.000000000000000E+00
(PID.TID 0000.0001) // SYMBOLS (CMIN->CMAX): -abcdefghijklmnopqrstuvwxyz+
(PID.TID 0000.0001) //                  0.0: .
(PID.TID 0000.0001) // RANGE I (Lo:Hi:Step):(  -2:  67:   1)
(PID.TID 0000.0001) // RANGE J (Lo:Hi:Step):(  67:  -2:  -1)
(PID.TID 0000.0001) // RANGE K (Lo:Hi:Step):(   1:   1:   1)
(PID.TID 0000.0001) // =======================================================
(PID.TID 0000.0001) K =   1
(PID.TID 0000.0001) //                I=7       I=17      I=27      I=37      I=47      I=57      I=67
(PID.TID 0000.0001) // |--J--|**0123456|890123456|890123456|890123456|890123456|890123456|890123456|
(PID.TID 0000.0001) //     67 ----------------------------------------------------------------------
(PID.TID 0000.0001) //     66 ----------------------------------------------------------------------
(PID.TID 0000.0001) //     65 ----------------------------------------------------------------------
(PID.TID 0000.0001) //     64 ----------------------------------------------------------------------
(PID.TID 0000.0001) //     63 ----------------------------------------------------------------------
(PID.TID 0000.0001) //     62 ----------------------------------------------------------------------
(PID.TID 0000.0001) //     61 ----------------------------------------------------------------------
(PID.TID 0000.0001) //     60 ----------------------------------------------------------------------
(PID.TID 0000.0001) //     59 ----------------------------------------------------------------------
(PID.TID 0000.0001) //     58 ----------------------------------------------------------------------
(PID.TID 0000.0001) //     57 ----------------------------------------------------------------------
(PID.TID 0000.0001) //     56 ----------------------------------------------------------------------
(PID.TID 0000.0001) //     55 ----------------------------------------------------------------------
(PID.TID 0000.0001) //     54 ----------------------------------------------------------------------
(PID.TID 0000.0001) //     53 ----------------------------------------------------------------------
(PID.TID 0000.0001) //     52 ----------------------------------------------------------------------
(PID.TID 0000.0001) //     51 ----------------------------------------------------------------------
(PID.TID 0000.0001) //     50 ----------------------------------------------------------------------
(PID.TID 0000.0001) //     49 ----------------------------------------------------------------------
(PID.TID 0000.0001) //     48 ----------------------------------------------------------------------
(PID.TID 0000.0001) //     47 ----------------------------------------------------------------------
(PID.TID 0000.0001) //     46 ----------------------------------------------------------------------
(PID.TID 0000.0001) //     45 ----------------------------------------------------------------------
(PID.TID 0000.0001) //     44 ----------------------------------------------------------------------
(PID.TID 0000.0001) //     43 ----------------------------------------------------------------------
(PID.TID 0000.0001) //     42 ----------------------------------------------------------------------
(PID.TID 0000.0001) //     41 ----------------------------------------------------------------------
(PID.TID 0000.0001) //     40 ----------------------------------------------------------------------
(PID.TID 0000.0001) //     39 ----------------------------------------------------------------------
(PID.TID 0000.0001) //     38 ----------------------------------------------------------------------
(PID.TID 0000.0001) //     37 ----------------------------------------------------------------------
(PID.TID 0000.0001) //     36 ----------------------------------------------------------------------
(PID.TID 0000.0001) //     35 ----------------------------------------------------------------------
(PID.TID 0000.0001) //     34 ----------------------------------------------------------------------
(PID.TID 0000.0001) //     33 ----------------------------------------------------------------------
(PID.TID 0000.0001) //     32 ----------------------------------------------------------------------
(PID.TID 0000.0001) //     31 ----------------------------------------------------------------------
(PID.TID 0000.0001) //     30 ----------------------------------------------------------------------
(PID.TID 0000.0001) //     29 ----------------------------------------------------------------------
(PID.TID 0000.0001) //     28 ----------------------------------------------------------------------
(PID.TID 0000.0001) //     27 ----------------------------------------------------------------------
(PID.TID 0000.0001) //     26 ----------------------------------------------------------------------
(PID.TID 0000.0001) //     25 ----------------------------------------------------------------------
(PID.TID 0000.0001) //     24 ----------------------------------------------------------------------
(PID.TID 0000.0001) //     23 ----------------------------------------------------------------------
(PID.TID 0000.0001) //     22 ----------------------------------------------------------------------
(PID.TID 0000.0001) //     21 ----------------------------------------------------------------------
(PID.TID 0000.0001) //     20 ----------------------------------------------------------------------
(PID.TID 0000.0001) //     19 ----------------------------------------------------------------------
(PID.TID 0000.0001) //     18 ----------------------------------------------------------------------
(PID.TID 0000.0001) //     17 ----------------------------------------------------------------------
(PID.TID 0000.0001) //     16 ----------------------------------------------------------------------
(PID.TID 0000.0001) //     15 ----------------------------------------------------------------------
(PID.TID 0000.0001) //     14 ----------------------------------------------------------------------
(PID.TID 0000.0001) //     13 ----------------------------------------------------------------------
(PID.TID 0000.0001) //     12 ----------------------------------------------------------------------
(PID.TID 0000.0001) //     11 ----------------------------------------------------------------------
(PID.TID 0000.0001) //     10 ----------------------------------------------------------------------
(PID.TID 0000.0001) //      9 ----------------------------------------------------------------------
(PID.TID 0000.0001) //      8 ----------------------------------------------------------------------
(PID.TID 0000.0001) //      7 ----------------------------------------------------------------------
(PID.TID 0000.0001) //      6 ----------------------------------------------------------------------
(PID.TID 0000.0001) //      5 ----------------------------------------------------------------------
(PID.TID 0000.0001) //      4 ----------------------------------------------------------------------
(PID.TID 0000.0001) //      3 ----------------------------------------------------------------------
(PID.TID 0000.0001) //      2 ----------------------------------------------------------------------
(PID.TID 0000.0001) //      1 ----------------------------------------------------------------------
(PID.TID 0000.0001) //      0 ----------------------------------------------------------------------
(PID.TID 0000.0001) //     -1 ----------------------------------------------------------------------
(PID.TID 0000.0001) //     -2 ----------------------------------------------------------------------
(PID.TID 0000.0001) // =======================================================
(PID.TID 0000.0001) // END OF FIELD                                          =
(PID.TID 0000.0001) // =======================================================
(PID.TID 0000.0001) 
(PID.TID 0000.0001) // =======================================================
(PID.TID 0000.0001) // Field hFacS at iteration          1
(PID.TID 0000.0001) // CMIN =          1.000000000000000E+00
(PID.TID 0000.0001) // CMAX =          1.000000000000000E+00
(PID.TID 0000.0001) // CINT =          0.000000000000000E+00
(PID.TID 0000.0001) // SYMBOLS (CMIN->CMAX): -abcdefghijklmnopqrstuvwxyz+
(PID.TID 0000.0001) //                  0.0: .
(PID.TID 0000.0001) // RANGE I (Lo:Hi:Step):(  -2:  67:   1)
(PID.TID 0000.0001) // RANGE J (Lo:Hi:Step):(  67:  -2:  -1)
(PID.TID 0000.0001) // RANGE K (Lo:Hi:Step):(   1:   1:   1)
(PID.TID 0000.0001) // =======================================================
(PID.TID 0000.0001) K =   1
(PID.TID 0000.0001) //                I=7       I=17      I=27      I=37      I=47      I=57      I=67
(PID.TID 0000.0001) // |--J--|**0123456|890123456|890123456|890123456|890123456|890123456|890123456|
(PID.TID 0000.0001) //     67 ----------------------------------------------------------------------
(PID.TID 0000.0001) //     66 ----------------------------------------------------------------------
(PID.TID 0000.0001) //     65 ----------------------------------------------------------------------
(PID.TID 0000.0001) //     64 ----------------------------------------------------------------------
(PID.TID 0000.0001) //     63 ----------------------------------------------------------------------
(PID.TID 0000.0001) //     62 ----------------------------------------------------------------------
(PID.TID 0000.0001) //     61 ----------------------------------------------------------------------
(PID.TID 0000.0001) //     60 ----------------------------------------------------------------------
(PID.TID 0000.0001) //     59 ----------------------------------------------------------------------
(PID.TID 0000.0001) //     58 ----------------------------------------------------------------------
(PID.TID 0000.0001) //     57 ----------------------------------------------------------------------
(PID.TID 0000.0001) //     56 ----------------------------------------------------------------------
(PID.TID 0000.0001) //     55 ----------------------------------------------------------------------
(PID.TID 0000.0001) //     54 ----------------------------------------------------------------------
(PID.TID 0000.0001) //     53 ----------------------------------------------------------------------
(PID.TID 0000.0001) //     52 ----------------------------------------------------------------------
(PID.TID 0000.0001) //     51 ----------------------------------------------------------------------
(PID.TID 0000.0001) //     50 ----------------------------------------------------------------------
(PID.TID 0000.0001) //     49 ----------------------------------------------------------------------
(PID.TID 0000.0001) //     48 ----------------------------------------------------------------------
(PID.TID 0000.0001) //     47 ----------------------------------------------------------------------
(PID.TID 0000.0001) //     46 ----------------------------------------------------------------------
(PID.TID 0000.0001) //     45 ----------------------------------------------------------------------
(PID.TID 0000.0001) //     44 ----------------------------------------------------------------------
(PID.TID 0000.0001) //     43 ----------------------------------------------------------------------
(PID.TID 0000.0001) //     42 ----------------------------------------------------------------------
(PID.TID 0000.0001) //     41 ----------------------------------------------------------------------
(PID.TID 0000.0001) //     40 ----------------------------------------------------------------------
(PID.TID 0000.0001) //     39 ----------------------------------------------------------------------
(PID.TID 0000.0001) //     38 ----------------------------------------------------------------------
(PID.TID 0000.0001) //     37 ----------------------------------------------------------------------
(PID.TID 0000.0001) //     36 ----------------------------------------------------------------------
(PID.TID 0000.0001) //     35 ----------------------------------------------------------------------
(PID.TID 0000.0001) //     34 ----------------------------------------------------------------------
(PID.TID 0000.0001) //     33 ----------------------------------------------------------------------
(PID.TID 0000.0001) //     32 ----------------------------------------------------------------------
(PID.TID 0000.0001) //     31 ----------------------------------------------------------------------
(PID.TID 0000.0001) //     30 ----------------------------------------------------------------------
(PID.TID 0000.0001) //     29 ----------------------------------------------------------------------
(PID.TID 0000.0001) //     28 ----------------------------------------------------------------------
(PID.TID 0000.0001) //     27 ----------------------------------------------------------------------
(PID.TID 0000.0001) //     26 ----------------------------------------------------------------------
(PID.TID 0000.0001) //     25 ----------------------------------------------------------------------
(PID.TID 0000.0001) //     24 ----------------------------------------------------------------------
(PID.TID 0000.0001) //     23 ----------------------------------------------------------------------
(PID.TID 0000.0001) //     22 ----------------------------------------------------------------------
(PID.TID 0000.0001) //     21 ----------------------------------------------------------------------
(PID.TID 0000.0001) //     20 ----------------------------------------------------------------------
(PID.TID 0000.0001) //     19 ----------------------------------------------------------------------
(PID.TID 0000.0001) //     18 ----------------------------------------------------------------------
(PID.TID 0000.0001) //     17 ----------------------------------------------------------------------
(PID.TID 0000.0001) //     16 ----------------------------------------------------------------------
(PID.TID 0000.0001) //     15 ----------------------------------------------------------------------
(PID.TID 0000.0001) //     14 ----------------------------------------------------------------------
(PID.TID 0000.0001) //     13 ----------------------------------------------------------------------
(PID.TID 0000.0001) //     12 ----------------------------------------------------------------------
(PID.TID 0000.0001) //     11 ----------------------------------------------------------------------
(PID.TID 0000.0001) //     10 ----------------------------------------------------------------------
(PID.TID 0000.0001) //      9 ----------------------------------------------------------------------
(PID.TID 0000.0001) //      8 ----------------------------------------------------------------------
(PID.TID 0000.0001) //      7 ----------------------------------------------------------------------
(PID.TID 0000.0001) //      6 ----------------------------------------------------------------------
(PID.TID 0000.0001) //      5 ----------------------------------------------------------------------
(PID.TID 0000.0001) //      4 ----------------------------------------------------------------------
(PID.TID 0000.0001) //      3 ----------------------------------------------------------------------
(PID.TID 0000.0001) //      2 ----------------------------------------------------------------------
(PID.TID 0000.0001) //      1 ----------------------------------------------------------------------
(PID.TID 0000.0001) //      0 ----------------------------------------------------------------------
(PID.TID 0000.0001) //     -1 ----------------------------------------------------------------------
(PID.TID 0000.0001) //     -2 ----------------------------------------------------------------------
(PID.TID 0000.0001) // =======================================================
(PID.TID 0000.0001) // END OF FIELD                                          =
(PID.TID 0000.0001) // =======================================================
(PID.TID 0000.0001) 
(PID.TID 0000.0001) %MON fCori_max                    =   1.2500000000000E+03
(PID.TID 0000.0001) %MON fCori_min                    =   1.2500000000000E+03
(PID.TID 0000.0001) %MON fCori_mean                   =   1.2500000000000E+03
(PID.TID 0000.0001) %MON fCori_sd                     =   0.0000000000000E+00
(PID.TID 0000.0001) %MON fCoriG_max                   =   1.2500000000000E+03
(PID.TID 0000.0001) %MON fCoriG_min                   =   1.2500000000000E+03
(PID.TID 0000.0001) %MON fCoriG_mean                  =   1.2500000000000E+03
(PID.TID 0000.0001) %MON fCoriG_sd                    =   0.0000000000000E+00
(PID.TID 0000.0001) %MON fCoriCos_max                 =   0.0000000000000E+00
(PID.TID 0000.0001) %MON fCoriCos_min                 =   0.0000000000000E+00
(PID.TID 0000.0001) %MON fCoriCos_mean                =   0.0000000000000E+00
(PID.TID 0000.0001) %MON fCoriCos_sd                  =   0.0000000000000E+00
(PID.TID 0000.0001)  PACKAGES_BOOT: opening data.pkg
(PID.TID 0000.0001)  OPEN_COPY_DATA_FILE: opening file data.pkg
(PID.TID 0000.0001) // =======================================================
(PID.TID 0000.0001) // Parameter file "data.pkg"
(PID.TID 0000.0001) // =======================================================
(PID.TID 0000.0001) ># Packages
(PID.TID 0000.0001) > &PACKAGES
(PID.TID 0000.0001) > &
(PID.TID 0000.0001) 
(PID.TID 0000.0001)  PACKAGES_BOOT: finished reading data.pkg
(PID.TID 0000.0001) 
(PID.TID 0000.0001) // ===================================
(PID.TID 0000.0001) // GAD parameters :
(PID.TID 0000.0001) // ===================================
(PID.TID 0000.0001) tempAdvScheme =   /* Temp. advection scheme selector */
(PID.TID 0000.0001)                       2
(PID.TID 0000.0001)     ;
(PID.TID 0000.0001) tempMultiDimAdvec =   /* use Muti-Dim Advec method for Temp */
(PID.TID 0000.0001)                   F
(PID.TID 0000.0001)     ;
(PID.TID 0000.0001) tempAdamsBashforth =   /* use Adams-Bashforth time-stepping for Temp */
(PID.TID 0000.0001)                   T
(PID.TID 0000.0001)     ;
(PID.TID 0000.0001) saltAdvScheme =   /* Salt. advection scheme selector */
(PID.TID 0000.0001)                       2
(PID.TID 0000.0001)     ;
(PID.TID 0000.0001) saltMultiDimAdvec =   /* use Muti-Dim Advec method for Salt */
(PID.TID 0000.0001)                   F
(PID.TID 0000.0001)     ;
(PID.TID 0000.0001) saltAdamsBashforth =   /* use Adams-Bashforth time-stepping for Salt */
(PID.TID 0000.0001)                   T
(PID.TID 0000.0001)     ;
(PID.TID 0000.0001) // ===================================
(PID.TID 0000.0001) // CG2D normalisation factor =          0.4999999999999998889776975E+00
(PID.TID 0000.0001) 
(PID.TID 0000.0001) // CG3D normalisation factor =          0.1000000000000000000000000E+02
(PID.TID 0000.0001) 
(PID.TID 0000.0001) CONFIG_CHECK: OK
(PID.TID 0000.0001) // =======================================================
(PID.TID 0000.0001) // Model configuration
(PID.TID 0000.0001) // =======================================================
(PID.TID 0000.0001) //
(PID.TID 0000.0001) // "Physical" paramters ( PARM01 in namelist )
(PID.TID 0000.0001) //
(PID.TID 0000.0001) buoyancyRelation = OCEANIC
(PID.TID 0000.0001) tRef =   /* Reference temperature profile ( oC or oK ) */
(PID.TID 0000.0001)    20 @  1.000000000000000E+00              /* K =  1: 20 */
(PID.TID 0000.0001)     ;
(PID.TID 0000.0001) sRef =   /* Reference salinity profile ( ppt ) */
(PID.TID 0000.0001)    20 @  3.500000000000000E+01              /* K =  1: 20 */
(PID.TID 0000.0001)     ;
(PID.TID 0000.0001) viscAh =   /* Lateral eddy viscosity ( m^2/s ) */
(PID.TID 0000.0001)                 1.000000000000000E+00
(PID.TID 0000.0001)     ;
(PID.TID 0000.0001) viscAh =   /* Lateral biharmonic viscosity ( m^4/s ) */
(PID.TID 0000.0001)                 0.000000000000000E+00
(PID.TID 0000.0001)     ;
(PID.TID 0000.0001) no_slip_sides =  /* Viscous BCs: No-slip sides */
(PID.TID 0000.0001)                   F
(PID.TID 0000.0001)     ;
(PID.TID 0000.0001) viscAz =   /* Vertical eddy viscosity ( m^2/s ) */
(PID.TID 0000.0001)                 1.000000000000000E+00
(PID.TID 0000.0001)     ;
(PID.TID 0000.0001) viscAr =   /* Vertical eddy viscosity ( units of r^2/s ) */
(PID.TID 0000.0001)                 1.000000000000000E+00
(PID.TID 0000.0001)     ;
(PID.TID 0000.0001) diffKhT =   /* Laplacian diffusion of heat laterally ( m^2/s ) */
(PID.TID 0000.0001)                 1.000000000000000E+00
(PID.TID 0000.0001)     ;
(PID.TID 0000.0001) diffK4T =   /* Bihaarmonic diffusion of heat laterally ( m^4/s ) */
(PID.TID 0000.0001)                 0.000000000000000E+00
(PID.TID 0000.0001)     ;
(PID.TID 0000.0001) diffKzT =   /* Laplacian diffusion of heat vertically ( m^2/s ) */
(PID.TID 0000.0001)                 1.000000000000000E+00
(PID.TID 0000.0001)     ;
(PID.TID 0000.0001) diffKrT =   /* Laplacian diffusion of heat vertically ( m^2/s ) */
(PID.TID 0000.0001)                 1.000000000000000E+00
(PID.TID 0000.0001)     ;
(PID.TID 0000.0001) diffKhS =   /* Laplacian diffusion of salt laterally ( m^2/s ) */
(PID.TID 0000.0001)                 1.000000000000000E+00
(PID.TID 0000.0001)     ;
(PID.TID 0000.0001) diffK4S =   /* Bihaarmonic diffusion of salt laterally ( m^4/s ) */
(PID.TID 0000.0001)                 0.000000000000000E+00
(PID.TID 0000.0001)     ;
(PID.TID 0000.0001) diffKzS =   /* Laplacian diffusion of salt vertically ( m^2/s ) */
(PID.TID 0000.0001)                 1.000000000000000E+00
(PID.TID 0000.0001)     ;
(PID.TID 0000.0001) diffKrS =   /* Laplacian diffusion of salt vertically ( m^2/s ) */
(PID.TID 0000.0001)                 1.000000000000000E+00
(PID.TID 0000.0001)     ;
(PID.TID 0000.0001)  Equation of State : eosType = LINEAR
(PID.TID 0000.0001) tAlpha =   /* Linear EOS thermal expansion coefficient ( 1/degree ) */
(PID.TID 0000.0001)                 1.000000000000000E+00
(PID.TID 0000.0001)     ;
(PID.TID 0000.0001) sBeta =   /* Linear EOS haline contraction coefficient ( 1/ppt ) */
(PID.TID 0000.0001)                 0.000000000000000E+00
(PID.TID 0000.0001)     ;
(PID.TID 0000.0001) rhonil =   /* Reference density ( kg/m^3 ) */
(PID.TID 0000.0001)                 1.000000000000000E+00
(PID.TID 0000.0001)     ;
(PID.TID 0000.0001) rhoConst =   /* Reference density ( kg/m^3 ) */
(PID.TID 0000.0001)                 1.000000000000000E+00
(PID.TID 0000.0001)     ;
(PID.TID 0000.0001) rhoConstFresh =   /* Reference density ( kg/m^3 ) */
(PID.TID 0000.0001)                 9.998000000000000E+02
(PID.TID 0000.0001)     ;
(PID.TID 0000.0001) gravity =   /* Gravitational acceleration ( m/s^2 ) */
(PID.TID 0000.0001)                 1.400000000000000E+08
(PID.TID 0000.0001)     ;
(PID.TID 0000.0001) gBaro =   /* Barotropic gravity ( m/s^2 ) */
(PID.TID 0000.0001)                 1.400000000000000E+08
(PID.TID 0000.0001)     ;
(PID.TID 0000.0001) f0 =   /* Reference coriolis parameter ( 1/s ) */
(PID.TID 0000.0001)                 1.250000000000000E+03
(PID.TID 0000.0001)     ;
(PID.TID 0000.0001) beta =   /* Beta ( 1/(m.s) ) */
(PID.TID 0000.0001)                 0.000000000000000E+00
(PID.TID 0000.0001)     ;
(PID.TID 0000.0001) freeSurfFac =   /* Implicit free surface factor */
(PID.TID 0000.0001)                 1.000000000000000E+00
(PID.TID 0000.0001)     ;
(PID.TID 0000.0001) implicitFreeSurface =   /* Implicit free surface on/off flag */
(PID.TID 0000.0001)                   T
(PID.TID 0000.0001)     ;
(PID.TID 0000.0001) rigidLid =   /* Rigid lid on/off flag */
(PID.TID 0000.0001)                   F
(PID.TID 0000.0001)     ;
(PID.TID 0000.0001) implicSurfPress =   /* Surface Pressure implicit factor (0-1)*/
(PID.TID 0000.0001)                 1.000000000000000E+00
(PID.TID 0000.0001)     ;
(PID.TID 0000.0001) implicDiv2Dflow =   /* Barot. Flow Div. implicit factor (0-1)*/
(PID.TID 0000.0001)                 1.000000000000000E+00
(PID.TID 0000.0001)     ;
(PID.TID 0000.0001) exactConserv =   /* Exact Volume Conservation on/off flag*/
(PID.TID 0000.0001)                   F
(PID.TID 0000.0001)     ;
(PID.TID 0000.0001) uniformLin_PhiSurf =   /* use uniform Bo_surf on/off flag*/
(PID.TID 0000.0001)                   T
(PID.TID 0000.0001)     ;
(PID.TID 0000.0001) nonlinFreeSurf =   /* Non-linear Free Surf. options (-1,0,1,2,3)*/
(PID.TID 0000.0001)                       0
(PID.TID 0000.0001)     ;
(PID.TID 0000.0001)      -1,0= Off ; 1,2,3= On, 2=+rescale gU,gV, 3=+update cg2d solv.
(PID.TID 0000.0001) hFacInf =   /* lower threshold for hFac (nonlinFreeSurf only)*/
(PID.TID 0000.0001)                 1.000000000000000E+00
(PID.TID 0000.0001)     ;
(PID.TID 0000.0001) hFacSup =   /* upper threshold for hFac (nonlinFreeSurf only)*/
(PID.TID 0000.0001)                 1.000000000000000E+00
(PID.TID 0000.0001)     ;
(PID.TID 0000.0001) useRealFreshWaterFlux =   /* Real Fresh Water Flux on/off flag*/
(PID.TID 0000.0001)                   F
(PID.TID 0000.0001)     ;
(PID.TID 0000.0001) convertFW2Salt = /* convert F.W. Flux to Salt Flux (-1=use local S)(ppt)*/
(PID.TID 0000.0001)                 3.500000000000000E+01
(PID.TID 0000.0001)     ;
(PID.TID 0000.0001) multiDimAdvection =   /* enable/disable Multi-Dim Advection */
(PID.TID 0000.0001)                   T
(PID.TID 0000.0001)     ;
(PID.TID 0000.0001) staggerTimeStep =   /* Stagger time stepping on/off flag */
(PID.TID 0000.0001)                   F
(PID.TID 0000.0001)     ;
(PID.TID 0000.0001) momStepping =  /* Momentum equation on/off flag */
(PID.TID 0000.0001)                   T
(PID.TID 0000.0001)     ;
(PID.TID 0000.0001) momAdvection =  /* Momentum advection on/off flag */
(PID.TID 0000.0001)                   T
(PID.TID 0000.0001)     ;
(PID.TID 0000.0001) momViscosity =  /* Momentum viscosity on/off flag */
(PID.TID 0000.0001)                   T
(PID.TID 0000.0001)     ;
(PID.TID 0000.0001) useCoriolis =  /* Coriolis on/off flag */
(PID.TID 0000.0001)                   T
(PID.TID 0000.0001)     ;
(PID.TID 0000.0001) momForcing =  /* Momentum forcing on/off flag */
(PID.TID 0000.0001)                   T
(PID.TID 0000.0001)     ;
(PID.TID 0000.0001) momPressureForcing =  /* Momentum pressure term on/off flag */
(PID.TID 0000.0001)                   T
(PID.TID 0000.0001)     ;
(PID.TID 0000.0001) tempStepping =  /* Temperature equation on/off flag */
(PID.TID 0000.0001)                   T
(PID.TID 0000.0001)     ;
(PID.TID 0000.0001) tempAdvection=  /* Temperature advection on/off flag */
(PID.TID 0000.0001)                   T
(PID.TID 0000.0001)     ;
(PID.TID 0000.0001) tempForcing  =  /* Temperature forcing on/off flag */
(PID.TID 0000.0001)                   T
(PID.TID 0000.0001)     ;
(PID.TID 0000.0001) saltStepping =  /* Salinity equation on/off flag */
(PID.TID 0000.0001)                   T
(PID.TID 0000.0001)     ;
(PID.TID 0000.0001) saltAdvection=  /* Salinity advection on/off flag */
(PID.TID 0000.0001)                   T
(PID.TID 0000.0001)     ;
(PID.TID 0000.0001) saltForcing  =  /* Salinity forcing on/off flag */
(PID.TID 0000.0001)                   T
(PID.TID 0000.0001)     ;
(PID.TID 0000.0001) nonHydrostatic =  /* Non-Hydrostatic on/off flag */
(PID.TID 0000.0001)                   T
(PID.TID 0000.0001)     ;
(PID.TID 0000.0001) //
(PID.TID 0000.0001) // Elliptic solver(s) paramters ( PARM02 in namelist )
(PID.TID 0000.0001) //
(PID.TID 0000.0001) cg2dMaxIters =   /* Upper limit on 2d con. grad iterations  */
(PID.TID 0000.0001)                    1000
(PID.TID 0000.0001)     ;
(PID.TID 0000.0001) cg2dChkResFreq =   /* 2d con. grad convergence test frequency */
(PID.TID 0000.0001)                       1
(PID.TID 0000.0001)     ;
(PID.TID 0000.0001) cg2dTargetResidual =   /* 2d con. grad target residual  */
(PID.TID 0000.0001)                 1.000000000000000E-09
(PID.TID 0000.0001)     ;
(PID.TID 0000.0001) //
(PID.TID 0000.0001) // Time stepping paramters ( PARM03 in namelist )
(PID.TID 0000.0001) //
(PID.TID 0000.0001) nIter0 =   /* Base timestep number  */
(PID.TID 0000.0001)                       0
(PID.TID 0000.0001)     ;
(PID.TID 0000.0001) nTimeSteps =   /* Number of timesteps */
(PID.TID 0000.0001)                      10
(PID.TID 0000.0001)     ;
(PID.TID 0000.0001) deltatTmom =   /* Momentum equation timestep ( s ) */
(PID.TID 0000.0001)                 2.000000000000000E-04
(PID.TID 0000.0001)     ;
(PID.TID 0000.0001) deltaTfreesurf =   /* FreeSurface equation timestep ( s ) */
(PID.TID 0000.0001)                 2.000000000000000E-04
(PID.TID 0000.0001)     ;
(PID.TID 0000.0001) deltatTtracer =   /* Tracer equation timestep ( s ) */
(PID.TID 0000.0001)                 2.000000000000000E-04
(PID.TID 0000.0001)     ;
(PID.TID 0000.0001) deltatTClock  =   /* Model clock timestep ( s ) */
(PID.TID 0000.0001)                 2.000000000000000E-04
(PID.TID 0000.0001)     ;
(PID.TID 0000.0001) cAdjFreq =   /* Convective adjustment interval ( s ) */
(PID.TID 0000.0001)                 0.000000000000000E+00
(PID.TID 0000.0001)     ;
(PID.TID 0000.0001) forcing_In_AB =   /* put T,S Forcing in Adams-Bash. stepping */
(PID.TID 0000.0001)                   T
(PID.TID 0000.0001)     ;
(PID.TID 0000.0001) abeps =   /* Adams-Bashforth stabilizing weight */
(PID.TID 0000.0001)                 1.000000000000000E-01
(PID.TID 0000.0001)     ;
(PID.TID 0000.0001) tauCD =   /* CD coupling time-scale ( s ) */
(PID.TID 0000.0001)                 2.000000000000000E-04
(PID.TID 0000.0001)     ;
(PID.TID 0000.0001) rCD =   /* Normalised CD coupling parameter */
(PID.TID 0000.0001)                 0.000000000000000E+00
(PID.TID 0000.0001)     ;
(PID.TID 0000.0001) startTime =   /* Run start time ( s ). */
(PID.TID 0000.0001)                 0.000000000000000E+00
(PID.TID 0000.0001)     ;
(PID.TID 0000.0001) endTime =   /* Integration ending time ( s ). */
(PID.TID 0000.0001)                 2.000000000000000E-03
(PID.TID 0000.0001)     ;
(PID.TID 0000.0001) pChkPtFreq =   /* Permanent restart/checkpoint file interval ( s ). */
(PID.TID 0000.0001)                 0.000000000000000E+00
(PID.TID 0000.0001)     ;
(PID.TID 0000.0001) chkPtFreq =   /* Rolling restart/checkpoint file interval ( s ). */
(PID.TID 0000.0001)                 0.000000000000000E+00
(PID.TID 0000.0001)     ;
(PID.TID 0000.0001) dumpFreq =   /* Model state write out interval ( s ). */
(PID.TID 0000.0001)                 1.000000000000000E-01
(PID.TID 0000.0001)     ;
(PID.TID 0000.0001) //
(PID.TID 0000.0001) // Gridding paramters ( PARM04 in namelist )
(PID.TID 0000.0001) //
(PID.TID 0000.0001) usingCartesianGrid =   /* Cartesian coordinates flag ( True / False ) */
(PID.TID 0000.0001)                   T
(PID.TID 0000.0001)     ;
(PID.TID 0000.0001) usingSphericalPolarGrid =   /* Spherical coordinates flag ( True / False ) */
(PID.TID 0000.0001)                   F
(PID.TID 0000.0001)     ;
(PID.TID 0000.0001) groundAtK1 =   /* Lower Boundary (ground) at the surface(k=1) ( T / F ) */
(PID.TID 0000.0001)                   F
(PID.TID 0000.0001)     ;
(PID.TID 0000.0001) Ro_SeaLevel =   /* r(1) ( units of r ) */
(PID.TID 0000.0001)                 0.000000000000000E+00
(PID.TID 0000.0001)     ;
(PID.TID 0000.0001) rkFac =   /* minus Vertical index orientation  */
(PID.TID 0000.0001)                 1.000000000000000E+00
(PID.TID 0000.0001)     ;
(PID.TID 0000.0001) horiVertRatio =   /* Ratio on units : Horiz - Vertical */
(PID.TID 0000.0001)                 1.000000000000000E+00
(PID.TID 0000.0001)     ;
(PID.TID 0000.0001) drC =   /* C spacing ( units of r ) */
(PID.TID 0000.0001)                 5.000000000000000E-02,      /* K =  1 */
(PID.TID 0000.0001)    19 @  1.000000000000000E-01              /* K =  2: 20 */
(PID.TID 0000.0001)     ;
(PID.TID 0000.0001) drF =   /* W spacing ( units of r ) */
(PID.TID 0000.0001)    20 @  1.000000000000000E-01              /* K =  1: 20 */
(PID.TID 0000.0001)     ;
(PID.TID 0000.0001) delX =   /* U spacing ( m - cartesian, degrees - spherical ) */
(PID.TID 0000.0001)    64 @  6.250000000000000E-02              /* I =  1: 64 */
(PID.TID 0000.0001)     ;
(PID.TID 0000.0001) delY =   /* V spacing ( m - cartesian, degrees - spherical ) */
(PID.TID 0000.0001)    64 @  6.250000000000000E-02              /* J =  1: 64 */
(PID.TID 0000.0001)     ;
(PID.TID 0000.0001) phiMin =    /* South edge (ignored - cartesian, degrees - spherical ) */
(PID.TID 0000.0001)                 0.000000000000000E+00
(PID.TID 0000.0001)     ;
(PID.TID 0000.0001) thetaMin =    /* West edge ( ignored - cartesian, degrees - spherical ) */
(PID.TID 0000.0001)                 0.000000000000000E+00
(PID.TID 0000.0001)     ;
(PID.TID 0000.0001) rSphere =    /* Radius ( ignored - cartesian, m - spherical ) */
(PID.TID 0000.0001)                 6.370000000000000E+06
(PID.TID 0000.0001)     ;
(PID.TID 0000.0001) xcoord =   /* P-point X coord ( m - cartesian, degrees - spherical ) */
(PID.TID 0000.0001)                 3.125000000000000E-02,      /* I =  1 */
(PID.TID 0000.0001)                 9.375000000000000E-02,      /* I =  2 */
(PID.TID 0000.0001)                 1.562500000000000E-01,      /* I =  3 */
(PID.TID 0000.0001)                 2.187500000000000E-01,      /* I =  4 */
(PID.TID 0000.0001)                 2.812500000000000E-01,      /* I =  5 */
(PID.TID 0000.0001)                 3.437500000000000E-01,      /* I =  6 */
(PID.TID 0000.0001)                 4.062500000000000E-01,      /* I =  7 */
(PID.TID 0000.0001)                 4.687500000000000E-01,      /* I =  8 */
(PID.TID 0000.0001)                 5.312500000000000E-01,      /* I =  9 */
(PID.TID 0000.0001)                 5.937500000000000E-01,      /* I = 10 */
(PID.TID 0000.0001)                 6.562500000000000E-01,      /* I = 11 */
(PID.TID 0000.0001)                 7.187500000000000E-01,      /* I = 12 */
(PID.TID 0000.0001)                 7.812500000000000E-01,      /* I = 13 */
(PID.TID 0000.0001)                 8.437500000000000E-01,      /* I = 14 */
(PID.TID 0000.0001)                 9.062500000000000E-01,      /* I = 15 */
(PID.TID 0000.0001)                 9.687500000000000E-01,      /* I = 16 */
(PID.TID 0000.0001)                 1.031250000000000E+00,      /* I = 17 */
(PID.TID 0000.0001)                 1.093750000000000E+00,      /* I = 18 */
(PID.TID 0000.0001)                 1.156250000000000E+00,      /* I = 19 */
(PID.TID 0000.0001)                 1.218750000000000E+00,      /* I = 20 */
(PID.TID 0000.0001)                 1.281250000000000E+00,      /* I = 21 */
(PID.TID 0000.0001)                 1.343750000000000E+00,      /* I = 22 */
(PID.TID 0000.0001)                 1.406250000000000E+00,      /* I = 23 */
(PID.TID 0000.0001)                 1.468750000000000E+00,      /* I = 24 */
(PID.TID 0000.0001)                 1.531250000000000E+00,      /* I = 25 */
(PID.TID 0000.0001)                 1.593750000000000E+00,      /* I = 26 */
(PID.TID 0000.0001)                 1.656250000000000E+00,      /* I = 27 */
(PID.TID 0000.0001)                 1.718750000000000E+00,      /* I = 28 */
(PID.TID 0000.0001)                 1.781250000000000E+00,      /* I = 29 */
(PID.TID 0000.0001)                 1.843750000000000E+00,      /* I = 30 */
(PID.TID 0000.0001)                 1.906250000000000E+00,      /* I = 31 */
(PID.TID 0000.0001)                 1.968750000000000E+00,      /* I = 32 */
(PID.TID 0000.0001)                 2.031250000000000E+00,      /* I = 33 */
(PID.TID 0000.0001)                 2.093750000000000E+00,      /* I = 34 */
(PID.TID 0000.0001)                 2.156250000000000E+00,      /* I = 35 */
(PID.TID 0000.0001)                 2.218750000000000E+00,      /* I = 36 */
(PID.TID 0000.0001)                 2.281250000000000E+00,      /* I = 37 */
(PID.TID 0000.0001)                 2.343750000000000E+00,      /* I = 38 */
(PID.TID 0000.0001)                 2.406250000000000E+00,      /* I = 39 */
(PID.TID 0000.0001)                 2.468750000000000E+00,      /* I = 40 */
(PID.TID 0000.0001)                 2.531250000000000E+00,      /* I = 41 */
(PID.TID 0000.0001)                 2.593750000000000E+00,      /* I = 42 */
(PID.TID 0000.0001)                 2.656250000000000E+00,      /* I = 43 */
(PID.TID 0000.0001)                 2.718750000000000E+00,      /* I = 44 */
(PID.TID 0000.0001)                 2.781250000000000E+00,      /* I = 45 */
(PID.TID 0000.0001)                 2.843750000000000E+00,      /* I = 46 */
(PID.TID 0000.0001)                 2.906250000000000E+00,      /* I = 47 */
(PID.TID 0000.0001)                 2.968750000000000E+00,      /* I = 48 */
(PID.TID 0000.0001)                 3.031250000000000E+00,      /* I = 49 */
(PID.TID 0000.0001)                 3.093750000000000E+00,      /* I = 50 */
(PID.TID 0000.0001)                 3.156250000000000E+00,      /* I = 51 */
(PID.TID 0000.0001)                 3.218750000000000E+00,      /* I = 52 */
(PID.TID 0000.0001)                 3.281250000000000E+00,      /* I = 53 */
(PID.TID 0000.0001)                 3.343750000000000E+00,      /* I = 54 */
(PID.TID 0000.0001)                 3.406250000000000E+00,      /* I = 55 */
(PID.TID 0000.0001)                 3.468750000000000E+00,      /* I = 56 */
(PID.TID 0000.0001)                 3.531250000000000E+00,      /* I = 57 */
(PID.TID 0000.0001)                 3.593750000000000E+00,      /* I = 58 */
(PID.TID 0000.0001)                 3.656250000000000E+00,      /* I = 59 */
(PID.TID 0000.0001)                 3.718750000000000E+00,      /* I = 60 */
(PID.TID 0000.0001)                 3.781250000000000E+00,      /* I = 61 */
(PID.TID 0000.0001)                 3.843750000000000E+00,      /* I = 62 */
(PID.TID 0000.0001)                 3.906250000000000E+00,      /* I = 63 */
(PID.TID 0000.0001)                 3.968750000000000E+00       /* I = 64 */
(PID.TID 0000.0001)     ;
(PID.TID 0000.0001) ycoord =   /* P-point Y coord ( m - cartesian, degrees - spherical ) */
(PID.TID 0000.0001)                 3.125000000000000E-02,      /* J =  1 */
(PID.TID 0000.0001)                 9.375000000000000E-02,      /* J =  2 */
(PID.TID 0000.0001)                 1.562500000000000E-01,      /* J =  3 */
(PID.TID 0000.0001)                 2.187500000000000E-01,      /* J =  4 */
(PID.TID 0000.0001)                 2.812500000000000E-01,      /* J =  5 */
(PID.TID 0000.0001)                 3.437500000000000E-01,      /* J =  6 */
(PID.TID 0000.0001)                 4.062500000000000E-01,      /* J =  7 */
(PID.TID 0000.0001)                 4.687500000000000E-01,      /* J =  8 */
(PID.TID 0000.0001)                 5.312500000000000E-01,      /* J =  9 */
(PID.TID 0000.0001)                 5.937500000000000E-01,      /* J = 10 */
(PID.TID 0000.0001)                 6.562500000000000E-01,      /* J = 11 */
(PID.TID 0000.0001)                 7.187500000000000E-01,      /* J = 12 */
(PID.TID 0000.0001)                 7.812500000000000E-01,      /* J = 13 */
(PID.TID 0000.0001)                 8.437500000000000E-01,      /* J = 14 */
(PID.TID 0000.0001)                 9.062500000000000E-01,      /* J = 15 */
(PID.TID 0000.0001)                 9.687500000000000E-01,      /* J = 16 */
(PID.TID 0000.0001)                 1.031250000000000E+00,      /* J = 17 */
(PID.TID 0000.0001)                 1.093750000000000E+00,      /* J = 18 */
(PID.TID 0000.0001)                 1.156250000000000E+00,      /* J = 19 */
(PID.TID 0000.0001)                 1.218750000000000E+00,      /* J = 20 */
(PID.TID 0000.0001)                 1.281250000000000E+00,      /* J = 21 */
(PID.TID 0000.0001)                 1.343750000000000E+00,      /* J = 22 */
(PID.TID 0000.0001)                 1.406250000000000E+00,      /* J = 23 */
(PID.TID 0000.0001)                 1.468750000000000E+00,      /* J = 24 */
(PID.TID 0000.0001)                 1.531250000000000E+00,      /* J = 25 */
(PID.TID 0000.0001)                 1.593750000000000E+00,      /* J = 26 */
(PID.TID 0000.0001)                 1.656250000000000E+00,      /* J = 27 */
(PID.TID 0000.0001)                 1.718750000000000E+00,      /* J = 28 */
(PID.TID 0000.0001)                 1.781250000000000E+00,      /* J = 29 */
(PID.TID 0000.0001)                 1.843750000000000E+00,      /* J = 30 */
(PID.TID 0000.0001)                 1.906250000000000E+00,      /* J = 31 */
(PID.TID 0000.0001)                 1.968750000000000E+00,      /* J = 32 */
(PID.TID 0000.0001)                 2.031250000000000E+00,      /* J = 33 */
(PID.TID 0000.0001)                 2.093750000000000E+00,      /* J = 34 */
(PID.TID 0000.0001)                 2.156250000000000E+00,      /* J = 35 */
(PID.TID 0000.0001)                 2.218750000000000E+00,      /* J = 36 */
(PID.TID 0000.0001)                 2.281250000000000E+00,      /* J = 37 */
(PID.TID 0000.0001)                 2.343750000000000E+00,      /* J = 38 */
(PID.TID 0000.0001)                 2.406250000000000E+00,      /* J = 39 */
(PID.TID 0000.0001)                 2.468750000000000E+00,      /* J = 40 */
(PID.TID 0000.0001)                 2.531250000000000E+00,      /* J = 41 */
(PID.TID 0000.0001)                 2.593750000000000E+00,      /* J = 42 */
(PID.TID 0000.0001)                 2.656250000000000E+00,      /* J = 43 */
(PID.TID 0000.0001)                 2.718750000000000E+00,      /* J = 44 */
(PID.TID 0000.0001)                 2.781250000000000E+00,      /* J = 45 */
(PID.TID 0000.0001)                 2.843750000000000E+00,      /* J = 46 */
(PID.TID 0000.0001)                 2.906250000000000E+00,      /* J = 47 */
(PID.TID 0000.0001)                 2.968750000000000E+00,      /* J = 48 */
(PID.TID 0000.0001)                 3.031250000000000E+00,      /* J = 49 */
(PID.TID 0000.0001)                 3.093750000000000E+00,      /* J = 50 */
(PID.TID 0000.0001)                 3.156250000000000E+00,      /* J = 51 */
(PID.TID 0000.0001)                 3.218750000000000E+00,      /* J = 52 */
(PID.TID 0000.0001)                 3.281250000000000E+00,      /* J = 53 */
(PID.TID 0000.0001)                 3.343750000000000E+00,      /* J = 54 */
(PID.TID 0000.0001)                 3.406250000000000E+00,      /* J = 55 */
(PID.TID 0000.0001)                 3.468750000000000E+00,      /* J = 56 */
(PID.TID 0000.0001)                 3.531250000000000E+00,      /* J = 57 */
(PID.TID 0000.0001)                 3.593750000000000E+00,      /* J = 58 */
(PID.TID 0000.0001)                 3.656250000000000E+00,      /* J = 59 */
(PID.TID 0000.0001)                 3.718750000000000E+00,      /* J = 60 */
(PID.TID 0000.0001)                 3.781250000000000E+00,      /* J = 61 */
(PID.TID 0000.0001)                 3.843750000000000E+00,      /* J = 62 */
(PID.TID 0000.0001)                 3.906250000000000E+00,      /* J = 63 */
(PID.TID 0000.0001)                 3.968750000000000E+00       /* J = 64 */
(PID.TID 0000.0001)     ;
(PID.TID 0000.0001) rcoord =   /* P-point R coordinate (  units of r ) */
(PID.TID 0000.0001)                -5.000000000000000E-02,      /* K =  1 */
(PID.TID 0000.0001)                -1.500000000000000E-01,      /* K =  2 */
(PID.TID 0000.0001)                -2.500000000000000E-01,      /* K =  3 */
(PID.TID 0000.0001)                -3.500000000000000E-01,      /* K =  4 */
(PID.TID 0000.0001)                -4.500000000000000E-01,      /* K =  5 */
(PID.TID 0000.0001)                -5.499999999999999E-01,      /* K =  6 */
(PID.TID 0000.0001)                -6.499999999999999E-01,      /* K =  7 */
(PID.TID 0000.0001)                -7.499999999999999E-01,      /* K =  8 */
(PID.TID 0000.0001)                -8.499999999999999E-01,      /* K =  9 */
(PID.TID 0000.0001)                -9.499999999999998E-01,      /* K = 10 */
(PID.TID 0000.0001)                -1.050000000000000E+00,      /* K = 11 */
(PID.TID 0000.0001)                -1.150000000000000E+00,      /* K = 12 */
(PID.TID 0000.0001)                -1.250000000000000E+00,      /* K = 13 */
(PID.TID 0000.0001)                -1.350000000000000E+00,      /* K = 14 */
(PID.TID 0000.0001)                -1.450000000000000E+00,      /* K = 15 */
(PID.TID 0000.0001)                -1.550000000000000E+00,      /* K = 16 */
(PID.TID 0000.0001)                -1.650000000000000E+00,      /* K = 17 */
(PID.TID 0000.0001)                -1.750000000000000E+00,      /* K = 18 */
(PID.TID 0000.0001)                -1.850000000000001E+00,      /* K = 19 */
(PID.TID 0000.0001)                -1.950000000000001E+00       /* K = 20 */
(PID.TID 0000.0001)     ;
(PID.TID 0000.0001) rF =   /* W-Interf. R coordinate (  units of r ) */
(PID.TID 0000.0001)                 0.000000000000000E+00,      /* K =  1 */
(PID.TID 0000.0001)                -1.000000000000000E-01,      /* K =  2 */
(PID.TID 0000.0001)                -2.000000000000000E-01,      /* K =  3 */
(PID.TID 0000.0001)                -3.000000000000000E-01,      /* K =  4 */
(PID.TID 0000.0001)                -4.000000000000000E-01,      /* K =  5 */
(PID.TID 0000.0001)                -5.000000000000000E-01,      /* K =  6 */
(PID.TID 0000.0001)                -6.000000000000000E-01,      /* K =  7 */
(PID.TID 0000.0001)                -7.000000000000000E-01,      /* K =  8 */
(PID.TID 0000.0001)                -7.999999999999999E-01,      /* K =  9 */
(PID.TID 0000.0001)                -8.999999999999999E-01,      /* K = 10 */
(PID.TID 0000.0001)                -9.999999999999999E-01,      /* K = 11 */
(PID.TID 0000.0001)                -1.100000000000000E+00,      /* K = 12 */
(PID.TID 0000.0001)                -1.200000000000000E+00,      /* K = 13 */
(PID.TID 0000.0001)                -1.300000000000000E+00,      /* K = 14 */
(PID.TID 0000.0001)                -1.400000000000000E+00,      /* K = 15 */
(PID.TID 0000.0001)                -1.500000000000000E+00,      /* K = 16 */
(PID.TID 0000.0001)                -1.600000000000000E+00,      /* K = 17 */
(PID.TID 0000.0001)                -1.700000000000000E+00,      /* K = 18 */
(PID.TID 0000.0001)                -1.800000000000000E+00,      /* K = 19 */
(PID.TID 0000.0001)                -1.900000000000001E+00,      /* K = 20 */
(PID.TID 0000.0001)                -2.000000000000000E+00       /* K = 21 */
(PID.TID 0000.0001)     ;
(PID.TID 0000.0001) dxF =  /* dxF(:,1,:,1) ( m - cartesian, degrees - spherical ) */
(PID.TID 0000.0001)    64 @  6.250000000000000E-02              /* I =  1: 64 */
(PID.TID 0000.0001)     ;
(PID.TID 0000.0001) dxF =  /* dxF(1,:,1,:) ( m - cartesian, degrees - spherical ) */
(PID.TID 0000.0001)    64 @  6.250000000000000E-02              /* J =  1: 64 */
(PID.TID 0000.0001)     ;
(PID.TID 0000.0001) dyF =  /* dyF(:,1,:,1) ( m - cartesian, degrees - spherical ) */
(PID.TID 0000.0001)    64 @  6.250000000000000E-02              /* I =  1: 64 */
(PID.TID 0000.0001)     ;
(PID.TID 0000.0001) dyF =  /* dyF(1,:,1,:) ( m - cartesian, degrees - spherical ) */
(PID.TID 0000.0001)    64 @  6.250000000000000E-02              /* J =  1: 64 */
(PID.TID 0000.0001)     ;
(PID.TID 0000.0001) dxG =  /* dxG(:,1,:,1) ( m - cartesian, degrees - spherical ) */
(PID.TID 0000.0001)    64 @  6.250000000000000E-02              /* I =  1: 64 */
(PID.TID 0000.0001)     ;
(PID.TID 0000.0001) dxG =  /* dxG(1,:,1,:) ( m - cartesian, degrees - spherical ) */
(PID.TID 0000.0001)    64 @  6.250000000000000E-02              /* J =  1: 64 */
(PID.TID 0000.0001)     ;
(PID.TID 0000.0001) dyG =  /* dyG(:,1,:,1) ( m - cartesian, degrees - spherical ) */
(PID.TID 0000.0001)    64 @  6.250000000000000E-02              /* I =  1: 64 */
(PID.TID 0000.0001)     ;
(PID.TID 0000.0001) dyG =  /* dyG(1,:,1,:) ( m - cartesian, degrees - spherical ) */
(PID.TID 0000.0001)    64 @  6.250000000000000E-02              /* J =  1: 64 */
(PID.TID 0000.0001)     ;
(PID.TID 0000.0001) dxC =  /* dxC(:,1,:,1) ( m - cartesian, degrees - spherical ) */
(PID.TID 0000.0001)    64 @  6.250000000000000E-02              /* I =  1: 64 */
(PID.TID 0000.0001)     ;
(PID.TID 0000.0001) dxC =  /* dxC(1,:,1,:) ( m - cartesian, degrees - spherical ) */
(PID.TID 0000.0001)    64 @  6.250000000000000E-02              /* J =  1: 64 */
(PID.TID 0000.0001)     ;
(PID.TID 0000.0001) dyC =  /* dyC(:,1,:,1) ( m - cartesian, degrees - spherical ) */
(PID.TID 0000.0001)    64 @  6.250000000000000E-02              /* I =  1: 64 */
(PID.TID 0000.0001)     ;
(PID.TID 0000.0001) dyC =  /* dyC(1,:,1,:) ( m - cartesian, degrees - spherical ) */
(PID.TID 0000.0001)    64 @  6.250000000000000E-02              /* J =  1: 64 */
(PID.TID 0000.0001)     ;
(PID.TID 0000.0001) dxV =  /* dxV(:,1,:,1) ( m - cartesian, degrees - spherical ) */
(PID.TID 0000.0001)    64 @  6.250000000000000E-02              /* I =  1: 64 */
(PID.TID 0000.0001)     ;
(PID.TID 0000.0001) dxV =  /* dxV(1,:,1,:) ( m - cartesian, degrees - spherical ) */
(PID.TID 0000.0001)    64 @  6.250000000000000E-02              /* J =  1: 64 */
(PID.TID 0000.0001)     ;
(PID.TID 0000.0001) dyU =  /* dyU(:,1,:,1) ( m - cartesian, degrees - spherical ) */
(PID.TID 0000.0001)    64 @  6.250000000000000E-02              /* I =  1: 64 */
(PID.TID 0000.0001)     ;
(PID.TID 0000.0001) dyU =  /* dyU(1,:,1,:) ( m - cartesian, degrees - spherical ) */
(PID.TID 0000.0001)    64 @  6.250000000000000E-02              /* J =  1: 64 */
(PID.TID 0000.0001)     ;
(PID.TID 0000.0001) rA =  /* rA(:,1,:,1) ( m - cartesian, degrees - spherical ) */
(PID.TID 0000.0001)    64 @  3.906250000000000E-03              /* I =  1: 64 */
(PID.TID 0000.0001)     ;
(PID.TID 0000.0001) rA =  /* rA(1,:,1,:) ( m - cartesian, degrees - spherical ) */
(PID.TID 0000.0001)    64 @  3.906250000000000E-03              /* J =  1: 64 */
(PID.TID 0000.0001)     ;
(PID.TID 0000.0001) rAw =  /* rAw(:,1,:,1) ( m - cartesian, degrees - spherical ) */
(PID.TID 0000.0001)    64 @  3.906250000000000E-03              /* I =  1: 64 */
(PID.TID 0000.0001)     ;
(PID.TID 0000.0001) rAw =  /* rAw(1,:,1,:) ( m - cartesian, degrees - spherical ) */
(PID.TID 0000.0001)    64 @  3.906250000000000E-03              /* J =  1: 64 */
(PID.TID 0000.0001)     ;
(PID.TID 0000.0001) rAs =  /* rAs(:,1,:,1) ( m - cartesian, degrees - spherical ) */
(PID.TID 0000.0001)    64 @  3.906250000000000E-03              /* I =  1: 64 */
(PID.TID 0000.0001)     ;
(PID.TID 0000.0001) rAs =  /* rAs(1,:,1,:) ( m - cartesian, degrees - spherical ) */
(PID.TID 0000.0001)    64 @  3.906250000000000E-03              /* J =  1: 64 */
(PID.TID 0000.0001)     ;
(PID.TID 0000.0001) 
(PID.TID 0000.0001) // =======================================================
(PID.TID 0000.0001) // Field Initial Temperature at iteration          1
(PID.TID 0000.0001) // CMIN =          1.000000000000000E+00
(PID.TID 0000.0001) // CMAX =          1.000000000000000E+00
(PID.TID 0000.0001) // CINT =          0.000000000000000E+00
(PID.TID 0000.0001) // SYMBOLS (CMIN->CMAX): -abcdefghijklmnopqrstuvwxyz+
(PID.TID 0000.0001) //                  0.0: .
(PID.TID 0000.0001) // RANGE I (Lo:Hi:Step):(   1:  64:   1)
(PID.TID 0000.0001) // RANGE J (Lo:Hi:Step):(  64:   1:  -1)
(PID.TID 0000.0001) // RANGE K (Lo:Hi:Step):(   1:   1:   1)
(PID.TID 0000.0001) // =======================================================
(PID.TID 0000.0001) K =   1
(PID.TID 0000.0001)                I=10      I=20      I=30      I=40      I=50      I=60
(PID.TID 0000.0001) |--J--|123456789|123456789|123456789|123456789|123456789|123456789|1234
(PID.TID 0000.0001)     64 ----------------------------------------------------------------
(PID.TID 0000.0001)     63 ----------------------------------------------------------------
(PID.TID 0000.0001)     62 ----------------------------------------------------------------
(PID.TID 0000.0001)     61 ----------------------------------------------------------------
(PID.TID 0000.0001)     60 ----------------------------------------------------------------
(PID.TID 0000.0001)     59 ----------------------------------------------------------------
(PID.TID 0000.0001)     58 ----------------------------------------------------------------
(PID.TID 0000.0001)     57 ----------------------------------------------------------------
(PID.TID 0000.0001)     56 ----------------------------------------------------------------
(PID.TID 0000.0001)     55 ----------------------------------------------------------------
(PID.TID 0000.0001)     54 ----------------------------------------------------------------
(PID.TID 0000.0001)     53 ----------------------------------------------------------------
(PID.TID 0000.0001)     52 ----------------------------------------------------------------
(PID.TID 0000.0001)     51 ----------------------------------------------------------------
(PID.TID 0000.0001)     50 ----------------------------------------------------------------
(PID.TID 0000.0001)     49 ----------------------------------------------------------------
(PID.TID 0000.0001)     48 ----------------------------------------------------------------
(PID.TID 0000.0001)     47 ----------------------------------------------------------------
(PID.TID 0000.0001)     46 ----------------------------------------------------------------
(PID.TID 0000.0001)     45 ----------------------------------------------------------------
(PID.TID 0000.0001)     44 ----------------------------------------------------------------
(PID.TID 0000.0001)     43 ----------------------------------------------------------------
(PID.TID 0000.0001)     42 ----------------------------------------------------------------
(PID.TID 0000.0001)     41 ----------------------------------------------------------------
(PID.TID 0000.0001)     40 ----------------------------------------------------------------
(PID.TID 0000.0001)     39 ----------------------------------------------------------------
(PID.TID 0000.0001)     38 ----------------------------------------------------------------
(PID.TID 0000.0001)     37 ----------------------------------------------------------------
(PID.TID 0000.0001)     36 ----------------------------------------------------------------
(PID.TID 0000.0001)     35 ----------------------------------------------------------------
(PID.TID 0000.0001)     34 ----------------------------------------------------------------
(PID.TID 0000.0001)     33 ----------------------------------------------------------------
(PID.TID 0000.0001)     32 ----------------------------------------------------------------
(PID.TID 0000.0001)     31 ----------------------------------------------------------------
(PID.TID 0000.0001)     30 ----------------------------------------------------------------
(PID.TID 0000.0001)     29 ----------------------------------------------------------------
(PID.TID 0000.0001)     28 ----------------------------------------------------------------
(PID.TID 0000.0001)     27 ----------------------------------------------------------------
(PID.TID 0000.0001)     26 ----------------------------------------------------------------
(PID.TID 0000.0001)     25 ----------------------------------------------------------------
(PID.TID 0000.0001)     24 ----------------------------------------------------------------
(PID.TID 0000.0001)     23 ----------------------------------------------------------------
(PID.TID 0000.0001)     22 ----------------------------------------------------------------
(PID.TID 0000.0001)     21 ----------------------------------------------------------------
(PID.TID 0000.0001)     20 ----------------------------------------------------------------
(PID.TID 0000.0001)     19 ----------------------------------------------------------------
(PID.TID 0000.0001)     18 ----------------------------------------------------------------
(PID.TID 0000.0001)     17 ----------------------------------------------------------------
(PID.TID 0000.0001)     16 ----------------------------------------------------------------
(PID.TID 0000.0001)     15 ----------------------------------------------------------------
(PID.TID 0000.0001)     14 ----------------------------------------------------------------
(PID.TID 0000.0001)     13 ----------------------------------------------------------------
(PID.TID 0000.0001)     12 ----------------------------------------------------------------
(PID.TID 0000.0001)     11 ----------------------------------------------------------------
(PID.TID 0000.0001)     10 ----------------------------------------------------------------
(PID.TID 0000.0001)      9 ----------------------------------------------------------------
(PID.TID 0000.0001)      8 ----------------------------------------------------------------
(PID.TID 0000.0001)      7 ----------------------------------------------------------------
(PID.TID 0000.0001)      6 ----------------------------------------------------------------
(PID.TID 0000.0001)      5 ----------------------------------------------------------------
(PID.TID 0000.0001)      4 ----------------------------------------------------------------
(PID.TID 0000.0001)      3 ----------------------------------------------------------------
(PID.TID 0000.0001)      2 ----------------------------------------------------------------
(PID.TID 0000.0001)      1 ----------------------------------------------------------------
(PID.TID 0000.0001) // =======================================================
(PID.TID 0000.0001) // END OF FIELD                                          =
(PID.TID 0000.0001) // =======================================================
(PID.TID 0000.0001) 
(PID.TID 0000.0001) // =======================================================
(PID.TID 0000.0001) // Field Initial Salinity at iteration          1
(PID.TID 0000.0001) // CMIN =          3.500000000000000E+01
(PID.TID 0000.0001) // CMAX =          3.500000000000000E+01
(PID.TID 0000.0001) // CINT =          0.000000000000000E+00
(PID.TID 0000.0001) // SYMBOLS (CMIN->CMAX): -abcdefghijklmnopqrstuvwxyz+
(PID.TID 0000.0001) //                  0.0: .
(PID.TID 0000.0001) // RANGE I (Lo:Hi:Step):(   1:  64:   1)
(PID.TID 0000.0001) // RANGE J (Lo:Hi:Step):(  64:   1:  -1)
(PID.TID 0000.0001) // RANGE K (Lo:Hi:Step):(   1:   1:   1)
(PID.TID 0000.0001) // =======================================================
(PID.TID 0000.0001) K =   1
(PID.TID 0000.0001)                I=10      I=20      I=30      I=40      I=50      I=60
(PID.TID 0000.0001) |--J--|123456789|123456789|123456789|123456789|123456789|123456789|1234
(PID.TID 0000.0001)     64 ----------------------------------------------------------------
(PID.TID 0000.0001)     63 ----------------------------------------------------------------
(PID.TID 0000.0001)     62 ----------------------------------------------------------------
(PID.TID 0000.0001)     61 ----------------------------------------------------------------
(PID.TID 0000.0001)     60 ----------------------------------------------------------------
(PID.TID 0000.0001)     59 ----------------------------------------------------------------
(PID.TID 0000.0001)     58 ----------------------------------------------------------------
(PID.TID 0000.0001)     57 ----------------------------------------------------------------
(PID.TID 0000.0001)     56 ----------------------------------------------------------------
(PID.TID 0000.0001)     55 ----------------------------------------------------------------
(PID.TID 0000.0001)     54 ----------------------------------------------------------------
(PID.TID 0000.0001)     53 ----------------------------------------------------------------
(PID.TID 0000.0001)     52 ----------------------------------------------------------------
(PID.TID 0000.0001)     51 ----------------------------------------------------------------
(PID.TID 0000.0001)     50 ----------------------------------------------------------------
(PID.TID 0000.0001)     49 ----------------------------------------------------------------
(PID.TID 0000.0001)     48 ----------------------------------------------------------------
(PID.TID 0000.0001)     47 ----------------------------------------------------------------
(PID.TID 0000.0001)     46 ----------------------------------------------------------------
(PID.TID 0000.0001)     45 ----------------------------------------------------------------
(PID.TID 0000.0001)     44 ----------------------------------------------------------------
(PID.TID 0000.0001)     43 ----------------------------------------------------------------
(PID.TID 0000.0001)     42 ----------------------------------------------------------------
(PID.TID 0000.0001)     41 ----------------------------------------------------------------
(PID.TID 0000.0001)     40 ----------------------------------------------------------------
(PID.TID 0000.0001)     39 ----------------------------------------------------------------
(PID.TID 0000.0001)     38 ----------------------------------------------------------------
(PID.TID 0000.0001)     37 ----------------------------------------------------------------
(PID.TID 0000.0001)     36 ----------------------------------------------------------------
(PID.TID 0000.0001)     35 ----------------------------------------------------------------
(PID.TID 0000.0001)     34 ----------------------------------------------------------------
(PID.TID 0000.0001)     33 ----------------------------------------------------------------
(PID.TID 0000.0001)     32 ----------------------------------------------------------------
(PID.TID 0000.0001)     31 ----------------------------------------------------------------
(PID.TID 0000.0001)     30 ----------------------------------------------------------------
(PID.TID 0000.0001)     29 ----------------------------------------------------------------
(PID.TID 0000.0001)     28 ----------------------------------------------------------------
(PID.TID 0000.0001)     27 ----------------------------------------------------------------
(PID.TID 0000.0001)     26 ----------------------------------------------------------------
(PID.TID 0000.0001)     25 ----------------------------------------------------------------
(PID.TID 0000.0001)     24 ----------------------------------------------------------------
(PID.TID 0000.0001)     23 ----------------------------------------------------------------
(PID.TID 0000.0001)     22 ----------------------------------------------------------------
(PID.TID 0000.0001)     21 ----------------------------------------------------------------
(PID.TID 0000.0001)     20 ----------------------------------------------------------------
(PID.TID 0000.0001)     19 ----------------------------------------------------------------
(PID.TID 0000.0001)     18 ----------------------------------------------------------------
(PID.TID 0000.0001)     17 ----------------------------------------------------------------
(PID.TID 0000.0001)     16 ----------------------------------------------------------------
(PID.TID 0000.0001)     15 ----------------------------------------------------------------
(PID.TID 0000.0001)     14 ----------------------------------------------------------------
(PID.TID 0000.0001)     13 ----------------------------------------------------------------
(PID.TID 0000.0001)     12 ----------------------------------------------------------------
(PID.TID 0000.0001)     11 ----------------------------------------------------------------
(PID.TID 0000.0001)     10 ----------------------------------------------------------------
(PID.TID 0000.0001)      9 ----------------------------------------------------------------
(PID.TID 0000.0001)      8 ----------------------------------------------------------------
(PID.TID 0000.0001)      7 ----------------------------------------------------------------
(PID.TID 0000.0001)      6 ----------------------------------------------------------------
(PID.TID 0000.0001)      5 ----------------------------------------------------------------
(PID.TID 0000.0001)      4 ----------------------------------------------------------------
(PID.TID 0000.0001)      3 ----------------------------------------------------------------
(PID.TID 0000.0001)      2 ----------------------------------------------------------------
(PID.TID 0000.0001)      1 ----------------------------------------------------------------
(PID.TID 0000.0001) // =======================================================
(PID.TID 0000.0001) // END OF FIELD                                          =
(PID.TID 0000.0001) // =======================================================
(PID.TID 0000.0001) 
(PID.TID 0000.0001) Start initial hydrostatic pressure computation
(PID.TID 0000.0001) Iteration  1, RMS-difference =  0.0000000000000E+00
(PID.TID 0000.0001) Iteration  2, RMS-difference =  0.0000000000000E+00
(PID.TID 0000.0001) Iteration  3, RMS-difference =  0.0000000000000E+00
(PID.TID 0000.0001) Iteration  4, RMS-difference =  0.0000000000000E+00
(PID.TID 0000.0001) Iteration  5, RMS-difference =  0.0000000000000E+00
(PID.TID 0000.0001) Iteration  6, RMS-difference =  0.0000000000000E+00
(PID.TID 0000.0001) Iteration  7, RMS-difference =  0.0000000000000E+00
(PID.TID 0000.0001) Iteration  8, RMS-difference =  0.0000000000000E+00
(PID.TID 0000.0001) Iteration  9, RMS-difference =  0.0000000000000E+00
(PID.TID 0000.0001) Iteration 10, RMS-difference =  0.0000000000000E+00
(PID.TID 0000.0001) Iteration 11, RMS-difference =  0.0000000000000E+00
(PID.TID 0000.0001) Iteration 12, RMS-difference =  0.0000000000000E+00
(PID.TID 0000.0001) Iteration 13, RMS-difference =  0.0000000000000E+00
(PID.TID 0000.0001) Iteration 14, RMS-difference =  0.0000000000000E+00
(PID.TID 0000.0001) Iteration 15, RMS-difference =  0.0000000000000E+00
(PID.TID 0000.0001) Initial hydrostatic pressure converged.
(PID.TID 0000.0001) 
(PID.TID 0000.0001)  MDSREADFIELD: opening global file: Qnet.circle
(PID.TID 0000.0001) // =======================================================
(PID.TID 0000.0001) // Model current state
(PID.TID 0000.0001) // =======================================================
(PID.TID 0000.0001) 
(PID.TID 0000.0001) // =======================================================
(PID.TID 0000.0001) // Begin MONITOR dynamic field statistics
(PID.TID 0000.0001) // =======================================================
(PID.TID 0000.0001) %MON time_tsnumber                =                     0
(PID.TID 0000.0001) %MON time_secondsf                =   0.0000000000000E+00
(PID.TID 0000.0001) %MON dynstat_eta_max              =   0.0000000000000E+00
(PID.TID 0000.0001) %MON dynstat_eta_min              =   0.0000000000000E+00
(PID.TID 0000.0001) %MON dynstat_eta_mean             =   0.0000000000000E+00
(PID.TID 0000.0001) %MON dynstat_eta_sd               =   0.0000000000000E+00
(PID.TID 0000.0001) %MON dynstat_eta_del2             =   0.0000000000000E+00
(PID.TID 0000.0001) %MON dynstat_uvel_max             =   0.0000000000000E+00
(PID.TID 0000.0001) %MON dynstat_uvel_min             =   0.0000000000000E+00
(PID.TID 0000.0001) %MON dynstat_uvel_mean            =   0.0000000000000E+00
(PID.TID 0000.0001) %MON dynstat_uvel_sd              =   0.0000000000000E+00
(PID.TID 0000.0001) %MON dynstat_uvel_del2            =   0.0000000000000E+00
(PID.TID 0000.0001) %MON dynstat_vvel_max             =   0.0000000000000E+00
(PID.TID 0000.0001) %MON dynstat_vvel_min             =   0.0000000000000E+00
(PID.TID 0000.0001) %MON dynstat_vvel_mean            =   0.0000000000000E+00
(PID.TID 0000.0001) %MON dynstat_vvel_sd              =   0.0000000000000E+00
(PID.TID 0000.0001) %MON dynstat_vvel_del2            =   0.0000000000000E+00
(PID.TID 0000.0001) %MON dynstat_wvel_max             =   0.0000000000000E+00
(PID.TID 0000.0001) %MON dynstat_wvel_min             =   0.0000000000000E+00
(PID.TID 0000.0001) %MON dynstat_wvel_mean            =   0.0000000000000E+00
(PID.TID 0000.0001) %MON dynstat_wvel_sd              =   0.0000000000000E+00
(PID.TID 0000.0001) %MON dynstat_wvel_del2            =   0.0000000000000E+00
(PID.TID 0000.0001) %MON dynstat_theta_max            =   1.0000000000000E+00
(PID.TID 0000.0001) %MON dynstat_theta_min            =   1.0000000000000E+00
(PID.TID 0000.0001) %MON dynstat_theta_mean           =   1.0000000000000E+00
(PID.TID 0000.0001) %MON dynstat_theta_sd             =   0.0000000000000E+00
(PID.TID 0000.0001) %MON dynstat_theta_del2           =   0.0000000000000E+00
(PID.TID 0000.0001) %MON dynstat_salt_max             =   3.5000000000000E+01
(PID.TID 0000.0001) %MON dynstat_salt_min             =   3.5000000000000E+01
(PID.TID 0000.0001) %MON dynstat_salt_mean            =   3.4999999999948E+01
(PID.TID 0000.0001) %MON dynstat_salt_sd              =   5.2423843044373E-11
(PID.TID 0000.0001) %MON dynstat_salt_del2            =   0.0000000000000E+00
(PID.TID 0000.0001) %MON advcfl_uvel_max              =   0.0000000000000E+00
(PID.TID 0000.0001) %MON advcfl_vvel_max              =   0.0000000000000E+00
(PID.TID 0000.0001) %MON advcfl_wvel_max              =   0.0000000000000E+00
(PID.TID 0000.0001) %MON advcfl_W_hf_max              =   0.0000000000000E+00
(PID.TID 0000.0001) %MON ke_max                       =   0.0000000000000E+00
(PID.TID 0000.0001) %MON ke_mean                      =   0.0000000000000E+00
(PID.TID 0000.0001) %MON ke_volint                    =   0.0000000000000E+00
(PID.TID 0000.0001) %MON ke_volmean                   =   0.0000000000000E+00
(PID.TID 0000.0001) %MON ke_vol                       =   3.2000000000048E+01
(PID.TID 0000.0001) %MON surf_Corr_theta_mean         =   0.0000000000000E+00
(PID.TID 0000.0001) %MON surf_Corr_salt_mean          =   0.0000000000000E+00
(PID.TID 0000.0001) // =======================================================
(PID.TID 0000.0001) // End MONITOR dynamic field statistics
(PID.TID 0000.0001) // =======================================================
 cg2d: Sum(rhs),rhsMax =   0.00000000000000E+00  0.00000000000000E+00
(PID.TID 0000.0001)                    cg2d_init_res =    0.00000000000000E+00
(PID.TID 0000.0001)                       cg2d_iters =     0
(PID.TID 0000.0001)                         cg2d_res =    0.00000000000000E+00
 cg3d: Sum(rhs),rhsMax =   0.00000000000000E+00  0.00000000000000E+00
(PID.TID 0000.0001)                    cg3d_init_res =    0.00000000000000E+00
(PID.TID 0000.0001)                       cg3d_iters =     0
(PID.TID 0000.0001)                         cg3d_res =    0.00000000000000E+00
(PID.TID 0000.0001) // =======================================================
(PID.TID 0000.0001) // Begin MONITOR dynamic field statistics
(PID.TID 0000.0001) // =======================================================
(PID.TID 0000.0001) %MON time_tsnumber                =                     1
(PID.TID 0000.0001) %MON time_secondsf                =   2.0000000000000E-04
(PID.TID 0000.0001) %MON dynstat_eta_max              =   0.0000000000000E+00
(PID.TID 0000.0001) %MON dynstat_eta_min              =   0.0000000000000E+00
(PID.TID 0000.0001) %MON dynstat_eta_mean             =   0.0000000000000E+00
(PID.TID 0000.0001) %MON dynstat_eta_sd               =   0.0000000000000E+00
(PID.TID 0000.0001) %MON dynstat_eta_del2             =   0.0000000000000E+00
(PID.TID 0000.0001) %MON dynstat_uvel_max             =   0.0000000000000E+00
(PID.TID 0000.0001) %MON dynstat_uvel_min             =   0.0000000000000E+00
(PID.TID 0000.0001) %MON dynstat_uvel_mean            =   0.0000000000000E+00
(PID.TID 0000.0001) %MON dynstat_uvel_sd              =   0.0000000000000E+00
(PID.TID 0000.0001) %MON dynstat_uvel_del2            =   0.0000000000000E+00
(PID.TID 0000.0001) %MON dynstat_vvel_max             =   0.0000000000000E+00
(PID.TID 0000.0001) %MON dynstat_vvel_min             =   0.0000000000000E+00
(PID.TID 0000.0001) %MON dynstat_vvel_mean            =   0.0000000000000E+00
(PID.TID 0000.0001) %MON dynstat_vvel_sd              =   0.0000000000000E+00
(PID.TID 0000.0001) %MON dynstat_vvel_del2            =   0.0000000000000E+00
(PID.TID 0000.0001) %MON dynstat_wvel_max             =   0.0000000000000E+00
(PID.TID 0000.0001) %MON dynstat_wvel_min             =   0.0000000000000E+00
(PID.TID 0000.0001) %MON dynstat_wvel_mean            =   0.0000000000000E+00
(PID.TID 0000.0001) %MON dynstat_wvel_sd              =   0.0000000000000E+00
(PID.TID 0000.0001) %MON dynstat_wvel_del2            =   0.0000000000000E+00
(PID.TID 0000.0001) %MON dynstat_theta_max            =   1.0000000000000E+00
(PID.TID 0000.0001) %MON dynstat_theta_min            =   9.9798000605500E-01
(PID.TID 0000.0001) %MON dynstat_theta_mean           =   9.9989949738809E-01
(PID.TID 0000.0001) %MON dynstat_theta_sd             =   4.3808264463946E-04
(PID.TID 0000.0001) %MON dynstat_theta_del2           =   2.7410267899897E-07
(PID.TID 0000.0001) %MON dynstat_salt_max             =   3.5000000000000E+01
(PID.TID 0000.0001) %MON dynstat_salt_min             =   3.5000000000000E+01
(PID.TID 0000.0001) %MON dynstat_salt_mean            =   3.4999999999948E+01
(PID.TID 0000.0001) %MON dynstat_salt_sd              =   5.2423843044373E-11
(PID.TID 0000.0001) %MON dynstat_salt_del2            =   0.0000000000000E+00
(PID.TID 0000.0001) %MON advcfl_uvel_max              =   0.0000000000000E+00
(PID.TID 0000.0001) %MON advcfl_vvel_max              =   0.0000000000000E+00
(PID.TID 0000.0001) %MON advcfl_wvel_max              =   0.0000000000000E+00
(PID.TID 0000.0001) %MON advcfl_W_hf_max              =   0.0000000000000E+00
(PID.TID 0000.0001) %MON ke_max                       =   0.0000000000000E+00
(PID.TID 0000.0001) %MON ke_mean                      =   0.0000000000000E+00
(PID.TID 0000.0001) %MON ke_volint                    =   0.0000000000000E+00
(PID.TID 0000.0001) %MON ke_volmean                   =   0.0000000000000E+00
(PID.TID 0000.0001) %MON ke_vol                       =   3.2000000000048E+01
(PID.TID 0000.0001) %MON surf_Corr_theta_mean         =   0.0000000000000E+00
(PID.TID 0000.0001) %MON surf_Corr_salt_mean          =   0.0000000000000E+00
(PID.TID 0000.0001) // =======================================================
(PID.TID 0000.0001) // End MONITOR dynamic field statistics
(PID.TID 0000.0001) // =======================================================
 cg2d: Sum(rhs),rhsMax =   2.44249065417534E-15  1.50911513742212E+03
(PID.TID 0000.0001)                    cg2d_init_res =    2.42404160368524E+01
(PID.TID 0000.0001)                       cg2d_iters =    75
(PID.TID 0000.0001)                         cg2d_res =    9.32959722495322E-10
 cg3d: Sum(rhs),rhsMax =   1.50070927906754E-14  7.36595953809390E+02
(PID.TID 0000.0001)                    cg3d_init_res =    2.48899184039129E+01
(PID.TID 0000.0001)                       cg3d_iters =    40
(PID.TID 0000.0001)                         cg3d_res =    1.61891696351292E-03
(PID.TID 0000.0001) // =======================================================
(PID.TID 0000.0001) // Begin MONITOR dynamic field statistics
(PID.TID 0000.0001) // =======================================================
(PID.TID 0000.0001) %MON time_tsnumber                =                     2
(PID.TID 0000.0001) %MON time_secondsf                =   4.0000000000000E-04
(PID.TID 0000.0001) %MON dynstat_eta_max              =   1.5686841383176E-06
(PID.TID 0000.0001) %MON dynstat_eta_min              =  -1.5507256684406E-06
(PID.TID 0000.0001) %MON dynstat_eta_mean             =   4.8083937316026E-21
(PID.TID 0000.0001) %MON dynstat_eta_sd               =   9.0361577448630E-07
(PID.TID 0000.0001) %MON dynstat_eta_del2             =   8.5513822738757E-07
(PID.TID 0000.0001) %MON dynstat_uvel_max             =   7.0216889713736E-02
(PID.TID 0000.0001) %MON dynstat_uvel_min             =  -7.4928095877981E-02
(PID.TID 0000.0001) %MON dynstat_uvel_mean            =   5.8380007300565E-20
(PID.TID 0000.0001) %MON dynstat_uvel_sd              =   7.4206188918075E-03
(PID.TID 0000.0001) %MON dynstat_uvel_del2            =   2.0085134251778E-03
(PID.TID 0000.0001) %MON dynstat_vvel_max             =   7.2247889546269E-02
(PID.TID 0000.0001) %MON dynstat_vvel_min             =  -7.0010756879722E-02
(PID.TID 0000.0001) %MON dynstat_vvel_mean            =  -3.3974234701014E-19
(PID.TID 0000.0001) %MON dynstat_vvel_sd              =   7.4910956781727E-03
(PID.TID 0000.0001) %MON dynstat_vvel_del2            =   2.0088359001110E-03
(PID.TID 0000.0001) %MON dynstat_wvel_max             =   2.1724642419256E-01
(PID.TID 0000.0001) %MON dynstat_wvel_min             =  -2.2498624176825E-01
(PID.TID 0000.0001) %MON dynstat_wvel_mean            =  -3.3392179777913E-20
(PID.TID 0000.0001) %MON dynstat_wvel_sd              =   2.3874024312710E-02
(PID.TID 0000.0001) %MON dynstat_wvel_del2            =   5.9340238031013E-03
(PID.TID 0000.0001) %MON dynstat_theta_max            =   1.0000000000000E+00
(PID.TID 0000.0001) %MON dynstat_theta_min            =   9.9602619555180E-01
(PID.TID 0000.0001) %MON dynstat_theta_mean           =   9.9979899477616E-01
(PID.TID 0000.0001) %MON dynstat_theta_sd             =   8.6152144466715E-04
(PID.TID 0000.0001) %MON dynstat_theta_del2           =   4.2473317293494E-07
(PID.TID 0000.0001) %MON dynstat_salt_max             =   3.5000000000000E+01
(PID.TID 0000.0001) %MON dynstat_salt_min             =   3.5000000000000E+01
(PID.TID 0000.0001) %MON dynstat_salt_mean            =   3.4999999999948E+01
(PID.TID 0000.0001) %MON dynstat_salt_sd              =   5.2423843044373E-11
(PID.TID 0000.0001) %MON dynstat_salt_del2            =   0.0000000000000E+00
(PID.TID 0000.0001) %MON advcfl_uvel_max              =   2.3976990680954E-04
(PID.TID 0000.0001) %MON advcfl_vvel_max              =   2.3119324654806E-04
(PID.TID 0000.0001) %MON advcfl_wvel_max              =   4.4997248353650E-04
(PID.TID 0000.0001) %MON advcfl_W_hf_max              =   8.9994496707299E-04
(PID.TID 0000.0001) %MON ke_max                       =   2.2811713405712E-03
(PID.TID 0000.0001) %MON ke_mean                      =   5.5591049598577E-05
(PID.TID 0000.0001) %MON ke_volint                    =   1.7789135871545E-03
(PID.TID 0000.0001) %MON ke_volmean                   =   5.5591049598494E-05
(PID.TID 0000.0001) %MON ke_vol                       =   3.2000000000048E+01
(PID.TID 0000.0001) %MON surf_Corr_theta_mean         =   2.4661679722291E-08
(PID.TID 0000.0001) %MON surf_Corr_salt_mean          =  -4.6512696716102E-18
(PID.TID 0000.0001) // =======================================================
(PID.TID 0000.0001) // End MONITOR dynamic field statistics
(PID.TID 0000.0001) // =======================================================
 cg2d: Sum(rhs),rhsMax =  -3.16413562018170E-15  1.66196401097917E+03
(PID.TID 0000.0001)                    cg2d_init_res =    4.47384594157445E+00
(PID.TID 0000.0001)                       cg2d_iters =    70
(PID.TID 0000.0001)                         cg2d_res =    9.90603692973111E-10
 cg3d: Sum(rhs),rhsMax =   3.15719672627779E-15  8.30748036583770E+02
(PID.TID 0000.0001)                    cg3d_init_res =    5.00628629122847E+00
(PID.TID 0000.0001)                       cg3d_iters =    40
(PID.TID 0000.0001)                         cg3d_res =    1.91282978760802E-04
(PID.TID 0000.0001) // =======================================================
(PID.TID 0000.0001) // Begin MONITOR dynamic field statistics
(PID.TID 0000.0001) // =======================================================
(PID.TID 0000.0001) %MON time_tsnumber                =                     3
(PID.TID 0000.0001) %MON time_secondsf                =   6.0000000000000E-04
(PID.TID 0000.0001) %MON dynstat_eta_max              =   2.3220420342451E-06
(PID.TID 0000.0001) %MON dynstat_eta_min              =  -2.2905738570999E-06
(PID.TID 0000.0001) %MON dynstat_eta_mean             =   6.9291189373618E-21
(PID.TID 0000.0001) %MON dynstat_eta_sd               =   1.1793394878506E-06
(PID.TID 0000.0001) %MON dynstat_eta_del2             =   1.0043297110646E-06
(PID.TID 0000.0001) %MON dynstat_uvel_max             =   1.7303224455154E-01
(PID.TID 0000.0001) %MON dynstat_uvel_min             =  -1.6746470440942E-01
(PID.TID 0000.0001) %MON dynstat_uvel_mean            =  -5.4036827147453E-19
(PID.TID 0000.0001) %MON dynstat_uvel_sd              =   1.5316383652446E-02
(PID.TID 0000.0001) %MON dynstat_uvel_del2            =   3.5327215232912E-03
(PID.TID 0000.0001) %MON dynstat_vvel_max             =   1.5975494532606E-01
(PID.TID 0000.0001) %MON dynstat_vvel_min             =  -1.5844669181919E-01
(PID.TID 0000.0001) %MON dynstat_vvel_mean            =  -8.9009127849201E-19
(PID.TID 0000.0001) %MON dynstat_vvel_sd              =   1.5410089468420E-02
(PID.TID 0000.0001) %MON dynstat_vvel_del2            =   3.5277201819958E-03
(PID.TID 0000.0001) %MON dynstat_wvel_max             =   4.0298340420267E-01
(PID.TID 0000.0001) %MON dynstat_wvel_min             =  -3.9579708407550E-01
(PID.TID 0000.0001) %MON dynstat_wvel_mean            =   1.1087781127939E-20
(PID.TID 0000.0001) %MON dynstat_wvel_sd              =   4.4907537506524E-02
(PID.TID 0000.0001) %MON dynstat_wvel_del2            =   1.0107847999397E-02
(PID.TID 0000.0001) %MON dynstat_theta_max            =   1.0000000000000E+00
(PID.TID 0000.0001) %MON dynstat_theta_min            =   9.9410812997046E-01
(PID.TID 0000.0001) %MON dynstat_theta_mean           =   9.9969849216033E-01
(PID.TID 0000.0001) %MON dynstat_theta_sd             =   1.2769446051854E-03
(PID.TID 0000.0001) %MON dynstat_theta_del2           =   6.2565647251303E-07
(PID.TID 0000.0001) %MON dynstat_salt_max             =   3.5000000000000E+01
(PID.TID 0000.0001) %MON dynstat_salt_min             =   3.5000000000000E+01
(PID.TID 0000.0001) %MON dynstat_salt_mean            =   3.4999999999948E+01
(PID.TID 0000.0001) %MON dynstat_salt_sd              =   5.2423843044373E-11
(PID.TID 0000.0001) %MON dynstat_salt_del2            =   0.0000000000000E+00
(PID.TID 0000.0001) %MON advcfl_uvel_max              =   5.5370318256494E-04
(PID.TID 0000.0001) %MON advcfl_vvel_max              =   5.1121582504339E-04
(PID.TID 0000.0001) %MON advcfl_wvel_max              =   8.0596680840535E-04
(PID.TID 0000.0001) %MON advcfl_W_hf_max              =   1.6119336168107E-03
(PID.TID 0000.0001) %MON ke_max                       =   1.1203091840843E-02
(PID.TID 0000.0001) %MON ke_mean                      =   2.3603123280716E-04
(PID.TID 0000.0001) %MON ke_volint                    =   7.5529994498290E-03
(PID.TID 0000.0001) %MON ke_volmean                   =   2.3603123280680E-04
(PID.TID 0000.0001) %MON ke_vol                       =   3.2000000000048E+01
(PID.TID 0000.0001) %MON surf_Corr_theta_mean         =   1.0908591478660E-08
(PID.TID 0000.0001) %MON surf_Corr_salt_mean          =   3.9281152928918E-19
(PID.TID 0000.0001) // =======================================================
(PID.TID 0000.0001) // End MONITOR dynamic field statistics
(PID.TID 0000.0001) // =======================================================
 cg2d: Sum(rhs),rhsMax =  -3.36272483442146E-07  2.38416291451148E+03
(PID.TID 0000.0001)                    cg2d_init_res =    7.90564781765535E+00
(PID.TID 0000.0001)                       cg2d_iters =    86
(PID.TID 0000.0001)                         cg2d_res =    8.71575821916255E-10
 cg3d: Sum(rhs),rhsMax =  -2.72542578783064E-11  1.27920334761012E+03
(PID.TID 0000.0001)                    cg3d_init_res =    9.40857821591191E+00
(PID.TID 0000.0001)                       cg3d_iters =    40
(PID.TID 0000.0001)                         cg3d_res =    5.58588322842917E-04
(PID.TID 0000.0001) // =======================================================
(PID.TID 0000.0001) // Begin MONITOR dynamic field statistics
(PID.TID 0000.0001) // =======================================================
(PID.TID 0000.0001) %MON time_tsnumber                =                     4
(PID.TID 0000.0001) %MON time_secondsf                =   8.0000000000000E-04
(PID.TID 0000.0001) %MON dynstat_eta_max              =   3.3220146002099E-06
(PID.TID 0000.0001) %MON dynstat_eta_min              =  -3.2841667513145E-06
(PID.TID 0000.0001) %MON dynstat_eta_mean             =   4.0086332055144E-12
(PID.TID 0000.0001) %MON dynstat_eta_sd               =   1.6937724029129E-06
(PID.TID 0000.0001) %MON dynstat_eta_del2             =   1.4475374611423E-06
(PID.TID 0000.0001) %MON dynstat_uvel_max             =   3.1875315878658E-01
(PID.TID 0000.0001) %MON dynstat_uvel_min             =  -2.9544605706818E-01
(PID.TID 0000.0001) %MON dynstat_uvel_mean            =  -2.6017625727772E-15
(PID.TID 0000.0001) %MON dynstat_uvel_sd              =   2.6446920731294E-02
(PID.TID 0000.0001) %MON dynstat_uvel_del2            =   5.8962533435385E-03
(PID.TID 0000.0001) %MON dynstat_vvel_max             =   2.8692025450588E-01
(PID.TID 0000.0001) %MON dynstat_vvel_min             =  -2.7696786078794E-01
(PID.TID 0000.0001) %MON dynstat_vvel_mean            =   1.9935266960952E-15
(PID.TID 0000.0001) %MON dynstat_vvel_sd              =   2.6499201633663E-02
(PID.TID 0000.0001) %MON dynstat_vvel_del2            =   5.8795503492445E-03
(PID.TID 0000.0001) %MON dynstat_wvel_max             =   6.7754354332350E-01
(PID.TID 0000.0001) %MON dynstat_wvel_min             =  -6.7200526926729E-01
(PID.TID 0000.0001) %MON dynstat_wvel_mean            =  -3.6714834544103E-20
(PID.TID 0000.0001) %MON dynstat_wvel_sd              =   7.6578919276868E-02
(PID.TID 0000.0001) %MON dynstat_wvel_del2            =   1.7514664979106E-02
(PID.TID 0000.0001) %MON dynstat_theta_max            =   1.0000000000000E+00
(PID.TID 0000.0001) %MON dynstat_theta_min            =   9.9222421608739E-01
(PID.TID 0000.0001) %MON dynstat_theta_mean           =   9.9959798954819E-01
(PID.TID 0000.0001) %MON dynstat_theta_sd             =   1.6845968606181E-03
(PID.TID 0000.0001) %MON dynstat_theta_del2           =   8.3802863308155E-07
(PID.TID 0000.0001) %MON dynstat_salt_max             =   3.5000000000000E+01
(PID.TID 0000.0001) %MON dynstat_salt_min             =   3.5000000000000E+01
(PID.TID 0000.0001) %MON dynstat_salt_mean            =   3.4999999999948E+01
(PID.TID 0000.0001) %MON dynstat_salt_sd              =   5.2423843044373E-11
(PID.TID 0000.0001) %MON dynstat_salt_del2            =   0.0000000000000E+00
(PID.TID 0000.0001) %MON advcfl_uvel_max              =   1.0200101081170E-03
(PID.TID 0000.0001) %MON advcfl_vvel_max              =   9.1814481441883E-04
(PID.TID 0000.0001) %MON advcfl_wvel_max              =   1.3550870866470E-03
(PID.TID 0000.0001) %MON advcfl_W_hf_max              =   2.7101741732940E-03
(PID.TID 0000.0001) %MON ke_max                       =   3.6098084167219E-02
(PID.TID 0000.0001) %MON ke_mean                      =   7.0082365169550E-04
(PID.TID 0000.0001) %MON ke_volint                    =   2.2426356854256E-02
(PID.TID 0000.0001) %MON ke_volmean                   =   7.0082365169445E-04
(PID.TID 0000.0001) %MON ke_vol                       =   3.2000000000048E+01
(PID.TID 0000.0001) %MON surf_Corr_theta_mean         =   2.2108548763690E-08
(PID.TID 0000.0001) %MON surf_Corr_salt_mean          =   6.1160013956497E-18
(PID.TID 0000.0001) // =======================================================
(PID.TID 0000.0001) // End MONITOR dynamic field statistics
(PID.TID 0000.0001) // =======================================================
 cg2d: Sum(rhs),rhsMax =  -9.71776270397573E-07  3.07615221988744E+03
(PID.TID 0000.0001)                    cg2d_init_res =    5.87575433034051E+00
(PID.TID 0000.0001)                       cg2d_iters =    85
(PID.TID 0000.0001)                         cg2d_res =    9.57019591046091E-10
 cg3d: Sum(rhs),rhsMax =  -1.41799245956253E-11  1.73835321727961E+03
(PID.TID 0000.0001)                    cg3d_init_res =    7.25734721437124E+00
(PID.TID 0000.0001)                       cg3d_iters =    40
(PID.TID 0000.0001)                         cg3d_res =    4.44996994128503E-04
(PID.TID 0000.0001) // =======================================================
(PID.TID 0000.0001) // Begin MONITOR dynamic field statistics
(PID.TID 0000.0001) // =======================================================
(PID.TID 0000.0001) %MON time_tsnumber                =                     5
(PID.TID 0000.0001) %MON time_secondsf                =   1.0000000000000E-03
(PID.TID 0000.0001) %MON dynstat_eta_max              =   4.7352004201188E-06
(PID.TID 0000.0001) %MON dynstat_eta_min              =  -4.6551642032295E-06
(PID.TID 0000.0001) %MON dynstat_eta_mean             =   1.4946652493861E-11
(PID.TID 0000.0001) %MON dynstat_eta_sd               =   2.2881890902444E-06
(PID.TID 0000.0001) %MON dynstat_eta_del2             =   1.8686001157094E-06
(PID.TID 0000.0001) %MON dynstat_uvel_max             =   5.2216773579939E-01
(PID.TID 0000.0001) %MON dynstat_uvel_min             =  -4.6643797745359E-01
(PID.TID 0000.0001) %MON dynstat_uvel_mean            =   2.2329955657487E-14
(PID.TID 0000.0001) %MON dynstat_uvel_sd              =   4.0933283959092E-02
(PID.TID 0000.0001) %MON dynstat_uvel_del2            =   8.6796157182587E-03
(PID.TID 0000.0001) %MON dynstat_vvel_max             =   4.6109569168525E-01
(PID.TID 0000.0001) %MON dynstat_vvel_min             =  -4.4050052262501E-01
(PID.TID 0000.0001) %MON dynstat_vvel_mean            =  -1.3631986399665E-14
(PID.TID 0000.0001) %MON dynstat_vvel_sd              =   4.0880956050953E-02
(PID.TID 0000.0001) %MON dynstat_vvel_del2            =   8.6428122798085E-03
(PID.TID 0000.0001) %MON dynstat_wvel_max             =   1.0524425459329E+00
(PID.TID 0000.0001) %MON dynstat_wvel_min             =  -1.0413159005788E+00
(PID.TID 0000.0001) %MON dynstat_wvel_mean            =  -1.3986548456841E-19
(PID.TID 0000.0001) %MON dynstat_wvel_sd              =   1.1686860859331E-01
(PID.TID 0000.0001) %MON dynstat_wvel_del2            =   2.6415234470203E-02
(PID.TID 0000.0001) %MON dynstat_theta_max            =   1.0000000000000E+00
(PID.TID 0000.0001) %MON dynstat_theta_min            =   9.9037230316349E-01
(PID.TID 0000.0001) %MON dynstat_theta_mean           =   9.9949748693345E-01
(PID.TID 0000.0001) %MON dynstat_theta_sd             =   2.0848671049617E-03
(PID.TID 0000.0001) %MON dynstat_theta_del2           =   1.1524217573259E-06
(PID.TID 0000.0001) %MON dynstat_salt_max             =   3.5000000000000E+01
(PID.TID 0000.0001) %MON dynstat_salt_min             =   3.5000000000000E+01
(PID.TID 0000.0001) %MON dynstat_salt_mean            =   3.4999999999948E+01
(PID.TID 0000.0001) %MON dynstat_salt_sd              =   5.2423843044373E-11
(PID.TID 0000.0001) %MON dynstat_salt_del2            =   0.0000000000000E+00
(PID.TID 0000.0001) %MON advcfl_uvel_max              =   1.6709367545581E-03
(PID.TID 0000.0001) %MON advcfl_vvel_max              =   1.4755062133928E-03
(PID.TID 0000.0001) %MON advcfl_wvel_max              =   2.1048850918658E-03
(PID.TID 0000.0001) %MON advcfl_W_hf_max              =   4.2097701837316E-03
(PID.TID 0000.0001) %MON ke_max                       =   9.2897452315313E-02
(PID.TID 0000.0001) %MON ke_mean                      =   1.6733931516603E-03
(PID.TID 0000.0001) %MON ke_volint                    =   5.3548580853131E-02
(PID.TID 0000.0001) %MON ke_volmean                   =   1.6733931516578E-03
(PID.TID 0000.0001) %MON ke_vol                       =   3.2000000000048E+01
(PID.TID 0000.0001) %MON surf_Corr_theta_mean         =   3.0500058718464E-08
(PID.TID 0000.0001) %MON surf_Corr_salt_mean          =   5.8529976655272E-19
(PID.TID 0000.0001) // =======================================================
(PID.TID 0000.0001) // End MONITOR dynamic field statistics
(PID.TID 0000.0001) // =======================================================
 cg2d: Sum(rhs),rhsMax =  -2.26003618111759E-06  4.22923677340303E+03
(PID.TID 0000.0001)                    cg2d_init_res =    7.12958283464438E+00
(PID.TID 0000.0001)                       cg2d_iters =    86
(PID.TID 0000.0001)                         cg2d_res =    6.85650032989459E-10
 cg3d: Sum(rhs),rhsMax =  -3.93690809119551E-12  2.54647254178732E+03
(PID.TID 0000.0001)                    cg3d_init_res =    8.86911939278586E+00
(PID.TID 0000.0001)                       cg3d_iters =    40
(PID.TID 0000.0001)                         cg3d_res =    3.48974026164293E-04
(PID.TID 0000.0001) // =======================================================
(PID.TID 0000.0001) // Begin MONITOR dynamic field statistics
(PID.TID 0000.0001) // =======================================================
(PID.TID 0000.0001) %MON time_tsnumber                =                     6
(PID.TID 0000.0001) %MON time_secondsf                =   1.2000000000000E-03
(PID.TID 0000.0001) %MON dynstat_eta_max              =   6.7622010497978E-06
(PID.TID 0000.0001) %MON dynstat_eta_min              =  -6.6107751103593E-06
(PID.TID 0000.0001) %MON dynstat_eta_mean             =   4.7791138258564E-11
(PID.TID 0000.0001) %MON dynstat_eta_sd               =   3.2106625854597E-06
(PID.TID 0000.0001) %MON dynstat_eta_del2             =   2.5837381570161E-06
(PID.TID 0000.0001) %MON dynstat_uvel_max             =   8.1061833241755E-01
(PID.TID 0000.0001) %MON dynstat_uvel_min             =  -7.1182456382697E-01
(PID.TID 0000.0001) %MON dynstat_uvel_mean            =   1.7903012768004E-13
(PID.TID 0000.0001) %MON dynstat_uvel_sd              =   6.1168245814981E-02
(PID.TID 0000.0001) %MON dynstat_uvel_del2            =   1.2661640251667E-02
(PID.TID 0000.0001) %MON dynstat_vvel_max             =   7.0674488825536E-01
(PID.TID 0000.0001) %MON dynstat_vvel_min             =  -6.7111764894056E-01
(PID.TID 0000.0001) %MON dynstat_vvel_mean            =  -1.2149184116642E-13
(PID.TID 0000.0001) %MON dynstat_vvel_sd              =   6.0976004805340E-02
(PID.TID 0000.0001) %MON dynstat_vvel_del2            =   1.2603037334521E-02
(PID.TID 0000.0001) %MON dynstat_wvel_max             =   1.5950982041850E+00
(PID.TID 0000.0001) %MON dynstat_wvel_min             =  -1.5580597372100E+00
(PID.TID 0000.0001) %MON dynstat_wvel_mean            =   6.4317196132972E-20
(PID.TID 0000.0001) %MON dynstat_wvel_sd              =   1.7578251401490E-01
(PID.TID 0000.0001) %MON dynstat_wvel_del2            =   4.0141475811048E-02
(PID.TID 0000.0001) %MON dynstat_theta_max            =   1.0000000000000E+00
(PID.TID 0000.0001) %MON dynstat_theta_min            =   9.8854919109276E-01
(PID.TID 0000.0001) %MON dynstat_theta_mean           =   9.9939698431794E-01
(PID.TID 0000.0001) %MON dynstat_theta_sd             =   2.4781152469187E-03
(PID.TID 0000.0001) %MON dynstat_theta_del2           =   1.5760299283348E-06
(PID.TID 0000.0001) %MON dynstat_salt_max             =   3.5000000000000E+01
(PID.TID 0000.0001) %MON dynstat_salt_min             =   3.5000000000000E+01
(PID.TID 0000.0001) %MON dynstat_salt_mean            =   3.4999999999948E+01
(PID.TID 0000.0001) %MON dynstat_salt_sd              =   5.2423843044373E-11
(PID.TID 0000.0001) %MON dynstat_salt_del2            =   0.0000000000000E+00
(PID.TID 0000.0001) %MON advcfl_uvel_max              =   2.5939786637361E-03
(PID.TID 0000.0001) %MON advcfl_vvel_max              =   2.2615836424172E-03
(PID.TID 0000.0001) %MON advcfl_wvel_max              =   3.1901964083699E-03
(PID.TID 0000.0001) %MON advcfl_W_hf_max              =   6.3803928167399E-03
(PID.TID 0000.0001) %MON ke_max                       =   2.1857702209511E-01
(PID.TID 0000.0001) %MON ke_mean                      =   3.7298137290570E-03
(PID.TID 0000.0001) %MON ke_volint                    =   1.1935403932982E-01
(PID.TID 0000.0001) %MON ke_volmean                   =   3.7298137290514E-03
(PID.TID 0000.0001) %MON ke_vol                       =   3.2000000000048E+01
(PID.TID 0000.0001) %MON surf_Corr_theta_mean         =   5.4971562873434E-08
(PID.TID 0000.0001) %MON surf_Corr_salt_mean          =  -1.0994487655361E-17
(PID.TID 0000.0001) // =======================================================
(PID.TID 0000.0001) // End MONITOR dynamic field statistics
(PID.TID 0000.0001) // =======================================================
 cg2d: Sum(rhs),rhsMax =  -4.47968509961760E-06  5.75057441808710E+03
(PID.TID 0000.0001)                    cg2d_init_res =    6.87568437376394E+00
(PID.TID 0000.0001)                       cg2d_iters =    86
(PID.TID 0000.0001)                         cg2d_res =    5.31128123930411E-10
 cg3d: Sum(rhs),rhsMax =  -1.27287243245622E-12  3.64131298477129E+03
(PID.TID 0000.0001)                    cg3d_init_res =    8.39806980489079E+00
(PID.TID 0000.0001)                       cg3d_iters =    40
(PID.TID 0000.0001)                         cg3d_res =    2.91958528800539E-04
(PID.TID 0000.0001) // =======================================================
(PID.TID 0000.0001) // Begin MONITOR dynamic field statistics
(PID.TID 0000.0001) // =======================================================
(PID.TID 0000.0001) %MON time_tsnumber                =                     7
(PID.TID 0000.0001) %MON time_secondsf                =   1.4000000000000E-03
(PID.TID 0000.0001) %MON dynstat_eta_max              =   1.0012454783311E-05
(PID.TID 0000.0001) %MON dynstat_eta_min              =  -9.6337482498298E-06
(PID.TID 0000.0001) %MON dynstat_eta_mean             =   1.2880381177376E-10
(PID.TID 0000.0001) %MON dynstat_eta_sd               =   4.5364489998905E-06
(PID.TID 0000.0001) %MON dynstat_eta_del2             =   3.5146687558984E-06
(PID.TID 0000.0001) %MON dynstat_uvel_max             =   1.2294908934540E+00
(PID.TID 0000.0001) %MON dynstat_uvel_min             =  -1.0599656127218E+00
(PID.TID 0000.0001) %MON dynstat_uvel_mean            =   5.4073103141660E-13
(PID.TID 0000.0001) %MON dynstat_uvel_sd              =   9.0020307360818E-02
(PID.TID 0000.0001) %MON dynstat_uvel_del2            =   1.8115378712394E-02
(PID.TID 0000.0001) %MON dynstat_vvel_max             =   1.0581996597523E+00
(PID.TID 0000.0001) %MON dynstat_vvel_min             =  -1.0010302063496E+00
(PID.TID 0000.0001) %MON dynstat_vvel_mean            =  -4.1000017983008E-13
(PID.TID 0000.0001) %MON dynstat_vvel_sd              =   8.9702146288027E-02
(PID.TID 0000.0001) %MON dynstat_vvel_del2            =   1.8034619143365E-02
(PID.TID 0000.0001) %MON dynstat_wvel_max             =   2.3890844212640E+00
(PID.TID 0000.0001) %MON dynstat_wvel_min             =  -2.3584181404873E+00
(PID.TID 0000.0001) %MON dynstat_wvel_mean            =   1.4866808014412E-19
(PID.TID 0000.0001) %MON dynstat_wvel_sd              =   2.6140904032174E-01
(PID.TID 0000.0001) %MON dynstat_wvel_del2            =   5.9382501764024E-02
(PID.TID 0000.0001) %MON dynstat_theta_max            =   1.0000000000000E+00
(PID.TID 0000.0001) %MON dynstat_theta_min            =   9.8675116950408E-01
(PID.TID 0000.0001) %MON dynstat_theta_mean           =   9.9929648169926E-01
(PID.TID 0000.0001) %MON dynstat_theta_sd             =   2.8646788876056E-03
(PID.TID 0000.0001) %MON dynstat_theta_del2           =   2.2254622567916E-06
(PID.TID 0000.0001) %MON dynstat_salt_max             =   3.5000000000000E+01
(PID.TID 0000.0001) %MON dynstat_salt_min             =   3.5000000000000E+01
(PID.TID 0000.0001) %MON dynstat_salt_mean            =   3.4999999999948E+01
(PID.TID 0000.0001) %MON dynstat_salt_sd              =   5.2423843044373E-11
(PID.TID 0000.0001) %MON dynstat_salt_del2            =   0.0000000000000E+00
(PID.TID 0000.0001) %MON advcfl_uvel_max              =   3.9343708590528E-03
(PID.TID 0000.0001) %MON advcfl_vvel_max              =   3.3862389112074E-03
(PID.TID 0000.0001) %MON advcfl_wvel_max              =   4.7781688425281E-03
(PID.TID 0000.0001) %MON advcfl_W_hf_max              =   9.5563376850562E-03
(PID.TID 0000.0001) %MON ke_max                       =   4.9056786153335E-01
(PID.TID 0000.0001) %MON ke_mean                      =   8.0750653930194E-03
(PID.TID 0000.0001) %MON ke_volint                    =   2.5840209257663E-01
(PID.TID 0000.0001) %MON ke_volmean                   =   8.0750653930075E-03
(PID.TID 0000.0001) %MON ke_vol                       =   3.2000000000048E+01
(PID.TID 0000.0001) %MON surf_Corr_theta_mean         =   9.9457679397826E-08
(PID.TID 0000.0001) %MON surf_Corr_salt_mean          =   4.5159561582863E-18
(PID.TID 0000.0001) // =======================================================
(PID.TID 0000.0001) // End MONITOR dynamic field statistics
(PID.TID 0000.0001) // =======================================================
 cg2d: Sum(rhs),rhsMax =  -8.12768540356390E-06  8.18619829093472E+03
(PID.TID 0000.0001)                    cg2d_init_res =    7.66017798737253E+00
(PID.TID 0000.0001)                       cg2d_iters =    86
(PID.TID 0000.0001)                         cg2d_res =    6.42871557529105E-10
 cg3d: Sum(rhs),rhsMax =  -8.30608151702883E-13  5.42765091253080E+03
(PID.TID 0000.0001)                    cg3d_init_res =    9.14906371717336E+00
(PID.TID 0000.0001)                       cg3d_iters =    40
(PID.TID 0000.0001)                         cg3d_res =    2.42722858876192E-04
(PID.TID 0000.0001) // =======================================================
(PID.TID 0000.0001) // Begin MONITOR dynamic field statistics
(PID.TID 0000.0001) // =======================================================
(PID.TID 0000.0001) %MON time_tsnumber                =                     8
(PID.TID 0000.0001) %MON time_secondsf                =   1.6000000000000E-03
(PID.TID 0000.0001) %MON dynstat_eta_max              =   1.5138695210149E-05
(PID.TID 0000.0001) %MON dynstat_eta_min              =  -1.4409802750647E-05
(PID.TID 0000.0001) %MON dynstat_eta_mean             =   3.3267422068187E-10
(PID.TID 0000.0001) %MON dynstat_eta_sd               =   6.6264471311544E-06
(PID.TID 0000.0001) %MON dynstat_eta_del2             =   5.0044690065142E-06
(PID.TID 0000.0001) %MON dynstat_uvel_max             =   1.8515275388802E+00
(PID.TID 0000.0001) %MON dynstat_uvel_min             =  -1.5952513491469E+00
(PID.TID 0000.0001) %MON dynstat_uvel_mean            =   1.8767089438144E-12
(PID.TID 0000.0001) %MON dynstat_uvel_sd              =   1.3304108152316E-01
(PID.TID 0000.0001) %MON dynstat_uvel_del2            =   2.6242267001839E-02
(PID.TID 0000.0001) %MON dynstat_vvel_max             =   1.5772322810481E+00
(PID.TID 0000.0001) %MON dynstat_vvel_min             =  -1.4868752933257E+00
(PID.TID 0000.0001) %MON dynstat_vvel_mean            =  -1.3419849785161E-12
(PID.TID 0000.0001) %MON dynstat_vvel_sd              =   1.3269154350827E-01
(PID.TID 0000.0001) %MON dynstat_vvel_del2            =   2.6137857475672E-02
(PID.TID 0000.0001) %MON dynstat_wvel_max             =   3.6103030568311E+00
(PID.TID 0000.0001) %MON dynstat_wvel_min             =  -3.5594959742452E+00
(PID.TID 0000.0001) %MON dynstat_wvel_mean            =  -2.7609794263180E-19
(PID.TID 0000.0001) %MON dynstat_wvel_sd              =   3.9319333167780E-01
(PID.TID 0000.0001) %MON dynstat_wvel_del2            =   8.9058259250015E-02
(PID.TID 0000.0001) %MON dynstat_theta_max            =   1.0000000000000E+00
(PID.TID 0000.0001) %MON dynstat_theta_min            =   9.8497242760423E-01
(PID.TID 0000.0001) %MON dynstat_theta_mean           =   9.9919597907475E-01
(PID.TID 0000.0001) %MON dynstat_theta_sd             =   3.2448738603270E-03
(PID.TID 0000.0001) %MON dynstat_theta_del2           =   3.1892564227107E-06
(PID.TID 0000.0001) %MON dynstat_salt_max             =   3.5000000000000E+01
(PID.TID 0000.0001) %MON dynstat_salt_min             =   3.5000000000000E+01
(PID.TID 0000.0001) %MON dynstat_salt_mean            =   3.4999999999948E+01
(PID.TID 0000.0001) %MON dynstat_salt_sd              =   5.2423843044373E-11
(PID.TID 0000.0001) %MON dynstat_salt_del2            =   0.0000000000000E+00
(PID.TID 0000.0001) %MON advcfl_uvel_max              =   5.9248881244168E-03
(PID.TID 0000.0001) %MON advcfl_vvel_max              =   5.0471432993539E-03
(PID.TID 0000.0001) %MON advcfl_wvel_max              =   7.2206061136623E-03
(PID.TID 0000.0001) %MON advcfl_W_hf_max              =   1.4441212227325E-02
(PID.TID 0000.0001) %MON ke_max                       =   1.0930587111698E+00
(PID.TID 0000.0001) %MON ke_mean                      =   1.7653487545757E-02
(PID.TID 0000.0001) %MON ke_volint                    =   5.6491160146423E-01
(PID.TID 0000.0001) %MON ke_volmean                   =   1.7653487545731E-02
(PID.TID 0000.0001) %MON ke_vol                       =   3.2000000000048E+01
(PID.TID 0000.0001) %MON surf_Corr_theta_mean         =   2.0394616516603E-07
(PID.TID 0000.0001) %MON surf_Corr_salt_mean          =  -6.0432412654805E-17
(PID.TID 0000.0001) // =======================================================
(PID.TID 0000.0001) // End MONITOR dynamic field statistics
(PID.TID 0000.0001) // =======================================================
 cg2d: Sum(rhs),rhsMax =  -1.41507446010936E-05  1.17257798686810E+04
(PID.TID 0000.0001)                    cg2d_init_res =    7.90158762511341E+00
(PID.TID 0000.0001)                       cg2d_iters =    86
(PID.TID 0000.0001)                         cg2d_res =    5.66486064142142E-10
 cg3d: Sum(rhs),rhsMax =  -4.51481733942938E-13  8.04919086204792E+03
(PID.TID 0000.0001)                    cg3d_init_res =    9.23868548348938E+00
(PID.TID 0000.0001)                       cg3d_iters =    40
(PID.TID 0000.0001)                         cg3d_res =    2.13741042185388E-04
(PID.TID 0000.0001) // =======================================================
(PID.TID 0000.0001) // Begin MONITOR dynamic field statistics
(PID.TID 0000.0001) // =======================================================
(PID.TID 0000.0001) %MON time_tsnumber                =                     9
(PID.TID 0000.0001) %MON time_secondsf                =   1.8000000000000E-03
(PID.TID 0000.0001) %MON dynstat_eta_max              =   2.3489357639007E-05
(PID.TID 0000.0001) %MON dynstat_eta_min              =  -2.2060463135419E-05
(PID.TID 0000.0001) %MON dynstat_eta_mean             =   8.2964257929359E-10
(PID.TID 0000.0001) %MON dynstat_eta_sd               =   9.8891357354872E-06
(PID.TID 0000.0001) %MON dynstat_eta_del2             =   7.1907472768543E-06
(PID.TID 0000.0001) %MON dynstat_uvel_max             =   2.8004274804503E+00
(PID.TID 0000.0001) %MON dynstat_uvel_min             =  -2.4262330743867E+00
(PID.TID 0000.0001) %MON dynstat_uvel_mean            =   6.1480276193250E-12
(PID.TID 0000.0001) %MON dynstat_uvel_sd              =   1.9891339154813E-01
(PID.TID 0000.0001) %MON dynstat_uvel_del2            =   3.8357641167975E-02
(PID.TID 0000.0001) %MON dynstat_vvel_max             =   2.3606628885253E+00
(PID.TID 0000.0001) %MON dynstat_vvel_min             =  -2.2555442935407E+00
(PID.TID 0000.0001) %MON dynstat_vvel_mean            =  -3.7213767084287E-12
(PID.TID 0000.0001) %MON dynstat_vvel_sd              =   1.9874527813431E-01
(PID.TID 0000.0001) %MON dynstat_vvel_del2            =   3.8242356097188E-02
(PID.TID 0000.0001) %MON dynstat_wvel_max             =   5.5474122545663E+00
(PID.TID 0000.0001) %MON dynstat_wvel_min             =  -5.4494298607605E+00
(PID.TID 0000.0001) %MON dynstat_wvel_mean            =  -5.8005149293192E-19
(PID.TID 0000.0001) %MON dynstat_wvel_sd              =   5.9822144783757E-01
(PID.TID 0000.0001) %MON dynstat_wvel_del2            =   1.3370816359778E-01
(PID.TID 0000.0001) %MON dynstat_theta_max            =   1.0000000000000E+00
(PID.TID 0000.0001) %MON dynstat_theta_min            =   9.8320316894209E-01
(PID.TID 0000.0001) %MON dynstat_theta_mean           =   9.9909547643615E-01
(PID.TID 0000.0001) %MON dynstat_theta_sd             =   3.6189957244953E-03
(PID.TID 0000.0001) %MON dynstat_theta_del2           =   4.7119449977900E-06
(PID.TID 0000.0001) %MON dynstat_salt_max             =   3.5000000000000E+01
(PID.TID 0000.0001) %MON dynstat_salt_min             =   3.5000000000000E+01
(PID.TID 0000.0001) %MON dynstat_salt_mean            =   3.4999999999948E+01
(PID.TID 0000.0001) %MON dynstat_salt_sd              =   5.2423843044373E-11
(PID.TID 0000.0001) %MON dynstat_salt_del2            =   0.0000000000000E+00
(PID.TID 0000.0001) %MON advcfl_uvel_max              =   8.9613679374409E-03
(PID.TID 0000.0001) %MON advcfl_vvel_max              =   7.5541212432809E-03
(PID.TID 0000.0001) %MON advcfl_wvel_max              =   1.1094824509133E-02
(PID.TID 0000.0001) %MON advcfl_W_hf_max              =   2.2189649018265E-02
(PID.TID 0000.0001) %MON ke_max                       =   2.4679058151619E+00
(PID.TID 0000.0001) %MON ke_mean                      =   3.9533111458989E-02
(PID.TID 0000.0001) %MON ke_volint                    =   1.2650595666877E+00
(PID.TID 0000.0001) %MON ke_volmean                   =   3.9533111458931E-02
(PID.TID 0000.0001) %MON ke_vol                       =   3.2000000000048E+01
(PID.TID 0000.0001) %MON surf_Corr_theta_mean         =   4.3971677798863E-07
(PID.TID 0000.0001) %MON surf_Corr_salt_mean          =   2.0672262594215E-17
(PID.TID 0000.0001) // =======================================================
(PID.TID 0000.0001) // End MONITOR dynamic field statistics
(PID.TID 0000.0001) // =======================================================
 cg2d: Sum(rhs),rhsMax =  -2.36855737922662E-05  1.74127043051067E+04
(PID.TID 0000.0001)                    cg2d_init_res =    8.52970487728042E+00
(PID.TID 0000.0001)                       cg2d_iters =    86
(PID.TID 0000.0001)                         cg2d_res =    6.34303202543283E-10
 cg3d: Sum(rhs),rhsMax =  -3.80589657011932E-13  1.22905743862485E+04
(PID.TID 0000.0001)                    cg3d_init_res =    9.79379977462174E+00
(PID.TID 0000.0001)                       cg3d_iters =    40
(PID.TID 0000.0001)                         cg3d_res =    2.15388271894807E-04
(PID.TID 0000.0001) // =======================================================
(PID.TID 0000.0001) // Begin MONITOR dynamic field statistics
(PID.TID 0000.0001) // =======================================================
(PID.TID 0000.0001) %MON time_tsnumber                =                    10
(PID.TID 0000.0001) %MON time_secondsf                =   2.0000000000000E-03
(PID.TID 0000.0001) %MON dynstat_eta_max              =   3.7208876397979E-05
(PID.TID 0000.0001) %MON dynstat_eta_min              =  -3.4663649881231E-05
(PID.TID 0000.0001) %MON dynstat_eta_mean             =   2.0621494626136E-09
(PID.TID 0000.0001) %MON dynstat_eta_sd               =   1.5197782895807E-05
(PID.TID 0000.0001) %MON dynstat_eta_del2             =   1.0712520997144E-05
(PID.TID 0000.0001) %MON dynstat_uvel_max             =   4.2801661663956E+00
(PID.TID 0000.0001) %MON dynstat_uvel_min             =  -3.7309351722764E+00
(PID.TID 0000.0001) %MON dynstat_uvel_mean            =   2.1339657179124E-11
(PID.TID 0000.0001) %MON dynstat_uvel_sd              =   3.0281332972397E-01
(PID.TID 0000.0001) %MON dynstat_uvel_del2            =   5.7278170440934E-02
(PID.TID 0000.0001) %MON dynstat_vvel_max             =   3.5735819944498E+00
(PID.TID 0000.0001) %MON dynstat_vvel_min             =  -3.4848717103921E+00
(PID.TID 0000.0001) %MON dynstat_vvel_mean            =  -1.0730992445744E-11
(PID.TID 0000.0001) %MON dynstat_vvel_sd              =   3.0323064730015E-01
(PID.TID 0000.0001) %MON dynstat_vvel_del2            =   5.7147775891318E-02
(PID.TID 0000.0001) %MON dynstat_wvel_max             =   8.6476314941156E+00
(PID.TID 0000.0001) %MON dynstat_wvel_min             =  -8.4414033645220E+00
(PID.TID 0000.0001) %MON dynstat_wvel_mean            =   3.8927668594912E-19
(PID.TID 0000.0001) %MON dynstat_wvel_sd              =   9.2665759390122E-01
(PID.TID 0000.0001) %MON dynstat_wvel_del2            =   2.0421206383802E-01
(PID.TID 0000.0001) %MON dynstat_theta_max            =   1.0000000000000E+00
(PID.TID 0000.0001) %MON dynstat_theta_min            =   9.8142937795687E-01
(PID.TID 0000.0001) %MON dynstat_theta_mean           =   9.9899497376617E-01
(PID.TID 0000.0001) %MON dynstat_theta_sd             =   3.9873194702550E-03
(PID.TID 0000.0001) %MON dynstat_theta_del2           =   7.1091330047954E-06
(PID.TID 0000.0001) %MON dynstat_salt_max             =   3.5000000000000E+01
(PID.TID 0000.0001) %MON dynstat_salt_min             =   3.5000000000000E+01
(PID.TID 0000.0001) %MON dynstat_salt_mean            =   3.4999999999948E+01
(PID.TID 0000.0001) %MON dynstat_salt_sd              =   5.2423843044373E-11
(PID.TID 0000.0001) %MON dynstat_salt_del2            =   0.0000000000000E+00
(PID.TID 0000.0001) %MON advcfl_uvel_max              =   1.3696531732466E-02
(PID.TID 0000.0001) %MON advcfl_vvel_max              =   1.1435462382239E-02
(PID.TID 0000.0001) %MON advcfl_wvel_max              =   1.7295262988231E-02
(PID.TID 0000.0001) %MON advcfl_W_hf_max              =   3.4590525976462E-02
(PID.TID 0000.0001) %MON ke_max                       =   5.7170131223728E+00
(PID.TID 0000.0001) %MON ke_mean                      =   9.1822369060432E-02
(PID.TID 0000.0001) %MON ke_volint                    =   2.9383158099338E+00
(PID.TID 0000.0001) %MON ke_volmean                   =   9.1822369060295E-02
(PID.TID 0000.0001) %MON ke_vol                       =   3.2000000000048E+01
(PID.TID 0000.0001) %MON surf_Corr_theta_mean         =   1.0301047833221E-06
(PID.TID 0000.0001) %MON surf_Corr_salt_mean          =   6.2646556778928E-17
(PID.TID 0000.0001) // =======================================================
(PID.TID 0000.0001) // End MONITOR dynamic field statistics
(PID.TID 0000.0001) // =======================================================
(PID.TID 0000.0001)   Seconds in section "ALL                    [THE_MODEL_MAIN]":
(PID.TID 0000.0001)           User time:  44.5100005
(PID.TID 0000.0001)         System time:  0.689999988
(PID.TID 0000.0001)     Wall clock time:  46.147651
(PID.TID 0000.0001)          No. starts: 1
(PID.TID 0000.0001)           No. stops: 1
(PID.TID 0000.0001)   Seconds in section "INITIALISE_FIXED       [THE_MODEL_MAIN]":
(PID.TID 0000.0001)           User time:  0.399999997
(PID.TID 0000.0001)         System time:  0.130000001
(PID.TID 0000.0001)     Wall clock time:  0.62252593
(PID.TID 0000.0001)          No. starts: 1
(PID.TID 0000.0001)           No. stops: 1
(PID.TID 0000.0001)   Seconds in section "THE_MAIN_LOOP          [THE_MODEL_MAIN]":
(PID.TID 0000.0001)           User time:  43.4500006
(PID.TID 0000.0001)         System time:  0.359999999
(PID.TID 0000.0001)     Wall clock time:  44.183798
(PID.TID 0000.0001)          No. starts: 1
(PID.TID 0000.0001)           No. stops: 1
(PID.TID 0000.0001)   Seconds in section "INITIALISE_VARIA    [THE_MAIN_LOOP]":
(PID.TID 0000.0001)           User time:  0.869999975
(PID.TID 0000.0001)         System time:  0.0900000036
(PID.TID 0000.0001)     Wall clock time:  0.955038071
(PID.TID 0000.0001)          No. starts: 1
(PID.TID 0000.0001)           No. stops: 1
(PID.TID 0000.0001)   Seconds in section "WRITE_STATE         [THE_MAIN_LOOP]":
(PID.TID 0000.0001)           User time:  0.139999986
(PID.TID 0000.0001)         System time:  0.0899999887
(PID.TID 0000.0001)     Wall clock time:  0.557031989
(PID.TID 0000.0001)          No. starts: 1
(PID.TID 0000.0001)           No. stops: 1
(PID.TID 0000.0001)   Seconds in section "MONITOR             [THE_MAIN_LOOP]":
(PID.TID 0000.0001)           User time:  0.25999999
(PID.TID 0000.0001)         System time:  0.
(PID.TID 0000.0001)     Wall clock time:  0.258372068
(PID.TID 0000.0001)          No. starts: 1
(PID.TID 0000.0001)           No. stops: 1
(PID.TID 0000.0001)   Seconds in section "MAIN LOOP           [THE_MAIN_LOOP]":
(PID.TID 0000.0001)           User time:  42.1800007
(PID.TID 0000.0001)         System time:  0.180000007
(PID.TID 0000.0001)     Wall clock time:  42.412981
(PID.TID 0000.0001)          No. starts: 1
(PID.TID 0000.0001)           No. stops: 1
(PID.TID 0000.0001)   Seconds in section "FORWARD_STEP        [THE_MAIN_LOOP]":
(PID.TID 0000.0001)           User time:  42.1800007
(PID.TID 0000.0001)         System time:  0.180000007
(PID.TID 0000.0001)     Wall clock time:  42.4121977
(PID.TID 0000.0001)          No. starts: 10
(PID.TID 0000.0001)           No. stops: 10
(PID.TID 0000.0001)   Seconds in section "EXTERNAL_FIELDS_LOAD[FORWARD_STEP]":
(PID.TID 0000.0001)           User time:  0.
(PID.TID 0000.0001)         System time:  0.
(PID.TID 0000.0001)     Wall clock time:  0.00072324276
(PID.TID 0000.0001)          No. starts: 10
(PID.TID 0000.0001)           No. stops: 10
(PID.TID 0000.0001)   Seconds in section "THERMODYNAMICS      [FORWARD_STEP]":
(PID.TID 0000.0001)           User time:  3.39000118
(PID.TID 0000.0001)         System time:  0.0300000012
(PID.TID 0000.0001)     Wall clock time:  3.43132567
(PID.TID 0000.0001)          No. starts: 10
(PID.TID 0000.0001)           No. stops: 10
(PID.TID 0000.0001)   Seconds in section "BLOCKING_EXCHANGES  [FORWARD_STEP]":
(PID.TID 0000.0001)           User time:  0.109997034
(PID.TID 0000.0001)         System time:  0.
(PID.TID 0000.0001)     Wall clock time:  0.116626024
(PID.TID 0000.0001)          No. starts: 20
(PID.TID 0000.0001)           No. stops: 20
(PID.TID 0000.0001)   Seconds in section "DYNAMICS            [FORWARD_STEP]":
(PID.TID 0000.0001)           User time:  5.36000156
(PID.TID 0000.0001)         System time:  0.0399999917
(PID.TID 0000.0001)     Wall clock time:  5.3457799
(PID.TID 0000.0001)          No. starts: 10
(PID.TID 0000.0001)           No. stops: 10
(PID.TID 0000.0001)   Seconds in section "CALC_GW          [FORWARD_STEP]":
(PID.TID 0000.0001)           User time:  0.759996653
(PID.TID 0000.0001)         System time:  0.
(PID.TID 0000.0001)     Wall clock time:  0.770962834
(PID.TID 0000.0001)          No. starts: 10
(PID.TID 0000.0001)           No. stops: 10
(PID.TID 0000.0001)   Seconds in section "SOLVE_FOR_PRESSURE  [FORWARD_STEP]":
(PID.TID 0000.0001)           User time:  29.1399968
(PID.TID 0000.0001)         System time:  0.0300000012
(PID.TID 0000.0001)     Wall clock time:  29.1657363
(PID.TID 0000.0001)          No. starts: 10
(PID.TID 0000.0001)           No. stops: 10
(PID.TID 0000.0001)   Seconds in section "THE_CORRECTION_STEP [FORWARD_STEP]":
(PID.TID 0000.0001)           User time:  0.660003662
(PID.TID 0000.0001)         System time:  0.
(PID.TID 0000.0001)     Wall clock time:  0.662363887
(PID.TID 0000.0001)          No. starts: 10
(PID.TID 0000.0001)           No. stops: 10
(PID.TID 0000.0001)   Seconds in section "MONITOR             [FORWARD_STEP]":
(PID.TID 0000.0001)           User time:  2.60000396
(PID.TID 0000.0001)         System time:  0.
(PID.TID 0000.0001)     Wall clock time:  2.59399796
(PID.TID 0000.0001)          No. starts: 10
(PID.TID 0000.0001)           No. stops: 10
(PID.TID 0000.0001)   Seconds in section "DO_THE_MODEL_IO     [FORWARD_STEP]":
(PID.TID 0000.0001)           User time:  0.159999847
(PID.TID 0000.0001)         System time:  0.0800000131
(PID.TID 0000.0001)     Wall clock time:  0.315113306
(PID.TID 0000.0001)          No. starts: 10
(PID.TID 0000.0001)           No. stops: 10
(PID.TID 0000.0001)   Seconds in section "WRITE_CHECKPOINT    [FORWARD_STEP]":
(PID.TID 0000.0001)           User time:  0.
(PID.TID 0000.0001)         System time:  0.
(PID.TID 0000.0001)     Wall clock time:  0.000716924667
(PID.TID 0000.0001)          No. starts: 10
(PID.TID 0000.0001)           No. stops: 10
(PID.TID 0000.0001)   Seconds in section "WRITE_CHECKPOINT       [THE_MODEL_MAIN]":
(PID.TID 0000.0001)           User time:  0.659999847
(PID.TID 0000.0001)         System time:  0.199999988
(PID.TID 0000.0001)     Wall clock time:  1.34098899
(PID.TID 0000.0001)          No. starts: 1
(PID.TID 0000.0001)           No. stops: 1
(PID.TID 0000.0001) // ======================================================
(PID.TID 0000.0001) // Tile <-> Tile communication statistics
(PID.TID 0000.0001) // ======================================================
(PID.TID 0000.0001) // o Tile number: 000001
(PID.TID 0000.0001) //         No. X exchanges =              0
(PID.TID 0000.0001) //            Max. X spins =              0
(PID.TID 0000.0001) //            Min. X spins =     1000000000
(PID.TID 0000.0001) //          Total. X spins =              0
(PID.TID 0000.0001) //            Avg. X spins =       0.00E+00
(PID.TID 0000.0001) //         No. Y exchanges =              0
(PID.TID 0000.0001) //            Max. Y spins =              0
(PID.TID 0000.0001) //            Min. Y spins =     1000000000
(PID.TID 0000.0001) //          Total. Y spins =              0
(PID.TID 0000.0001) //            Avg. Y spins =       0.00E+00
(PID.TID 0000.0001) // o Thread number: 000001
(PID.TID 0000.0001) //            No. barriers =          16726
(PID.TID 0000.0001) //      Max. barrier spins =              1
(PID.TID 0000.0001) //      Min. barrier spins =              1
(PID.TID 0000.0001) //     Total barrier spins =          16726
(PID.TID 0000.0001) //      Avg. barrier spins =       1.00E+00
