(PID.TID 0000.0001) 
(PID.TID 0000.0001) // ======================================================
(PID.TID 0000.0001) //                      MITgcm UV
(PID.TID 0000.0001) //                      =========
(PID.TID 0000.0001) // ======================================================
(PID.TID 0000.0001) // execution environment starting up...
(PID.TID 0000.0001) // Run starting Wed Apr  1 14:19:48 1998
(PID.TID 0000.0001) // on melville.lcs.mit.edu
(PID.TID 0000.0001) // account cnh
(PID.TID 0000.0001) // MITgcm UV Release: $Name:  $
(PID.TID 0000.0001) 
(PID.TID 0000.0001) // =======================================================
(PID.TID 0000.0001) // Execution Environment parameter file "eedata"
(PID.TID 0000.0001) // =======================================================
(PID.TID 0000.0001) ># Example "eedata" file
(PID.TID 0000.0001) ># Lines beginning "#" are comments
(PID.TID 0000.0001) ># nTx - No. threads per process in X
(PID.TID 0000.0001) ># nTy - No. threads per process in Y
(PID.TID 0000.0001) > &EEPARMS
(PID.TID 0000.0001) > &
(PID.TID 0000.0001) ># Note: Some systems use & as the
(PID.TID 0000.0001) ># namelist terminator. Other systems
(PID.TID 0000.0001) ># use a / character (as shown here).
(PID.TID 0000.0001) 
(PID.TID 0000.0001) // =======================================================
(PID.TID 0000.0001) // Computational Grid Specification ( see files "SIZE.h" )
(PID.TID 0000.0001) //                                  ( and "eedata"       )
(PID.TID 0000.0001) // =======================================================
(PID.TID 0000.0001)      nPx =    1 ; /* No. processes in X */
(PID.TID 0000.0001)      nPy =    1 ; /* No. processes in Y */
(PID.TID 0000.0001)      nSx =    2 ; /* No. tiles in X per process */
(PID.TID 0000.0001)      nSy =    1 ; /* No. tiles in Y per process */
(PID.TID 0000.0001)      sNx =   40 ; /* Tile size in X */
(PID.TID 0000.0001)      sNy =   42 ; /* Tile size in Y */
(PID.TID 0000.0001)      OLx =    2 ; /* Tile overlap distance in X */
(PID.TID 0000.0001)      OLy =    2 ; /* Tile overlap distance in Y */
(PID.TID 0000.0001)      nTx =    1 ; /* No. threads in X per process */
(PID.TID 0000.0001)      nTy =    1 ; /* No. threads in Y per process */
(PID.TID 0000.0001)       Nr =    8 ; /* No. levels in the vertical   */
(PID.TID 0000.0001)       nX =   80 ; /* Total domain size in X ( = nPx*nSx*sNx ) */
(PID.TID 0000.0001)       nY =   42 ; /* Total domain size in Y ( = nPy*nSy*sNy ) */
(PID.TID 0000.0001)   nTiles =    2 ; /* Total no. tiles per process ( = nSx*nSy ) */
(PID.TID 0000.0001)   nProcs =    1 ; /* Total no. processes ( = nPx*nPy ) */
(PID.TID 0000.0001) nThreads =    1 ; /* Total no. threads per process ( = nTx*nTy ) */
(PID.TID 0000.0001) usingMPI =    F ; /* Flag used to control whether MPI is in use */
(PID.TID 0000.0001)                   /*  note: To execute a program with MPI calls */
(PID.TID 0000.0001)                   /*  it must be launched appropriately e.g     */
(PID.TID 0000.0001)                   /*  "mpirun -np 64 ......"                    */
(PID.TID 0000.0001) 
(PID.TID 0000.0001) // ======================================================
(PID.TID 0000.0001) // Mapping of tiles to threads
(PID.TID 0000.0001) // ======================================================
(PID.TID 0000.0001) // -o- Thread   1, tiles (   1:   2,   1:   1)
(PID.TID 0000.0001) 
(PID.TID 0000.0001) // ======================================================
(PID.TID 0000.0001) // Tile <-> Tile connectvity table
(PID.TID 0000.0001) // ======================================================
(PID.TID 0000.0001) // Tile number: 000001 (process no. = 000001)
(PID.TID 0000.0001) //        WEST: Tile = 000002, Process = 000001, Comm = put
(PID.TID 0000.0001) //                bi = 000002, bj = 000001
(PID.TID 0000.0001) //        EAST: Tile = 000002, Process = 000001, Comm = put
(PID.TID 0000.0001) //                bi = 000002, bj = 000001
(PID.TID 0000.0001) //       SOUTH: Tile = 000001, Process = 000001, Comm = put
(PID.TID 0000.0001) //                bi = 000001, bj = 000001
(PID.TID 0000.0001) //       NORTH: Tile = 000001, Process = 000001, Comm = put
(PID.TID 0000.0001) //                bi = 000001, bj = 000001
(PID.TID 0000.0001) // Tile number: 000002 (process no. = 000001)
(PID.TID 0000.0001) //        WEST: Tile = 000001, Process = 000001, Comm = put
(PID.TID 0000.0001) //                bi = 000001, bj = 000001
(PID.TID 0000.0001) //        EAST: Tile = 000001, Process = 000001, Comm = put
(PID.TID 0000.0001) //                bi = 000001, bj = 000001
(PID.TID 0000.0001) //       SOUTH: Tile = 000002, Process = 000001, Comm = put
(PID.TID 0000.0001) //                bi = 000002, bj = 000001
(PID.TID 0000.0001) //       NORTH: Tile = 000002, Process = 000001, Comm = put
(PID.TID 0000.0001) //                bi = 000002, bj = 000001
(PID.TID 0000.0001) 
(PID.TID 0000.0001) // =======================================================
(PID.TID 0000.0001) // Model parameter file "data"
(PID.TID 0000.0001) // =======================================================
(PID.TID 0000.0001) ># ====================
(PID.TID 0000.0001) ># | Model parameters |
(PID.TID 0000.0001) ># ====================
(PID.TID 0000.0001) >#
(PID.TID 0000.0001) ># Continuous equation parameters
(PID.TID 0000.0001) > &PARM01
(PID.TID 0000.0001) > tRef= 0.696834, 0.497738, 0.298643, 0.0995477, -0.0995477, -0.298643, -0.497738, -0.696834,
(PID.TID 0000.0001) > sRef= 8*35.,
(PID.TID 0000.0001) > viscAz=1.E-3,
(PID.TID 0000.0001) > viscAh=1.E3,
(PID.TID 0000.0001) > no_slip_sides=.FALSE.,
(PID.TID 0000.0001) > no_slip_bottom=.FALSE.,
(PID.TID 0000.0001) > viscA4=0.E12,
(PID.TID 0000.0001) > diffKhT=1.E3,
(PID.TID 0000.0001) > diffKzT=1.E-5,
(PID.TID 0000.0001) > diffKhS=1.E3,
(PID.TID 0000.0001) > diffKzS=1.E-5,
(PID.TID 0000.0001) > f0=1.e-4,
(PID.TID 0000.0001) > beta=0.E-11,
(PID.TID 0000.0001) > tAlpha=2.E-4,
(PID.TID 0000.0001) > sBeta =0.E-4,
(PID.TID 0000.0001) > gravity=9.81,
(PID.TID 0000.0001) > gBaro=9.81,
(PID.TID 0000.0001) > rigidLid=.FALSE.,
(PID.TID 0000.0001) > implicitFreeSurface=.TRUE.,
(PID.TID 0000.0001) > eosType='LINEAR',
(PID.TID 0000.0001) > hFacMin=0.2,
(PID.TID 0000.0001) > nonHydrostatic=.FALSE.,
(PID.TID 0000.0001) > readBinaryPrec=64,
(PID.TID 0000.0001) > globalFiles=.TRUE.,
(PID.TID 0000.0001) > &
(PID.TID 0000.0001) >
(PID.TID 0000.0001) ># Elliptic solver parameters
(PID.TID 0000.0001) > &PARM02
(PID.TID 0000.0001) > cg2dMaxIters=1000,
(PID.TID 0000.0001) > cg2dTargetResidual=1.E-13,
(PID.TID 0000.0001) > cg3dMaxIters=400,
(PID.TID 0000.0001) > cg3dTargetResidual=1.E-13,
(PID.TID 0000.0001) > &
(PID.TID 0000.0001) >
(PID.TID 0000.0001) ># Time stepping parameters
(PID.TID 0000.0001) > &PARM03
(PID.TID 0000.0001) > niter0=0,
(PID.TID 0000.0001) > nTimeSteps=10,
(PID.TID 0000.0001) > deltaT=600.0,
(PID.TID 0000.0001) > abEps=0.1,
(PID.TID 0000.0001) > pChkptFreq=3000.0,
(PID.TID 0000.0001) > chkptFreq=0.0,
(PID.TID 0000.0001) > dumpFreq=10800.0,
(PID.TID 0000.0001) > monitorFreq=1.,
(PID.TID 0000.0001) > &
(PID.TID 0000.0001) >
(PID.TID 0000.0001) ># Gridding parameters
(PID.TID 0000.0001) > &PARM04
(PID.TID 0000.0001) > usingCartesianGrid=.TRUE.,
(PID.TID 0000.0001) > usingSphericalPolarGrid=.FALSE.,
(PID.TID 0000.0001) > delX=80*5.e3,
(PID.TID 0000.0001) > delY=42*5.e3,
(PID.TID 0000.0001) > delZ= 8*562.5,
(PID.TID 0000.0001) > &
(PID.TID 0000.0001) >
(PID.TID 0000.0001) ># Input datasets
(PID.TID 0000.0001) > &PARM05
(PID.TID 0000.0001) > bathyFile='topog.bump',
(PID.TID 0000.0001) > &
(PID.TID 0000.0001) 
(PID.TID 0000.0001) S/R INI_PARMS ; read PARM01 : OK
(PID.TID 0000.0001) S/R INI_PARMS ; read PARM02 : OK
(PID.TID 0000.0001) S/R INI_PARMS ; read PARM03 : OK
(PID.TID 0000.0001) S/R INI_PARMS ; read PARM04 : OK
(PID.TID 0000.0001) S/R INI_PARMS ; read PARM05 : OK
(PID.TID 0000.0001) %MON XC_max                       =   3.9750000000000E+05
(PID.TID 0000.0001) %MON XC_min                       =   2.5000000000000E+03
(PID.TID 0000.0001) %MON XC_mean                      =   2.0000000000000E+05
(PID.TID 0000.0001) %MON XC_sd                        =   1.1546103238755E+05
(PID.TID 0000.0001) %MON XG_max                       =   3.9500000000000E+05
(PID.TID 0000.0001) %MON XG_min                       =   5.0000000000000E+03
(PID.TID 0000.0001) %MON XG_mean                      =   2.0000000000000E+05
(PID.TID 0000.0001) %MON XG_sd                        =   1.1401754250991E+05
(PID.TID 0000.0001) %MON DXC_max                      =   5.0000000000000E+03
(PID.TID 0000.0001) %MON DXC_min                      =   5.0000000000000E+03
(PID.TID 0000.0001) %MON DXC_mean                     =   5.0000000000000E+03
(PID.TID 0000.0001) %MON DXC_sd                       =   0.0000000000000E+00
(PID.TID 0000.0001) %MON DXF_max                      =   5.0000000000000E+03
(PID.TID 0000.0001) %MON DXF_min                      =   5.0000000000000E+03
(PID.TID 0000.0001) %MON DXF_mean                     =   5.0000000000000E+03
(PID.TID 0000.0001) %MON DXF_sd                       =   0.0000000000000E+00
(PID.TID 0000.0001) %MON DXG_max                      =   5.0000000000000E+03
(PID.TID 0000.0001) %MON DXG_min                      =   5.0000000000000E+03
(PID.TID 0000.0001) %MON DXG_mean                     =   5.0000000000000E+03
(PID.TID 0000.0001) %MON DXG_sd                       =   0.0000000000000E+00
(PID.TID 0000.0001) %MON DXV_max                      =   5.0000000000000E+03
(PID.TID 0000.0001) %MON DXV_min                      =   5.0000000000000E+03
(PID.TID 0000.0001) %MON DXV_mean                     =   5.0000000000000E+03
(PID.TID 0000.0001) %MON DXV_sd                       =   0.0000000000000E+00
(PID.TID 0000.0001) %MON YC_max                       =   2.0750000000000E+05
(PID.TID 0000.0001) %MON YC_min                       =   2.5000000000000E+03
(PID.TID 0000.0001) %MON YC_mean                      =   1.0500000000000E+05
(PID.TID 0000.0001) %MON YC_sd                        =   6.0604592785256E+04
(PID.TID 0000.0001) %MON YG_max                       =   2.0500000000000E+05
(PID.TID 0000.0001) %MON YG_min                       =   5.0000000000000E+03
(PID.TID 0000.0001) %MON YG_mean                      =   1.0500000000000E+05
(PID.TID 0000.0001) %MON YG_sd                        =   5.9160797830996E+04
(PID.TID 0000.0001) %MON DYC_max                      =   5.0000000000000E+03
(PID.TID 0000.0001) %MON DYC_min                      =   5.0000000000000E+03
(PID.TID 0000.0001) %MON DYC_mean                     =   5.0000000000000E+03
(PID.TID 0000.0001) %MON DYC_sd                       =   0.0000000000000E+00
(PID.TID 0000.0001) %MON DYF_max                      =   5.0000000000000E+03
(PID.TID 0000.0001) %MON DYF_min                      =   5.0000000000000E+03
(PID.TID 0000.0001) %MON DYF_mean                     =   5.0000000000000E+03
(PID.TID 0000.0001) %MON DYF_sd                       =   0.0000000000000E+00
(PID.TID 0000.0001) %MON DYG_max                      =   5.0000000000000E+03
(PID.TID 0000.0001) %MON DYG_min                      =   5.0000000000000E+03
(PID.TID 0000.0001) %MON DYG_mean                     =   5.0000000000000E+03
(PID.TID 0000.0001) %MON DYG_sd                       =   0.0000000000000E+00
(PID.TID 0000.0001) %MON DYU_max                      =   5.0000000000000E+03
(PID.TID 0000.0001) %MON DYU_min                      =   5.0000000000000E+03
(PID.TID 0000.0001) %MON DYU_mean                     =   5.0000000000000E+03
(PID.TID 0000.0001) %MON DYU_sd                       =   0.0000000000000E+00
(PID.TID 0000.0001) %MON RA_max                       =   2.5000000000000E+07
(PID.TID 0000.0001) %MON RA_min                       =   2.5000000000000E+07
(PID.TID 0000.0001) %MON RA_mean                      =   2.5000000000000E+07
(PID.TID 0000.0001) %MON RA_sd                        =   3.7252902984619E-09
(PID.TID 0000.0001) %MON RAW_max                      =   2.5000000000000E+07
(PID.TID 0000.0001) %MON RAW_min                      =   2.5000000000000E+07
(PID.TID 0000.0001) %MON RAW_mean                     =   2.5000000000000E+07
(PID.TID 0000.0001) %MON RAW_sd                       =   3.7252902984619E-09
(PID.TID 0000.0001) %MON RAS_max                      =   2.5000000000000E+07
(PID.TID 0000.0001) %MON RAS_min                      =   2.5000000000000E+07
(PID.TID 0000.0001) %MON RAS_mean                     =   2.5000000000000E+07
(PID.TID 0000.0001) %MON RAS_sd                       =   3.7252902984619E-09
(PID.TID 0000.0001) %MON RAZ_max                      =   2.5000000000000E+07
(PID.TID 0000.0001) %MON RAZ_min                      =   2.5000000000000E+07
(PID.TID 0000.0001) %MON RAZ_mean                     =   2.5000000000000E+07
(PID.TID 0000.0001) %MON RAZ_sd                       =   3.7252902984619E-09
(PID.TID 0000.0001)  MDSREADFIELD: opening global file: topog.bump
(PID.TID 0000.0001) // =======================================================
(PID.TID 0000.0001) // Field Model R_low (ini_masks_etc) at iteration          1
(PID.TID 0000.0001) // CMIN =         -4.500000000000000E+03
(PID.TID 0000.0001) // CMAX =         -4.902981733158691E+02
(PID.TID 0000.0001) // CINT =          1.485074750623752E+02
(PID.TID 0000.0001) // SYMBOLS (CMIN->CMAX): -abcdefghijklmnopqrstuvwxyz+
(PID.TID 0000.0001) //                  0.0: .
(PID.TID 0000.0001) // RANGE I (Lo:Hi:Step):(  -1:  82:   1)
(PID.TID 0000.0001) // RANGE J (Lo:Hi:Step):(  44:  -1:  -1)
(PID.TID 0000.0001) // RANGE K (Lo:Hi:Step):(   1:   1:   1)
(PID.TID 0000.0001) // =======================================================
(PID.TID 0000.0001) K =   1
(PID.TID 0000.0001) //                I=8       I=18      I=28      I=38      I=44      I=54      I=64      I=74
(PID.TID 0000.0001) // |--J--|*01234567|901234567|901234567|901234567|901290123|567890123|567890123|567890123|56789012
(PID.TID 0000.0001) //     44 ----------------------------------------------------------------------------------------
(PID.TID 0000.0001) //     43 ----------------------------------------------------------------------------------------
(PID.TID 0000.0001) //     42 ----------------------------------------------------------------------------------------
(PID.TID 0000.0001) //     41 ----------------------------------------------------------------------------------------
(PID.TID 0000.0001) //     40 ----------------------------------------------------------------------------------------
(PID.TID 0000.0001) //     39 ----------------------------------------------------------------------------------------
(PID.TID 0000.0001) //     38 ----------------------------------------------------------------------------------------
(PID.TID 0000.0001) //     37 ----------------------------------------------------------------------------------------
(PID.TID 0000.0001) //     36 ----------------------------------------------------------------------------------------
(PID.TID 0000.0001) //     35 --------------------------------------aaaaaaaaaaaa--------------------------------------
(PID.TID 0000.0001) //     34 -----------------------------------aaaaaaaaaaaaaaaaaa-----------------------------------
(PID.TID 0000.0001) //     33 ----------------------------------aaaabbbbbbbbbbbbaaaa----------------------------------
(PID.TID 0000.0001) //     32 ---------------------------------aaabbbccccccccccbbbaaa---------------------------------
(PID.TID 0000.0001) //     31 --------------------------------aaabbcddddddddddddcbbaaa--------------------------------
(PID.TID 0000.0001) //     30 -------------------------------aabbcddeffffffffffeddcbbaa-------------------------------
(PID.TID 0000.0001) //     29 ------------------------------aaabcdefghhiihhiihhgfedcbaaa------------------------------
(PID.TID 0000.0001) //     28 -----------------------------aaabcdefhijkllkkllkjihfedcbaaa-----------------------------
(PID.TID 0000.0001) //     27 -----------------------------aabbdefhjlmnoonnoonmljhfedbbaa-----------------------------
(PID.TID 0000.0001) //     26 -----------------------------aabcdfhjlnpqrrqqrrqpnljhfdcbaa-----------------------------
(PID.TID 0000.0001) //     25 ----------------------------aabbdegilnqstuuttuutsqnligedbbaa----------------------------
(PID.TID 0000.0001) //     24 ----------------------------aabcdfhjmpsuwxxwwxxwuspmjhfdcbaa----------------------------
(PID.TID 0000.0001) //     23 ----------------------------aabcdfhknqtwyzzyyzzywtqnkhfdcbaa----------------------------
(PID.TID 0000.0001) //     22 ----------------------------aabcdfiloruxz++zz++zxurolifdcbaa----------------------------
(PID.TID 0000.0001) //     21 ----------------------------aabcdfiloruxz++zz++zxurolifdcbaa----------------------------
(PID.TID 0000.0001) //     20 ----------------------------aabcdfhknqtwyzzyyzzywtqnkhfdcbaa----------------------------
(PID.TID 0000.0001) //     19 ----------------------------aabcdfhjmpsuwxxwwxxwuspmjhfdcbaa----------------------------
(PID.TID 0000.0001) //     18 ----------------------------aabbdegilnqstuuttuutsqnligedbbaa----------------------------
(PID.TID 0000.0001) //     17 -----------------------------aabcdfhjlnpqrrqqrrqpnljhfdcbaa-----------------------------
(PID.TID 0000.0001) //     16 -----------------------------aabbdefhjlmnoonnoonmljhfedbbaa-----------------------------
(PID.TID 0000.0001) //     15 -----------------------------aaabcdefhijkllkkllkjihfedcbaaa-----------------------------
(PID.TID 0000.0001) //     14 ------------------------------aaabcdefghhiihhiihhgfedcbaaa------------------------------
(PID.TID 0000.0001) //     13 -------------------------------aabbcddeffffffffffeddcbbaa-------------------------------
(PID.TID 0000.0001) //     12 --------------------------------aaabbcddddddddddddcbbaaa--------------------------------
(PID.TID 0000.0001) //     11 ---------------------------------aaabbbccccccccccbbbaaa---------------------------------
(PID.TID 0000.0001) //     10 ----------------------------------aaaabbbbbbbbbbbbaaaa----------------------------------
(PID.TID 0000.0001) //      9 -----------------------------------aaaaaaaaaaaaaaaaaa-----------------------------------
(PID.TID 0000.0001) //      8 --------------------------------------aaaaaaaaaaaa--------------------------------------
(PID.TID 0000.0001) //      7 ----------------------------------------------------------------------------------------
(PID.TID 0000.0001) //      6 ----------------------------------------------------------------------------------------
(PID.TID 0000.0001) //      5 ----------------------------------------------------------------------------------------
(PID.TID 0000.0001) //      4 ----------------------------------------------------------------------------------------
(PID.TID 0000.0001) //      3 ----------------------------------------------------------------------------------------
(PID.TID 0000.0001) //      2 ----------------------------------------------------------------------------------------
(PID.TID 0000.0001) //      1 ----------------------------------------------------------------------------------------
(PID.TID 0000.0001) //      0 ----------------------------------------------------------------------------------------
(PID.TID 0000.0001) //     -1 ----------------------------------------------------------------------------------------
(PID.TID 0000.0001) // =======================================================
(PID.TID 0000.0001) // END OF FIELD                                          =
(PID.TID 0000.0001) // =======================================================
(PID.TID 0000.0001) 
(PID.TID 0000.0001) // =======================================================
(PID.TID 0000.0001) // Field Model Ro_surf (ini_masks_etc) at iteration          1
(PID.TID 0000.0001) // CMIN =         -2.142730437526552E-14
(PID.TID 0000.0001) // CMAX =         -2.142730437526552E-14
(PID.TID 0000.0001) // CINT =          0.000000000000000E+00
(PID.TID 0000.0001) // SYMBOLS (CMIN->CMAX): -abcdefghijklmnopqrstuvwxyz+
(PID.TID 0000.0001) //                  0.0: .
(PID.TID 0000.0001) // RANGE I (Lo:Hi:Step):(  -1:  82:   1)
(PID.TID 0000.0001) // RANGE J (Lo:Hi:Step):(  44:  -1:  -1)
(PID.TID 0000.0001) // RANGE K (Lo:Hi:Step):(   1:   1:   1)
(PID.TID 0000.0001) // =======================================================
(PID.TID 0000.0001) K =   1
(PID.TID 0000.0001) //                I=8       I=18      I=28      I=38      I=44      I=54      I=64      I=74
(PID.TID 0000.0001) // |--J--|*01234567|901234567|901234567|901234567|901290123|567890123|567890123|567890123|56789012
(PID.TID 0000.0001) //     44 ........................................................................................
(PID.TID 0000.0001) //     43 ........................................................................................
(PID.TID 0000.0001) //     42 ........................................................................................
(PID.TID 0000.0001) //     41 ........................................................................................
(PID.TID 0000.0001) //     40 ........................................................................................
(PID.TID 0000.0001) //     39 ........................................................................................
(PID.TID 0000.0001) //     38 ........................................................................................
(PID.TID 0000.0001) //     37 ........................................................................................
(PID.TID 0000.0001) //     36 ........................................................................................
(PID.TID 0000.0001) //     35 ........................................................................................
(PID.TID 0000.0001) //     34 ........................................................................................
(PID.TID 0000.0001) //     33 ........................................................................................
(PID.TID 0000.0001) //     32 ........................................................................................
(PID.TID 0000.0001) //     31 ........................................................................................
(PID.TID 0000.0001) //     30 ........................................................................................
(PID.TID 0000.0001) //     29 ........................................................................................
(PID.TID 0000.0001) //     28 ........................................................................................
(PID.TID 0000.0001) //     27 ........................................................................................
(PID.TID 0000.0001) //     26 ........................................................................................
(PID.TID 0000.0001) //     25 ........................................................................................
(PID.TID 0000.0001) //     24 ........................................................................................
(PID.TID 0000.0001) //     23 ........................................................................................
(PID.TID 0000.0001) //     22 .........................................--..--.........................................
(PID.TID 0000.0001) //     21 .........................................--..--.........................................
(PID.TID 0000.0001) //     20 ........................................................................................
(PID.TID 0000.0001) //     19 ........................................................................................
(PID.TID 0000.0001) //     18 ........................................................................................
(PID.TID 0000.0001) //     17 ........................................................................................
(PID.TID 0000.0001) //     16 ........................................................................................
(PID.TID 0000.0001) //     15 ........................................................................................
(PID.TID 0000.0001) //     14 ........................................................................................
(PID.TID 0000.0001) //     13 ........................................................................................
(PID.TID 0000.0001) //     12 ........................................................................................
(PID.TID 0000.0001) //     11 ........................................................................................
(PID.TID 0000.0001) //     10 ........................................................................................
(PID.TID 0000.0001) //      9 ........................................................................................
(PID.TID 0000.0001) //      8 ........................................................................................
(PID.TID 0000.0001) //      7 ........................................................................................
(PID.TID 0000.0001) //      6 ........................................................................................
(PID.TID 0000.0001) //      5 ........................................................................................
(PID.TID 0000.0001) //      4 ........................................................................................
(PID.TID 0000.0001) //      3 ........................................................................................
(PID.TID 0000.0001) //      2 ........................................................................................
(PID.TID 0000.0001) //      1 ........................................................................................
(PID.TID 0000.0001) //      0 ........................................................................................
(PID.TID 0000.0001) //     -1 ........................................................................................
(PID.TID 0000.0001) // =======================================================
(PID.TID 0000.0001) // END OF FIELD                                          =
(PID.TID 0000.0001) // =======================================================
(PID.TID 0000.0001) 
(PID.TID 0000.0001) // =======================================================
(PID.TID 0000.0001) // Field hFacC at iteration          1
(PID.TID 0000.0001) // CMIN =          8.716411970059894E-01
(PID.TID 0000.0001) // CMAX =          1.000000000000000E+00
(PID.TID 0000.0001) // CINT =          4.754029740518911E-03
(PID.TID 0000.0001) // SYMBOLS (CMIN->CMAX): -abcdefghijklmnopqrstuvwxyz+
(PID.TID 0000.0001) //                  0.0: .
(PID.TID 0000.0001) // RANGE I (Lo:Hi:Step):(  -1:  82:   1)
(PID.TID 0000.0001) // RANGE J (Lo:Hi:Step):(  44:  -1:  -1)
(PID.TID 0000.0001) // RANGE K (Lo:Hi:Step):(   1:   1:   1)
(PID.TID 0000.0001) // =======================================================
(PID.TID 0000.0001) K =   1
(PID.TID 0000.0001) //                I=8       I=18      I=28      I=38      I=44      I=54      I=64      I=74
(PID.TID 0000.0001) // |--J--|*01234567|901234567|901234567|901234567|901290123|567890123|567890123|567890123|56789012
(PID.TID 0000.0001) //     44 ++++++++++++++++++++++++++++++++++++++++++++++++++++++++++++++++++++++++++++++++++++++++
(PID.TID 0000.0001) //     43 ++++++++++++++++++++++++++++++++++++++++++++++++++++++++++++++++++++++++++++++++++++++++
(PID.TID 0000.0001) //     42 ++++++++++++++++++++++++++++++++++++++++++++++++++++++++++++++++++++++++++++++++++++++++
(PID.TID 0000.0001) //     41 ++++++++++++++++++++++++++++++++++++++++++++++++++++++++++++++++++++++++++++++++++++++++
(PID.TID 0000.0001) //     40 ++++++++++++++++++++++++++++++++++++++++++++++++++++++++++++++++++++++++++++++++++++++++
(PID.TID 0000.0001) //     39 ++++++++++++++++++++++++++++++++++++++++++++++++++++++++++++++++++++++++++++++++++++++++
(PID.TID 0000.0001) //     38 ++++++++++++++++++++++++++++++++++++++++++++++++++++++++++++++++++++++++++++++++++++++++
(PID.TID 0000.0001) //     37 ++++++++++++++++++++++++++++++++++++++++++++++++++++++++++++++++++++++++++++++++++++++++
(PID.TID 0000.0001) //     36 ++++++++++++++++++++++++++++++++++++++++++++++++++++++++++++++++++++++++++++++++++++++++
(PID.TID 0000.0001) //     35 ++++++++++++++++++++++++++++++++++++++++++++++++++++++++++++++++++++++++++++++++++++++++
(PID.TID 0000.0001) //     34 ++++++++++++++++++++++++++++++++++++++++++++++++++++++++++++++++++++++++++++++++++++++++
(PID.TID 0000.0001) //     33 ++++++++++++++++++++++++++++++++++++++++++++++++++++++++++++++++++++++++++++++++++++++++
(PID.TID 0000.0001) //     32 ++++++++++++++++++++++++++++++++++++++++++++++++++++++++++++++++++++++++++++++++++++++++
(PID.TID 0000.0001) //     31 ++++++++++++++++++++++++++++++++++++++++++++++++++++++++++++++++++++++++++++++++++++++++
(PID.TID 0000.0001) //     30 ++++++++++++++++++++++++++++++++++++++++++++++++++++++++++++++++++++++++++++++++++++++++
(PID.TID 0000.0001) //     29 ++++++++++++++++++++++++++++++++++++++++++++++++++++++++++++++++++++++++++++++++++++++++
(PID.TID 0000.0001) //     28 ++++++++++++++++++++++++++++++++++++++++++++++++++++++++++++++++++++++++++++++++++++++++
(PID.TID 0000.0001) //     27 ++++++++++++++++++++++++++++++++++++++++++++++++++++++++++++++++++++++++++++++++++++++++
(PID.TID 0000.0001) //     26 ++++++++++++++++++++++++++++++++++++++++++++++++++++++++++++++++++++++++++++++++++++++++
(PID.TID 0000.0001) //     25 ++++++++++++++++++++++++++++++++++++++++++++++++++++++++++++++++++++++++++++++++++++++++
(PID.TID 0000.0001) //     24 ++++++++++++++++++++++++++++++++++++++++++++++++++++++++++++++++++++++++++++++++++++++++
(PID.TID 0000.0001) //     23 ++++++++++++++++++++++++++++++++++++++++++++++++++++++++++++++++++++++++++++++++++++++++
(PID.TID 0000.0001) //     22 +++++++++++++++++++++++++++++++++++++++++--++--+++++++++++++++++++++++++++++++++++++++++
(PID.TID 0000.0001) //     21 +++++++++++++++++++++++++++++++++++++++++--++--+++++++++++++++++++++++++++++++++++++++++
(PID.TID 0000.0001) //     20 ++++++++++++++++++++++++++++++++++++++++++++++++++++++++++++++++++++++++++++++++++++++++
(PID.TID 0000.0001) //     19 ++++++++++++++++++++++++++++++++++++++++++++++++++++++++++++++++++++++++++++++++++++++++
(PID.TID 0000.0001) //     18 ++++++++++++++++++++++++++++++++++++++++++++++++++++++++++++++++++++++++++++++++++++++++
(PID.TID 0000.0001) //     17 ++++++++++++++++++++++++++++++++++++++++++++++++++++++++++++++++++++++++++++++++++++++++
(PID.TID 0000.0001) //     16 ++++++++++++++++++++++++++++++++++++++++++++++++++++++++++++++++++++++++++++++++++++++++
(PID.TID 0000.0001) //     15 ++++++++++++++++++++++++++++++++++++++++++++++++++++++++++++++++++++++++++++++++++++++++
(PID.TID 0000.0001) //     14 ++++++++++++++++++++++++++++++++++++++++++++++++++++++++++++++++++++++++++++++++++++++++
(PID.TID 0000.0001) //     13 ++++++++++++++++++++++++++++++++++++++++++++++++++++++++++++++++++++++++++++++++++++++++
(PID.TID 0000.0001) //     12 ++++++++++++++++++++++++++++++++++++++++++++++++++++++++++++++++++++++++++++++++++++++++
(PID.TID 0000.0001) //     11 ++++++++++++++++++++++++++++++++++++++++++++++++++++++++++++++++++++++++++++++++++++++++
(PID.TID 0000.0001) //     10 ++++++++++++++++++++++++++++++++++++++++++++++++++++++++++++++++++++++++++++++++++++++++
(PID.TID 0000.0001) //      9 ++++++++++++++++++++++++++++++++++++++++++++++++++++++++++++++++++++++++++++++++++++++++
(PID.TID 0000.0001) //      8 ++++++++++++++++++++++++++++++++++++++++++++++++++++++++++++++++++++++++++++++++++++++++
(PID.TID 0000.0001) //      7 ++++++++++++++++++++++++++++++++++++++++++++++++++++++++++++++++++++++++++++++++++++++++
(PID.TID 0000.0001) //      6 ++++++++++++++++++++++++++++++++++++++++++++++++++++++++++++++++++++++++++++++++++++++++
(PID.TID 0000.0001) //      5 ++++++++++++++++++++++++++++++++++++++++++++++++++++++++++++++++++++++++++++++++++++++++
(PID.TID 0000.0001) //      4 ++++++++++++++++++++++++++++++++++++++++++++++++++++++++++++++++++++++++++++++++++++++++
(PID.TID 0000.0001) //      3 ++++++++++++++++++++++++++++++++++++++++++++++++++++++++++++++++++++++++++++++++++++++++
(PID.TID 0000.0001) //      2 ++++++++++++++++++++++++++++++++++++++++++++++++++++++++++++++++++++++++++++++++++++++++
(PID.TID 0000.0001) //      1 ++++++++++++++++++++++++++++++++++++++++++++++++++++++++++++++++++++++++++++++++++++++++
(PID.TID 0000.0001) //      0 ++++++++++++++++++++++++++++++++++++++++++++++++++++++++++++++++++++++++++++++++++++++++
(PID.TID 0000.0001) //     -1 ++++++++++++++++++++++++++++++++++++++++++++++++++++++++++++++++++++++++++++++++++++++++
(PID.TID 0000.0001) // =======================================================
(PID.TID 0000.0001) // END OF FIELD                                          =
(PID.TID 0000.0001) // =======================================================
(PID.TID 0000.0001) 
(PID.TID 0000.0001) // =======================================================
(PID.TID 0000.0001) // Field hFacW at iteration          1
(PID.TID 0000.0001) // CMIN =          8.716411970059894E-01
(PID.TID 0000.0001) // CMAX =          1.000000000000000E+00
(PID.TID 0000.0001) // CINT =          4.754029740518911E-03
(PID.TID 0000.0001) // SYMBOLS (CMIN->CMAX): -abcdefghijklmnopqrstuvwxyz+
(PID.TID 0000.0001) //                  0.0: .
(PID.TID 0000.0001) // RANGE I (Lo:Hi:Step):(  -1:  82:   1)
(PID.TID 0000.0001) // RANGE J (Lo:Hi:Step):(  44:  -1:  -1)
(PID.TID 0000.0001) // RANGE K (Lo:Hi:Step):(   1:   1:   1)
(PID.TID 0000.0001) // =======================================================
(PID.TID 0000.0001) K =   1
(PID.TID 0000.0001) //                I=8       I=18      I=28      I=38      I=44      I=54      I=64      I=74
(PID.TID 0000.0001) // |--J--|*01234567|901234567|901234567|901234567|901290123|567890123|567890123|567890123|56789012
(PID.TID 0000.0001) //     44 ++++++++++++++++++++++++++++++++++++++++++++++++++++++++++++++++++++++++++++++++++++++++
(PID.TID 0000.0001) //     43 ++++++++++++++++++++++++++++++++++++++++++++++++++++++++++++++++++++++++++++++++++++++++
(PID.TID 0000.0001) //     42 ++++++++++++++++++++++++++++++++++++++++++++++++++++++++++++++++++++++++++++++++++++++++
(PID.TID 0000.0001) //     41 ++++++++++++++++++++++++++++++++++++++++++++++++++++++++++++++++++++++++++++++++++++++++
(PID.TID 0000.0001) //     40 ++++++++++++++++++++++++++++++++++++++++++++++++++++++++++++++++++++++++++++++++++++++++
(PID.TID 0000.0001) //     39 ++++++++++++++++++++++++++++++++++++++++++++++++++++++++++++++++++++++++++++++++++++++++
(PID.TID 0000.0001) //     38 ++++++++++++++++++++++++++++++++++++++++++++++++++++++++++++++++++++++++++++++++++++++++
(PID.TID 0000.0001) //     37 ++++++++++++++++++++++++++++++++++++++++++++++++++++++++++++++++++++++++++++++++++++++++
(PID.TID 0000.0001) //     36 ++++++++++++++++++++++++++++++++++++++++++++++++++++++++++++++++++++++++++++++++++++++++
(PID.TID 0000.0001) //     35 ++++++++++++++++++++++++++++++++++++++++++++++++++++++++++++++++++++++++++++++++++++++++
(PID.TID 0000.0001) //     34 ++++++++++++++++++++++++++++++++++++++++++++++++++++++++++++++++++++++++++++++++++++++++
(PID.TID 0000.0001) //     33 ++++++++++++++++++++++++++++++++++++++++++++++++++++++++++++++++++++++++++++++++++++++++
(PID.TID 0000.0001) //     32 ++++++++++++++++++++++++++++++++++++++++++++++++++++++++++++++++++++++++++++++++++++++++
(PID.TID 0000.0001) //     31 ++++++++++++++++++++++++++++++++++++++++++++++++++++++++++++++++++++++++++++++++++++++++
(PID.TID 0000.0001) //     30 ++++++++++++++++++++++++++++++++++++++++++++++++++++++++++++++++++++++++++++++++++++++++
(PID.TID 0000.0001) //     29 ++++++++++++++++++++++++++++++++++++++++++++++++++++++++++++++++++++++++++++++++++++++++
(PID.TID 0000.0001) //     28 ++++++++++++++++++++++++++++++++++++++++++++++++++++++++++++++++++++++++++++++++++++++++
(PID.TID 0000.0001) //     27 ++++++++++++++++++++++++++++++++++++++++++++++++++++++++++++++++++++++++++++++++++++++++
(PID.TID 0000.0001) //     26 ++++++++++++++++++++++++++++++++++++++++++++++++++++++++++++++++++++++++++++++++++++++++
(PID.TID 0000.0001) //     25 ++++++++++++++++++++++++++++++++++++++++++++++++++++++++++++++++++++++++++++++++++++++++
(PID.TID 0000.0001) //     24 ++++++++++++++++++++++++++++++++++++++++++++++++++++++++++++++++++++++++++++++++++++++++
(PID.TID 0000.0001) //     23 ++++++++++++++++++++++++++++++++++++++++++++++++++++++++++++++++++++++++++++++++++++++++
(PID.TID 0000.0001) //     22 +++++++++++++++++++++++++++++++++++++++++---+---++++++++++++++++++++++++++++++++++++++++
(PID.TID 0000.0001) //     21 +++++++++++++++++++++++++++++++++++++++++---+---++++++++++++++++++++++++++++++++++++++++
(PID.TID 0000.0001) //     20 ++++++++++++++++++++++++++++++++++++++++++++++++++++++++++++++++++++++++++++++++++++++++
(PID.TID 0000.0001) //     19 ++++++++++++++++++++++++++++++++++++++++++++++++++++++++++++++++++++++++++++++++++++++++
(PID.TID 0000.0001) //     18 ++++++++++++++++++++++++++++++++++++++++++++++++++++++++++++++++++++++++++++++++++++++++
(PID.TID 0000.0001) //     17 ++++++++++++++++++++++++++++++++++++++++++++++++++++++++++++++++++++++++++++++++++++++++
(PID.TID 0000.0001) //     16 ++++++++++++++++++++++++++++++++++++++++++++++++++++++++++++++++++++++++++++++++++++++++
(PID.TID 0000.0001) //     15 ++++++++++++++++++++++++++++++++++++++++++++++++++++++++++++++++++++++++++++++++++++++++
(PID.TID 0000.0001) //     14 ++++++++++++++++++++++++++++++++++++++++++++++++++++++++++++++++++++++++++++++++++++++++
(PID.TID 0000.0001) //     13 ++++++++++++++++++++++++++++++++++++++++++++++++++++++++++++++++++++++++++++++++++++++++
(PID.TID 0000.0001) //     12 ++++++++++++++++++++++++++++++++++++++++++++++++++++++++++++++++++++++++++++++++++++++++
(PID.TID 0000.0001) //     11 ++++++++++++++++++++++++++++++++++++++++++++++++++++++++++++++++++++++++++++++++++++++++
(PID.TID 0000.0001) //     10 ++++++++++++++++++++++++++++++++++++++++++++++++++++++++++++++++++++++++++++++++++++++++
(PID.TID 0000.0001) //      9 ++++++++++++++++++++++++++++++++++++++++++++++++++++++++++++++++++++++++++++++++++++++++
(PID.TID 0000.0001) //      8 ++++++++++++++++++++++++++++++++++++++++++++++++++++++++++++++++++++++++++++++++++++++++
(PID.TID 0000.0001) //      7 ++++++++++++++++++++++++++++++++++++++++++++++++++++++++++++++++++++++++++++++++++++++++
(PID.TID 0000.0001) //      6 ++++++++++++++++++++++++++++++++++++++++++++++++++++++++++++++++++++++++++++++++++++++++
(PID.TID 0000.0001) //      5 ++++++++++++++++++++++++++++++++++++++++++++++++++++++++++++++++++++++++++++++++++++++++
(PID.TID 0000.0001) //      4 ++++++++++++++++++++++++++++++++++++++++++++++++++++++++++++++++++++++++++++++++++++++++
(PID.TID 0000.0001) //      3 ++++++++++++++++++++++++++++++++++++++++++++++++++++++++++++++++++++++++++++++++++++++++
(PID.TID 0000.0001) //      2 ++++++++++++++++++++++++++++++++++++++++++++++++++++++++++++++++++++++++++++++++++++++++
(PID.TID 0000.0001) //      1 ++++++++++++++++++++++++++++++++++++++++++++++++++++++++++++++++++++++++++++++++++++++++
(PID.TID 0000.0001) //      0 ++++++++++++++++++++++++++++++++++++++++++++++++++++++++++++++++++++++++++++++++++++++++
(PID.TID 0000.0001) //     -1 ++++++++++++++++++++++++++++++++++++++++++++++++++++++++++++++++++++++++++++++++++++++++
(PID.TID 0000.0001) // =======================================================
(PID.TID 0000.0001) // END OF FIELD                                          =
(PID.TID 0000.0001) // =======================================================
(PID.TID 0000.0001) 
(PID.TID 0000.0001) // =======================================================
(PID.TID 0000.0001) // Field hFacS at iteration          1
(PID.TID 0000.0001) // CMIN =          8.716411970059894E-01
(PID.TID 0000.0001) // CMAX =          1.000000000000000E+00
(PID.TID 0000.0001) // CINT =          4.754029740518911E-03
(PID.TID 0000.0001) // SYMBOLS (CMIN->CMAX): -abcdefghijklmnopqrstuvwxyz+
(PID.TID 0000.0001) //                  0.0: .
(PID.TID 0000.0001) // RANGE I (Lo:Hi:Step):(  -1:  82:   1)
(PID.TID 0000.0001) // RANGE J (Lo:Hi:Step):(  44:  -1:  -1)
(PID.TID 0000.0001) // RANGE K (Lo:Hi:Step):(   1:   1:   1)
(PID.TID 0000.0001) // =======================================================
(PID.TID 0000.0001) K =   1
(PID.TID 0000.0001) //                I=8       I=18      I=28      I=38      I=44      I=54      I=64      I=74
(PID.TID 0000.0001) // |--J--|*01234567|901234567|901234567|901234567|901290123|567890123|567890123|567890123|56789012
(PID.TID 0000.0001) //     44 ++++++++++++++++++++++++++++++++++++++++++++++++++++++++++++++++++++++++++++++++++++++++
(PID.TID 0000.0001) //     43 ++++++++++++++++++++++++++++++++++++++++++++++++++++++++++++++++++++++++++++++++++++++++
(PID.TID 0000.0001) //     42 ++++++++++++++++++++++++++++++++++++++++++++++++++++++++++++++++++++++++++++++++++++++++
(PID.TID 0000.0001) //     41 ++++++++++++++++++++++++++++++++++++++++++++++++++++++++++++++++++++++++++++++++++++++++
(PID.TID 0000.0001) //     40 ++++++++++++++++++++++++++++++++++++++++++++++++++++++++++++++++++++++++++++++++++++++++
(PID.TID 0000.0001) //     39 ++++++++++++++++++++++++++++++++++++++++++++++++++++++++++++++++++++++++++++++++++++++++
(PID.TID 0000.0001) //     38 ++++++++++++++++++++++++++++++++++++++++++++++++++++++++++++++++++++++++++++++++++++++++
(PID.TID 0000.0001) //     37 ++++++++++++++++++++++++++++++++++++++++++++++++++++++++++++++++++++++++++++++++++++++++
(PID.TID 0000.0001) //     36 ++++++++++++++++++++++++++++++++++++++++++++++++++++++++++++++++++++++++++++++++++++++++
(PID.TID 0000.0001) //     35 ++++++++++++++++++++++++++++++++++++++++++++++++++++++++++++++++++++++++++++++++++++++++
(PID.TID 0000.0001) //     34 ++++++++++++++++++++++++++++++++++++++++++++++++++++++++++++++++++++++++++++++++++++++++
(PID.TID 0000.0001) //     33 ++++++++++++++++++++++++++++++++++++++++++++++++++++++++++++++++++++++++++++++++++++++++
(PID.TID 0000.0001) //     32 ++++++++++++++++++++++++++++++++++++++++++++++++++++++++++++++++++++++++++++++++++++++++
(PID.TID 0000.0001) //     31 ++++++++++++++++++++++++++++++++++++++++++++++++++++++++++++++++++++++++++++++++++++++++
(PID.TID 0000.0001) //     30 ++++++++++++++++++++++++++++++++++++++++++++++++++++++++++++++++++++++++++++++++++++++++
(PID.TID 0000.0001) //     29 ++++++++++++++++++++++++++++++++++++++++++++++++++++++++++++++++++++++++++++++++++++++++
(PID.TID 0000.0001) //     28 ++++++++++++++++++++++++++++++++++++++++++++++++++++++++++++++++++++++++++++++++++++++++
(PID.TID 0000.0001) //     27 ++++++++++++++++++++++++++++++++++++++++++++++++++++++++++++++++++++++++++++++++++++++++
(PID.TID 0000.0001) //     26 ++++++++++++++++++++++++++++++++++++++++++++++++++++++++++++++++++++++++++++++++++++++++
(PID.TID 0000.0001) //     25 ++++++++++++++++++++++++++++++++++++++++++++++++++++++++++++++++++++++++++++++++++++++++
(PID.TID 0000.0001) //     24 ++++++++++++++++++++++++++++++++++++++++++++++++++++++++++++++++++++++++++++++++++++++++
(PID.TID 0000.0001) //     23 +++++++++++++++++++++++++++++++++++++++++--++--+++++++++++++++++++++++++++++++++++++++++
(PID.TID 0000.0001) //     22 +++++++++++++++++++++++++++++++++++++++++--++--+++++++++++++++++++++++++++++++++++++++++
(PID.TID 0000.0001) //     21 +++++++++++++++++++++++++++++++++++++++++--++--+++++++++++++++++++++++++++++++++++++++++
(PID.TID 0000.0001) //     20 ++++++++++++++++++++++++++++++++++++++++++++++++++++++++++++++++++++++++++++++++++++++++
(PID.TID 0000.0001) //     19 ++++++++++++++++++++++++++++++++++++++++++++++++++++++++++++++++++++++++++++++++++++++++
(PID.TID 0000.0001) //     18 ++++++++++++++++++++++++++++++++++++++++++++++++++++++++++++++++++++++++++++++++++++++++
(PID.TID 0000.0001) //     17 ++++++++++++++++++++++++++++++++++++++++++++++++++++++++++++++++++++++++++++++++++++++++
(PID.TID 0000.0001) //     16 ++++++++++++++++++++++++++++++++++++++++++++++++++++++++++++++++++++++++++++++++++++++++
(PID.TID 0000.0001) //     15 ++++++++++++++++++++++++++++++++++++++++++++++++++++++++++++++++++++++++++++++++++++++++
(PID.TID 0000.0001) //     14 ++++++++++++++++++++++++++++++++++++++++++++++++++++++++++++++++++++++++++++++++++++++++
(PID.TID 0000.0001) //     13 ++++++++++++++++++++++++++++++++++++++++++++++++++++++++++++++++++++++++++++++++++++++++
(PID.TID 0000.0001) //     12 ++++++++++++++++++++++++++++++++++++++++++++++++++++++++++++++++++++++++++++++++++++++++
(PID.TID 0000.0001) //     11 ++++++++++++++++++++++++++++++++++++++++++++++++++++++++++++++++++++++++++++++++++++++++
(PID.TID 0000.0001) //     10 ++++++++++++++++++++++++++++++++++++++++++++++++++++++++++++++++++++++++++++++++++++++++
(PID.TID 0000.0001) //      9 ++++++++++++++++++++++++++++++++++++++++++++++++++++++++++++++++++++++++++++++++++++++++
(PID.TID 0000.0001) //      8 ++++++++++++++++++++++++++++++++++++++++++++++++++++++++++++++++++++++++++++++++++++++++
(PID.TID 0000.0001) //      7 ++++++++++++++++++++++++++++++++++++++++++++++++++++++++++++++++++++++++++++++++++++++++
(PID.TID 0000.0001) //      6 ++++++++++++++++++++++++++++++++++++++++++++++++++++++++++++++++++++++++++++++++++++++++
(PID.TID 0000.0001) //      5 ++++++++++++++++++++++++++++++++++++++++++++++++++++++++++++++++++++++++++++++++++++++++
(PID.TID 0000.0001) //      4 ++++++++++++++++++++++++++++++++++++++++++++++++++++++++++++++++++++++++++++++++++++++++
(PID.TID 0000.0001) //      3 ++++++++++++++++++++++++++++++++++++++++++++++++++++++++++++++++++++++++++++++++++++++++
(PID.TID 0000.0001) //      2 ++++++++++++++++++++++++++++++++++++++++++++++++++++++++++++++++++++++++++++++++++++++++
(PID.TID 0000.0001) //      1 ++++++++++++++++++++++++++++++++++++++++++++++++++++++++++++++++++++++++++++++++++++++++
(PID.TID 0000.0001) //      0 ++++++++++++++++++++++++++++++++++++++++++++++++++++++++++++++++++++++++++++++++++++++++
(PID.TID 0000.0001) //     -1 ++++++++++++++++++++++++++++++++++++++++++++++++++++++++++++++++++++++++++++++++++++++++
(PID.TID 0000.0001) // =======================================================
(PID.TID 0000.0001) // END OF FIELD                                          =
(PID.TID 0000.0001) // =======================================================
(PID.TID 0000.0001) 
(PID.TID 0000.0001)  PACKAGES_BOOT: opening data.pkg
(PID.TID 0000.0001)  OPEN_COPY_DATA_FILE: opening file data.pkg
(PID.TID 0000.0001) // =======================================================
(PID.TID 0000.0001) // Parameter file "data.pkg"
(PID.TID 0000.0001) // =======================================================
(PID.TID 0000.0001) ># Packages
(PID.TID 0000.0001) > &PACKAGES
(PID.TID 0000.0001) > useOBCS=.TRUE.,
(PID.TID 0000.0001) > &
(PID.TID 0000.0001) 
(PID.TID 0000.0001)  PACKAGES_BOOT: finished reading data.pkg
(PID.TID 0000.0001)  OBCS_READPARMS: opening data.obcs
(PID.TID 0000.0001)  OPEN_COPY_DATA_FILE: opening file data.obcs
(PID.TID 0000.0001) // =======================================================
(PID.TID 0000.0001) // Parameter file "data.obcs"
(PID.TID 0000.0001) // =======================================================
(PID.TID 0000.0001) ># Open-boundaries
(PID.TID 0000.0001) > &OBCS_PARM01
(PID.TID 0000.0001) > OB_Jnorth=80*-1,
(PID.TID 0000.0001) > OB_Jsouth=80*1,
(PID.TID 0000.0001) > OB_Ieast=42*-1,
(PID.TID 0000.0001) > OB_Iwest=42*1,
(PID.TID 0000.0001) >#useOrlanskiNorth=.TRUE.,
(PID.TID 0000.0001) >#useOrlanskiSouth=.TRUE.,
(PID.TID 0000.0001) >#useOrlanskiEast=.TRUE.,
(PID.TID 0000.0001) >#useOrlanskiWest=.FALSE.,
(PID.TID 0000.0001) > &
(PID.TID 0000.0001) >
(PID.TID 0000.0001) ># Orlanski parameters
(PID.TID 0000.0001) > &OBCS_PARM02
(PID.TID 0000.0001) >#Cmax=0.45,
(PID.TID 0000.0001) >#cVelTimeScale=1000.,
(PID.TID 0000.0001) > &
(PID.TID 0000.0001) 
 OB Jn = 42 42 42 42 42 42 42 42 42 42 42 42 42 42 42 42 42 42 42 42 42 42 42 42
 42 42 42 42 42 42 42 42 42 42 42 42 42 42 42 42 42 42 42 42 42 42 42 42 42 42
 42 42 42 42 42 42 42 42 42 42 42 42 42 42 42 42 42 42 42 42 42 42 42 42 42 42
 42 42 42 42
 OB Js = 1 1 1 1 1 1 1 1 1 1 1 1 1 1 1 1 1 1 1 1 1 1 1 1 1 1 1 1 1 1 1 1 1 1 1 1
 1 1 1 1 1 1 1 1 1 1 1 1 1 1 1 1 1 1 1 1 1 1 1 1 1 1 1 1 1 1 1 1 1 1 1 1 1 1 1 1
 1 1 1 1
 OB Ie = 80 80 80 80 80 80 80 80 80 80 80 80 80 80 80 80 80 80 80 80 80 80 80 80
 80 80 80 80 80 80 80 80 80 80 80 80 80 80 80 80 80 80
 OB Iw = 1 1 1 1 1 1 1 1 1 1 1 1 1 1 1 1 1 1 1 1 1 1 1 1 1 1 1 1 1 1 1 1 1 1 1 1
 1 1 1 1 1 1
(PID.TID 0000.0001)  OBCS_READPARMS: finished reading data.obcs
(PID.TID 0000.0001) 
(PID.TID 0000.0001) // ===================================
(PID.TID 0000.0001) // GAD parameters :
(PID.TID 0000.0001) // ===================================
(PID.TID 0000.0001) tempAdvScheme =   /* Temp. advection scheme selector */
(PID.TID 0000.0001)                       2
(PID.TID 0000.0001)     ;
(PID.TID 0000.0001) tempMultiDimAdvec =   /* use Muti-Dim Advec method for Temp */
(PID.TID 0000.0001)                   F
(PID.TID 0000.0001)     ;
(PID.TID 0000.0001) tempAdamsBashforth =   /* use Adams-Bashforth time-stepping for Temp */
(PID.TID 0000.0001)                   T
(PID.TID 0000.0001)     ;
(PID.TID 0000.0001) saltAdvScheme =   /* Salt. advection scheme selector */
(PID.TID 0000.0001)                       2
(PID.TID 0000.0001)     ;
(PID.TID 0000.0001) saltMultiDimAdvec =   /* use Muti-Dim Advec method for Salt */
(PID.TID 0000.0001)                   F
(PID.TID 0000.0001)     ;
(PID.TID 0000.0001) saltAdamsBashforth =   /* use Adams-Bashforth time-stepping for Salt */
(PID.TID 0000.0001)                   T
(PID.TID 0000.0001)     ;
(PID.TID 0000.0001) // ===================================
(PID.TID 0000.0001) OBCS_CHECK: #define ALLOW_OBCS
(PID.TID 0000.0001) OBCS_CHECK: #define ALLOW_ORLANSKI
(PID.TID 0000.0001) OBCS_CHECK: OK
(PID.TID 0000.0001) %MON fCori_max                    =   1.0000000000000E-04
(PID.TID 0000.0001) %MON fCori_min                    =   1.0000000000000E-04
(PID.TID 0000.0001) %MON fCori_mean                   =   9.9999999999994E-05
(PID.TID 0000.0001) %MON fCori_sd                     =   6.1528473288552E-18
(PID.TID 0000.0001) %MON fCoriG_max                   =   1.0000000000000E-04
(PID.TID 0000.0001) %MON fCoriG_min                   =   1.0000000000000E-04
(PID.TID 0000.0001) %MON fCoriG_mean                  =   9.9999999999994E-05
(PID.TID 0000.0001) %MON fCoriG_sd                    =   6.1528473288552E-18
(PID.TID 0000.0001) %MON fCoriCos_max                 =   0.0000000000000E+00
(PID.TID 0000.0001) %MON fCoriCos_min                 =   0.0000000000000E+00
(PID.TID 0000.0001) %MON fCoriCos_mean                =   0.0000000000000E+00
(PID.TID 0000.0001) %MON fCoriCos_sd                  =   0.0000000000000E+00
(PID.TID 0000.0001) // CG2D normalisation factor =          0.2222222222222222328714969E-03
(PID.TID 0000.0001) 
(PID.TID 0000.0001) // CG3D normalisation factor =          0.2249999999999999802892045E-04
(PID.TID 0000.0001) 
(PID.TID 0000.0001) CONFIG_CHECK: OK
(PID.TID 0000.0001) // =======================================================
(PID.TID 0000.0001) // Model configuration
(PID.TID 0000.0001) // =======================================================
(PID.TID 0000.0001) //
(PID.TID 0000.0001) // "Physical" paramters ( PARM01 in namelist )
(PID.TID 0000.0001) //
(PID.TID 0000.0001) buoyancyRelation = OCEANIC
(PID.TID 0000.0001) tRef =   /* Reference temperature profile ( oC or oK ) */
(PID.TID 0000.0001)                 6.968340000000000E-01,      /* K =  1 */
(PID.TID 0000.0001)                 4.977380000000000E-01,      /* K =  2 */
(PID.TID 0000.0001)                 2.986430000000000E-01,      /* K =  3 */
(PID.TID 0000.0001)                 9.954770000000000E-02,      /* K =  4 */
(PID.TID 0000.0001)                -9.954770000000000E-02,      /* K =  5 */
(PID.TID 0000.0001)                -2.986430000000000E-01,      /* K =  6 */
(PID.TID 0000.0001)                -4.977380000000000E-01,      /* K =  7 */
(PID.TID 0000.0001)                -6.968340000000000E-01       /* K =  8 */
(PID.TID 0000.0001)     ;
(PID.TID 0000.0001) sRef =   /* Reference salinity profile ( ppt ) */
(PID.TID 0000.0001)     8 @  3.500000000000000E+01              /* K =  1:  8 */
(PID.TID 0000.0001)     ;
(PID.TID 0000.0001) viscAh =   /* Lateral eddy viscosity ( m^2/s ) */
(PID.TID 0000.0001)                 1.000000000000000E+03
(PID.TID 0000.0001)     ;
(PID.TID 0000.0001) viscAh =   /* Lateral biharmonic viscosity ( m^4/s ) */
(PID.TID 0000.0001)                 0.000000000000000E+00
(PID.TID 0000.0001)     ;
(PID.TID 0000.0001) no_slip_sides =  /* Viscous BCs: No-slip sides */
(PID.TID 0000.0001)                   F
(PID.TID 0000.0001)     ;
(PID.TID 0000.0001) viscAr =   /* Vertical eddy viscosity ( units of r^2/s ) */
(PID.TID 0000.0001)                 1.000000000000000E-03
(PID.TID 0000.0001)     ;
(PID.TID 0000.0001) diffKhT =   /* Laplacian diffusion of heat laterally ( m^2/s ) */
(PID.TID 0000.0001)                 1.000000000000000E+03
(PID.TID 0000.0001)     ;
(PID.TID 0000.0001) diffK4T =   /* Bihaarmonic diffusion of heat laterally ( m^4/s ) */
(PID.TID 0000.0001)                 0.000000000000000E+00
(PID.TID 0000.0001)     ;
(PID.TID 0000.0001) diffKrT =   /* Laplacian diffusion of heat vertically ( m^2/s ) */
(PID.TID 0000.0001)                 1.000000000000000E-05
(PID.TID 0000.0001)     ;
(PID.TID 0000.0001) diffKhS =   /* Laplacian diffusion of salt laterally ( m^2/s ) */
(PID.TID 0000.0001)                 1.000000000000000E+03
(PID.TID 0000.0001)     ;
(PID.TID 0000.0001) diffK4S =   /* Bihaarmonic diffusion of salt laterally ( m^4/s ) */
(PID.TID 0000.0001)                 0.000000000000000E+00
(PID.TID 0000.0001)     ;
(PID.TID 0000.0001) diffKrS =   /* Laplacian diffusion of salt vertically ( m^2/s ) */
(PID.TID 0000.0001)                 1.000000000000000E-05
(PID.TID 0000.0001)     ;
(PID.TID 0000.0001)  Equation of State : eosType = LINEAR
(PID.TID 0000.0001) tAlpha =   /* Linear EOS thermal expansion coefficient ( 1/degree ) */
(PID.TID 0000.0001)                 2.000000000000000E-04
(PID.TID 0000.0001)     ;
(PID.TID 0000.0001) sBeta =   /* Linear EOS haline contraction coefficient ( 1/ppt ) */
(PID.TID 0000.0001)                 0.000000000000000E+00
(PID.TID 0000.0001)     ;
(PID.TID 0000.0001) rhonil =   /* Reference density ( kg/m^3 ) */
(PID.TID 0000.0001)                 9.998000000000000E+02
(PID.TID 0000.0001)     ;
(PID.TID 0000.0001) rhoConst =   /* Reference density ( kg/m^3 ) */
(PID.TID 0000.0001)                 9.998000000000000E+02
(PID.TID 0000.0001)     ;
(PID.TID 0000.0001) rhoConstFresh =   /* Reference density ( kg/m^3 ) */
(PID.TID 0000.0001)                 9.998000000000000E+02
(PID.TID 0000.0001)     ;
(PID.TID 0000.0001) gravity =   /* Gravitational acceleration ( m/s^2 ) */
(PID.TID 0000.0001)                 9.810000000000000E+00
(PID.TID 0000.0001)     ;
(PID.TID 0000.0001) gBaro =   /* Barotropic gravity ( m/s^2 ) */
(PID.TID 0000.0001)                 9.810000000000000E+00
(PID.TID 0000.0001)     ;
(PID.TID 0000.0001) rotationPeriod =   /* Rotation Period ( s ) */
(PID.TID 0000.0001)                 8.640000000000000E+04
(PID.TID 0000.0001)     ;
(PID.TID 0000.0001) omega =   /* Angular velocity ( rad/s ) */
(PID.TID 0000.0001)                 7.272205216643040E-05
(PID.TID 0000.0001)     ;
(PID.TID 0000.0001) f0 =   /* Reference coriolis parameter ( 1/s ) */
(PID.TID 0000.0001)                 1.000000000000000E-04
(PID.TID 0000.0001)     ;
(PID.TID 0000.0001) beta =   /* Beta ( 1/(m.s) ) */
(PID.TID 0000.0001)                 0.000000000000000E+00
(PID.TID 0000.0001)     ;
(PID.TID 0000.0001) freeSurfFac =   /* Implicit free surface factor */
(PID.TID 0000.0001)                 1.000000000000000E+00
(PID.TID 0000.0001)     ;
(PID.TID 0000.0001) implicitFreeSurface =   /* Implicit free surface on/off flag */
(PID.TID 0000.0001)                   T
(PID.TID 0000.0001)     ;
(PID.TID 0000.0001) rigidLid =   /* Rigid lid on/off flag */
(PID.TID 0000.0001)                   F
(PID.TID 0000.0001)     ;
(PID.TID 0000.0001) implicSurfPress =   /* Surface Pressure implicit factor (0-1)*/
(PID.TID 0000.0001)                 1.000000000000000E+00
(PID.TID 0000.0001)     ;
(PID.TID 0000.0001) implicDiv2Dflow =   /* Barot. Flow Div. implicit factor (0-1)*/
(PID.TID 0000.0001)                 1.000000000000000E+00
(PID.TID 0000.0001)     ;
(PID.TID 0000.0001) exactConserv =   /* Exact Volume Conservation on/off flag*/
(PID.TID 0000.0001)                   F
(PID.TID 0000.0001)     ;
(PID.TID 0000.0001) uniformLin_PhiSurf =   /* use uniform Bo_surf on/off flag*/
(PID.TID 0000.0001)                   T
(PID.TID 0000.0001)     ;
(PID.TID 0000.0001) nonlinFreeSurf =   /* Non-linear Free Surf. options (-1,0,1,2,3)*/
(PID.TID 0000.0001)                       0
(PID.TID 0000.0001)     ;
(PID.TID 0000.0001)      -1,0= Off ; 1,2,3= On, 2=+rescale gU,gV, 3=+update cg2d solv.
(PID.TID 0000.0001) hFacInf =   /* lower threshold for hFac (nonlinFreeSurf only)*/
(PID.TID 0000.0001)                 2.000000000000000E-01
(PID.TID 0000.0001)     ;
(PID.TID 0000.0001) hFacSup =   /* upper threshold for hFac (nonlinFreeSurf only)*/
(PID.TID 0000.0001)                 2.000000000000000E+00
(PID.TID 0000.0001)     ;
(PID.TID 0000.0001) select_rStar =   /* r* Coordinate options (not yet implemented)*/
(PID.TID 0000.0001)                       0
(PID.TID 0000.0001)     ;
(PID.TID 0000.0001) useRealFreshWaterFlux =   /* Real Fresh Water Flux on/off flag*/
(PID.TID 0000.0001)                   F
(PID.TID 0000.0001)     ;
(PID.TID 0000.0001) convertFW2Salt = /* convert F.W. Flux to Salt Flux (-1=use local S)(ppt)*/
(PID.TID 0000.0001)                 3.500000000000000E+01
(PID.TID 0000.0001)     ;
(PID.TID 0000.0001) multiDimAdvection =   /* enable/disable Multi-Dim Advection */
(PID.TID 0000.0001)                   T
(PID.TID 0000.0001)     ;
(PID.TID 0000.0001) staggerTimeStep =   /* Stagger time stepping on/off flag */
(PID.TID 0000.0001)                   F
(PID.TID 0000.0001)     ;
(PID.TID 0000.0001) momStepping =  /* Momentum equation on/off flag */
(PID.TID 0000.0001)                   T
(PID.TID 0000.0001)     ;
(PID.TID 0000.0001) momAdvection =  /* Momentum advection on/off flag */
(PID.TID 0000.0001)                   T
(PID.TID 0000.0001)     ;
(PID.TID 0000.0001) momViscosity =  /* Momentum viscosity on/off flag */
(PID.TID 0000.0001)                   T
(PID.TID 0000.0001)     ;
(PID.TID 0000.0001) useCoriolis =  /* Coriolis on/off flag */
(PID.TID 0000.0001)                   T
(PID.TID 0000.0001)     ;
(PID.TID 0000.0001) momForcing =  /* Momentum forcing on/off flag */
(PID.TID 0000.0001)                   T
(PID.TID 0000.0001)     ;
(PID.TID 0000.0001) momPressureForcing =  /* Momentum pressure term on/off flag */
(PID.TID 0000.0001)                   T
(PID.TID 0000.0001)     ;
(PID.TID 0000.0001) tempStepping =  /* Temperature equation on/off flag */
(PID.TID 0000.0001)                   T
(PID.TID 0000.0001)     ;
(PID.TID 0000.0001) tempAdvection=  /* Temperature advection on/off flag */
(PID.TID 0000.0001)                   T
(PID.TID 0000.0001)     ;
(PID.TID 0000.0001) tempForcing  =  /* Temperature forcing on/off flag */
(PID.TID 0000.0001)                   T
(PID.TID 0000.0001)     ;
(PID.TID 0000.0001) saltStepping =  /* Salinity equation on/off flag */
(PID.TID 0000.0001)                   T
(PID.TID 0000.0001)     ;
(PID.TID 0000.0001) saltAdvection=  /* Salinity advection on/off flag */
(PID.TID 0000.0001)                   T
(PID.TID 0000.0001)     ;
(PID.TID 0000.0001) saltForcing  =  /* Salinity forcing on/off flag */
(PID.TID 0000.0001)                   T
(PID.TID 0000.0001)     ;
(PID.TID 0000.0001) nonHydrostatic =  /* Non-Hydrostatic on/off flag */
(PID.TID 0000.0001)                   F
(PID.TID 0000.0001)     ;
(PID.TID 0000.0001) useCDscheme =  /* CD scheme on/off flag */
(PID.TID 0000.0001)                   F
(PID.TID 0000.0001)     ;
(PID.TID 0000.0001) useJamartWetPoints= /* Coriolis WetPoints method flag */
(PID.TID 0000.0001)                   F
(PID.TID 0000.0001)     ;
(PID.TID 0000.0001) //
(PID.TID 0000.0001) // Elliptic solver(s) paramters ( PARM02 in namelist )
(PID.TID 0000.0001) //
(PID.TID 0000.0001) cg2dMaxIters =   /* Upper limit on 2d con. grad iterations  */
(PID.TID 0000.0001)                    1000
(PID.TID 0000.0001)     ;
(PID.TID 0000.0001) cg2dChkResFreq =   /* 2d con. grad convergence test frequency */
(PID.TID 0000.0001)                       1
(PID.TID 0000.0001)     ;
(PID.TID 0000.0001) cg2dTargetResidual =   /* 2d con. grad target residual  */
(PID.TID 0000.0001)                 1.000000000000000E-13
(PID.TID 0000.0001)     ;
(PID.TID 0000.0001) //
(PID.TID 0000.0001) // Time stepping paramters ( PARM03 in namelist )
(PID.TID 0000.0001) //
(PID.TID 0000.0001) nIter0 =   /* Base timestep number  */
(PID.TID 0000.0001)                       0
(PID.TID 0000.0001)     ;
(PID.TID 0000.0001) nTimeSteps =   /* Number of timesteps */
(PID.TID 0000.0001)                      10
(PID.TID 0000.0001)     ;
(PID.TID 0000.0001) deltatTmom =   /* Momentum equation timestep ( s ) */
(PID.TID 0000.0001)                 6.000000000000000E+02
(PID.TID 0000.0001)     ;
(PID.TID 0000.0001) deltaTfreesurf =   /* FreeSurface equation timestep ( s ) */
(PID.TID 0000.0001)                 6.000000000000000E+02
(PID.TID 0000.0001)     ;
(PID.TID 0000.0001) deltatTtracer =   /* Tracer equation timestep ( s ) */
(PID.TID 0000.0001)                 6.000000000000000E+02
(PID.TID 0000.0001)     ;
(PID.TID 0000.0001) deltatTClock  =   /* Model clock timestep ( s ) */
(PID.TID 0000.0001)                 6.000000000000000E+02
(PID.TID 0000.0001)     ;
(PID.TID 0000.0001) cAdjFreq =   /* Convective adjustment interval ( s ) */
(PID.TID 0000.0001)                 0.000000000000000E+00
(PID.TID 0000.0001)     ;
(PID.TID 0000.0001) forcing_In_AB =   /* put T,S Forcing in Adams-Bash. stepping */
(PID.TID 0000.0001)                   T
(PID.TID 0000.0001)     ;
(PID.TID 0000.0001) abeps =   /* Adams-Bashforth stabilizing weight */
(PID.TID 0000.0001)                 1.000000000000000E-01
(PID.TID 0000.0001)     ;
(PID.TID 0000.0001) startTime =   /* Run start time ( s ). */
(PID.TID 0000.0001)                 0.000000000000000E+00
(PID.TID 0000.0001)     ;
(PID.TID 0000.0001) endTime =   /* Integration ending time ( s ). */
(PID.TID 0000.0001)                 6.000000000000000E+03
(PID.TID 0000.0001)     ;
(PID.TID 0000.0001) pChkPtFreq =   /* Permanent restart/checkpoint file interval ( s ). */
(PID.TID 0000.0001)                 3.000000000000000E+03
(PID.TID 0000.0001)     ;
(PID.TID 0000.0001) chkPtFreq =   /* Rolling restart/checkpoint file interval ( s ). */
(PID.TID 0000.0001)                 0.000000000000000E+00
(PID.TID 0000.0001)     ;
(PID.TID 0000.0001) dumpFreq =   /* Model state write out interval ( s ). */
(PID.TID 0000.0001)                 1.080000000000000E+04
(PID.TID 0000.0001)     ;
(PID.TID 0000.0001) externForcingPeriod =   /* forcing period (s) */
(PID.TID 0000.0001)                 0.000000000000000E+00
(PID.TID 0000.0001)     ;
(PID.TID 0000.0001) externForcingCycle =   /* period of the cyle (s). */
(PID.TID 0000.0001)                 0.000000000000000E+00
(PID.TID 0000.0001)     ;
(PID.TID 0000.0001) tauThetaClimRelax =   /* relaxation time scale (s) */
(PID.TID 0000.0001)                 0.000000000000000E+00
(PID.TID 0000.0001)     ;
(PID.TID 0000.0001) tauSaltClimRelax =   /* relaxation time scale (s) */
(PID.TID 0000.0001)                 0.000000000000000E+00
(PID.TID 0000.0001)     ;
(PID.TID 0000.0001) latBandClimRelax =   /* max. Lat. where relaxation */
(PID.TID 0000.0001)                 8.820000000000000E+06
(PID.TID 0000.0001)     ;
(PID.TID 0000.0001) //
(PID.TID 0000.0001) // Gridding paramters ( PARM04 in namelist )
(PID.TID 0000.0001) //
(PID.TID 0000.0001) usingCartesianGrid =   /* Cartesian coordinates flag ( True / False ) */
(PID.TID 0000.0001)                   T
(PID.TID 0000.0001)     ;
(PID.TID 0000.0001) usingSphericalPolarGrid =   /* Spherical coordinates flag ( True / False ) */
(PID.TID 0000.0001)                   F
(PID.TID 0000.0001)     ;
(PID.TID 0000.0001) groundAtK1 =   /* Lower Boundary (ground) at the surface(k=1) ( T / F ) */
(PID.TID 0000.0001)                   F
(PID.TID 0000.0001)     ;
(PID.TID 0000.0001) Ro_SeaLevel =   /* r(1) ( units of r ) */
(PID.TID 0000.0001)                 0.000000000000000E+00
(PID.TID 0000.0001)     ;
(PID.TID 0000.0001) rkFac =   /* minus Vertical index orientation  */
(PID.TID 0000.0001)                 1.000000000000000E+00
(PID.TID 0000.0001)     ;
(PID.TID 0000.0001) horiVertRatio =   /* Ratio on units : Horiz - Vertical */
(PID.TID 0000.0001)                 1.000000000000000E+00
(PID.TID 0000.0001)     ;
(PID.TID 0000.0001) drC =   /* C spacing ( units of r ) */
(PID.TID 0000.0001)                 2.812500000000000E+02,      /* K =  1 */
(PID.TID 0000.0001)     7 @  5.625000000000000E+02              /* K =  2:  8 */
(PID.TID 0000.0001)     ;
(PID.TID 0000.0001) drF =   /* W spacing ( units of r ) */
(PID.TID 0000.0001)     8 @  5.625000000000000E+02              /* K =  1:  8 */
(PID.TID 0000.0001)     ;
(PID.TID 0000.0001) delX =   /* U spacing ( m - cartesian, degrees - spherical ) */
(PID.TID 0000.0001)    80 @  5.000000000000000E+03              /* I =  1: 80 */
(PID.TID 0000.0001)     ;
(PID.TID 0000.0001) delY =   /* V spacing ( m - cartesian, degrees - spherical ) */
(PID.TID 0000.0001)    42 @  5.000000000000000E+03              /* J =  1: 42 */
(PID.TID 0000.0001)     ;
(PID.TID 0000.0001) phiMin =    /* South edge (ignored - cartesian, degrees - spherical ) */
(PID.TID 0000.0001)                 0.000000000000000E+00
(PID.TID 0000.0001)     ;
(PID.TID 0000.0001) thetaMin =    /* West edge ( ignored - cartesian, degrees - spherical ) */
(PID.TID 0000.0001)                 0.000000000000000E+00
(PID.TID 0000.0001)     ;
(PID.TID 0000.0001) rSphere =    /* Radius ( ignored - cartesian, m - spherical ) */
(PID.TID 0000.0001)                 6.370000000000000E+06
(PID.TID 0000.0001)     ;
(PID.TID 0000.0001) xcoord =   /* P-point X coord ( m - cartesian, degrees - spherical ) */
(PID.TID 0000.0001)                 2.500000000000000E+03,      /* I =  1 */
(PID.TID 0000.0001)                 7.500000000000000E+03,      /* I =  2 */
(PID.TID 0000.0001)                 1.250000000000000E+04,      /* I =  3 */
(PID.TID 0000.0001)                 1.750000000000000E+04,      /* I =  4 */
(PID.TID 0000.0001)                 2.250000000000000E+04,      /* I =  5 */
(PID.TID 0000.0001)                 2.750000000000000E+04,      /* I =  6 */
(PID.TID 0000.0001)                 3.250000000000000E+04,      /* I =  7 */
(PID.TID 0000.0001)                 3.750000000000000E+04,      /* I =  8 */
(PID.TID 0000.0001)                 4.250000000000000E+04,      /* I =  9 */
(PID.TID 0000.0001)                 4.750000000000000E+04,      /* I = 10 */
(PID.TID 0000.0001)                 5.250000000000000E+04,      /* I = 11 */
(PID.TID 0000.0001)                 5.750000000000000E+04,      /* I = 12 */
(PID.TID 0000.0001)                 6.250000000000000E+04,      /* I = 13 */
(PID.TID 0000.0001)                 6.750000000000000E+04,      /* I = 14 */
(PID.TID 0000.0001)                 7.250000000000000E+04,      /* I = 15 */
(PID.TID 0000.0001)                 7.750000000000000E+04,      /* I = 16 */
(PID.TID 0000.0001)                 8.250000000000000E+04,      /* I = 17 */
(PID.TID 0000.0001)                 8.750000000000000E+04,      /* I = 18 */
(PID.TID 0000.0001)                 9.250000000000000E+04,      /* I = 19 */
(PID.TID 0000.0001)                 9.750000000000000E+04,      /* I = 20 */
(PID.TID 0000.0001)                 1.025000000000000E+05,      /* I = 21 */
(PID.TID 0000.0001)                 1.075000000000000E+05,      /* I = 22 */
(PID.TID 0000.0001)                 1.125000000000000E+05,      /* I = 23 */
(PID.TID 0000.0001)                 1.175000000000000E+05,      /* I = 24 */
(PID.TID 0000.0001)                 1.225000000000000E+05,      /* I = 25 */
(PID.TID 0000.0001)                 1.275000000000000E+05,      /* I = 26 */
(PID.TID 0000.0001)                 1.325000000000000E+05,      /* I = 27 */
(PID.TID 0000.0001)                 1.375000000000000E+05,      /* I = 28 */
(PID.TID 0000.0001)                 1.425000000000000E+05,      /* I = 29 */
(PID.TID 0000.0001)                 1.475000000000000E+05,      /* I = 30 */
(PID.TID 0000.0001)                 1.525000000000000E+05,      /* I = 31 */
(PID.TID 0000.0001)                 1.575000000000000E+05,      /* I = 32 */
(PID.TID 0000.0001)                 1.625000000000000E+05,      /* I = 33 */
(PID.TID 0000.0001)                 1.675000000000000E+05,      /* I = 34 */
(PID.TID 0000.0001)                 1.725000000000000E+05,      /* I = 35 */
(PID.TID 0000.0001)                 1.775000000000000E+05,      /* I = 36 */
(PID.TID 0000.0001)                 1.825000000000000E+05,      /* I = 37 */
(PID.TID 0000.0001)                 1.875000000000000E+05,      /* I = 38 */
(PID.TID 0000.0001)                 1.925000000000000E+05,      /* I = 39 */
(PID.TID 0000.0001)                 1.975000000000000E+05,      /* I = 40 */
(PID.TID 0000.0001)                 2.025000000000000E+05,      /* I = 41 */
(PID.TID 0000.0001)                 2.075000000000000E+05,      /* I = 42 */
(PID.TID 0000.0001)                 2.125000000000000E+05,      /* I = 43 */
(PID.TID 0000.0001)                 2.175000000000000E+05,      /* I = 44 */
(PID.TID 0000.0001)                 2.225000000000000E+05,      /* I = 45 */
(PID.TID 0000.0001)                 2.275000000000000E+05,      /* I = 46 */
(PID.TID 0000.0001)                 2.325000000000000E+05,      /* I = 47 */
(PID.TID 0000.0001)                 2.375000000000000E+05,      /* I = 48 */
(PID.TID 0000.0001)                 2.425000000000000E+05,      /* I = 49 */
(PID.TID 0000.0001)                 2.475000000000000E+05,      /* I = 50 */
(PID.TID 0000.0001)                 2.525000000000000E+05,      /* I = 51 */
(PID.TID 0000.0001)                 2.575000000000000E+05,      /* I = 52 */
(PID.TID 0000.0001)                 2.625000000000000E+05,      /* I = 53 */
(PID.TID 0000.0001)                 2.675000000000000E+05,      /* I = 54 */
(PID.TID 0000.0001)                 2.725000000000000E+05,      /* I = 55 */
(PID.TID 0000.0001)                 2.775000000000000E+05,      /* I = 56 */
(PID.TID 0000.0001)                 2.825000000000000E+05,      /* I = 57 */
(PID.TID 0000.0001)                 2.875000000000000E+05,      /* I = 58 */
(PID.TID 0000.0001)                 2.925000000000000E+05,      /* I = 59 */
(PID.TID 0000.0001)                 2.975000000000000E+05,      /* I = 60 */
(PID.TID 0000.0001)                 3.025000000000000E+05,      /* I = 61 */
(PID.TID 0000.0001)                 3.075000000000000E+05,      /* I = 62 */
(PID.TID 0000.0001)                 3.125000000000000E+05,      /* I = 63 */
(PID.TID 0000.0001)                 3.175000000000000E+05,      /* I = 64 */
(PID.TID 0000.0001)                 3.225000000000000E+05,      /* I = 65 */
(PID.TID 0000.0001)                 3.275000000000000E+05,      /* I = 66 */
(PID.TID 0000.0001)                 3.325000000000000E+05,      /* I = 67 */
(PID.TID 0000.0001)                 3.375000000000000E+05,      /* I = 68 */
(PID.TID 0000.0001)                 3.425000000000000E+05,      /* I = 69 */
(PID.TID 0000.0001)                 3.475000000000000E+05,      /* I = 70 */
(PID.TID 0000.0001)                 3.525000000000000E+05,      /* I = 71 */
(PID.TID 0000.0001)                 3.575000000000000E+05,      /* I = 72 */
(PID.TID 0000.0001)                 3.625000000000000E+05,      /* I = 73 */
(PID.TID 0000.0001)                 3.675000000000000E+05,      /* I = 74 */
(PID.TID 0000.0001)                 3.725000000000000E+05,      /* I = 75 */
(PID.TID 0000.0001)                 3.775000000000000E+05,      /* I = 76 */
(PID.TID 0000.0001)                 3.825000000000000E+05,      /* I = 77 */
(PID.TID 0000.0001)                 3.875000000000000E+05,      /* I = 78 */
(PID.TID 0000.0001)                 3.925000000000000E+05,      /* I = 79 */
(PID.TID 0000.0001)                 3.975000000000000E+05       /* I = 80 */
(PID.TID 0000.0001)     ;
(PID.TID 0000.0001) ycoord =   /* P-point Y coord ( m - cartesian, degrees - spherical ) */
(PID.TID 0000.0001)                 2.500000000000000E+03,      /* J =  1 */
(PID.TID 0000.0001)                 7.500000000000000E+03,      /* J =  2 */
(PID.TID 0000.0001)                 1.250000000000000E+04,      /* J =  3 */
(PID.TID 0000.0001)                 1.750000000000000E+04,      /* J =  4 */
(PID.TID 0000.0001)                 2.250000000000000E+04,      /* J =  5 */
(PID.TID 0000.0001)                 2.750000000000000E+04,      /* J =  6 */
(PID.TID 0000.0001)                 3.250000000000000E+04,      /* J =  7 */
(PID.TID 0000.0001)                 3.750000000000000E+04,      /* J =  8 */
(PID.TID 0000.0001)                 4.250000000000000E+04,      /* J =  9 */
(PID.TID 0000.0001)                 4.750000000000000E+04,      /* J = 10 */
(PID.TID 0000.0001)                 5.250000000000000E+04,      /* J = 11 */
(PID.TID 0000.0001)                 5.750000000000000E+04,      /* J = 12 */
(PID.TID 0000.0001)                 6.250000000000000E+04,      /* J = 13 */
(PID.TID 0000.0001)                 6.750000000000000E+04,      /* J = 14 */
(PID.TID 0000.0001)                 7.250000000000000E+04,      /* J = 15 */
(PID.TID 0000.0001)                 7.750000000000000E+04,      /* J = 16 */
(PID.TID 0000.0001)                 8.250000000000000E+04,      /* J = 17 */
(PID.TID 0000.0001)                 8.750000000000000E+04,      /* J = 18 */
(PID.TID 0000.0001)                 9.250000000000000E+04,      /* J = 19 */
(PID.TID 0000.0001)                 9.750000000000000E+04,      /* J = 20 */
(PID.TID 0000.0001)                 1.025000000000000E+05,      /* J = 21 */
(PID.TID 0000.0001)                 1.075000000000000E+05,      /* J = 22 */
(PID.TID 0000.0001)                 1.125000000000000E+05,      /* J = 23 */
(PID.TID 0000.0001)                 1.175000000000000E+05,      /* J = 24 */
(PID.TID 0000.0001)                 1.225000000000000E+05,      /* J = 25 */
(PID.TID 0000.0001)                 1.275000000000000E+05,      /* J = 26 */
(PID.TID 0000.0001)                 1.325000000000000E+05,      /* J = 27 */
(PID.TID 0000.0001)                 1.375000000000000E+05,      /* J = 28 */
(PID.TID 0000.0001)                 1.425000000000000E+05,      /* J = 29 */
(PID.TID 0000.0001)                 1.475000000000000E+05,      /* J = 30 */
(PID.TID 0000.0001)                 1.525000000000000E+05,      /* J = 31 */
(PID.TID 0000.0001)                 1.575000000000000E+05,      /* J = 32 */
(PID.TID 0000.0001)                 1.625000000000000E+05,      /* J = 33 */
(PID.TID 0000.0001)                 1.675000000000000E+05,      /* J = 34 */
(PID.TID 0000.0001)                 1.725000000000000E+05,      /* J = 35 */
(PID.TID 0000.0001)                 1.775000000000000E+05,      /* J = 36 */
(PID.TID 0000.0001)                 1.825000000000000E+05,      /* J = 37 */
(PID.TID 0000.0001)                 1.875000000000000E+05,      /* J = 38 */
(PID.TID 0000.0001)                 1.925000000000000E+05,      /* J = 39 */
(PID.TID 0000.0001)                 1.975000000000000E+05,      /* J = 40 */
(PID.TID 0000.0001)                 2.025000000000000E+05,      /* J = 41 */
(PID.TID 0000.0001)                 2.075000000000000E+05       /* J = 42 */
(PID.TID 0000.0001)     ;
(PID.TID 0000.0001) rcoord =   /* P-point R coordinate (  units of r ) */
(PID.TID 0000.0001)                -2.812500000000000E+02,      /* K =  1 */
(PID.TID 0000.0001)                -8.437500000000000E+02,      /* K =  2 */
(PID.TID 0000.0001)                -1.406250000000000E+03,      /* K =  3 */
(PID.TID 0000.0001)                -1.968750000000000E+03,      /* K =  4 */
(PID.TID 0000.0001)                -2.531250000000000E+03,      /* K =  5 */
(PID.TID 0000.0001)                -3.093750000000000E+03,      /* K =  6 */
(PID.TID 0000.0001)                -3.656250000000000E+03,      /* K =  7 */
(PID.TID 0000.0001)                -4.218750000000000E+03       /* K =  8 */
(PID.TID 0000.0001)     ;
(PID.TID 0000.0001) rF =   /* W-Interf. R coordinate (  units of r ) */
(PID.TID 0000.0001)                 0.000000000000000E+00,      /* K =  1 */
(PID.TID 0000.0001)                -5.625000000000000E+02,      /* K =  2 */
(PID.TID 0000.0001)                -1.125000000000000E+03,      /* K =  3 */
(PID.TID 0000.0001)                -1.687500000000000E+03,      /* K =  4 */
(PID.TID 0000.0001)                -2.250000000000000E+03,      /* K =  5 */
(PID.TID 0000.0001)                -2.812500000000000E+03,      /* K =  6 */
(PID.TID 0000.0001)                -3.375000000000000E+03,      /* K =  7 */
(PID.TID 0000.0001)                -3.937500000000000E+03,      /* K =  8 */
(PID.TID 0000.0001)                -4.500000000000000E+03       /* K =  9 */
(PID.TID 0000.0001)     ;
(PID.TID 0000.0001) dxF =  /* dxF(:,1,:,1) ( m - cartesian, degrees - spherical ) */
(PID.TID 0000.0001)    80 @  5.000000000000000E+03              /* I =  1: 80 */
(PID.TID 0000.0001)     ;
(PID.TID 0000.0001) dxF =  /* dxF(1,:,1,:) ( m - cartesian, degrees - spherical ) */
(PID.TID 0000.0001)    42 @  5.000000000000000E+03              /* J =  1: 42 */
(PID.TID 0000.0001)     ;
(PID.TID 0000.0001) dyF =  /* dyF(:,1,:,1) ( m - cartesian, degrees - spherical ) */
(PID.TID 0000.0001)    80 @  5.000000000000000E+03              /* I =  1: 80 */
(PID.TID 0000.0001)     ;
(PID.TID 0000.0001) dyF =  /* dyF(1,:,1,:) ( m - cartesian, degrees - spherical ) */
(PID.TID 0000.0001)    42 @  5.000000000000000E+03              /* J =  1: 42 */
(PID.TID 0000.0001)     ;
(PID.TID 0000.0001) dxG =  /* dxG(:,1,:,1) ( m - cartesian, degrees - spherical ) */
(PID.TID 0000.0001)    80 @  5.000000000000000E+03              /* I =  1: 80 */
(PID.TID 0000.0001)     ;
(PID.TID 0000.0001) dxG =  /* dxG(1,:,1,:) ( m - cartesian, degrees - spherical ) */
(PID.TID 0000.0001)    42 @  5.000000000000000E+03              /* J =  1: 42 */
(PID.TID 0000.0001)     ;
(PID.TID 0000.0001) dyG =  /* dyG(:,1,:,1) ( m - cartesian, degrees - spherical ) */
(PID.TID 0000.0001)    80 @  5.000000000000000E+03              /* I =  1: 80 */
(PID.TID 0000.0001)     ;
(PID.TID 0000.0001) dyG =  /* dyG(1,:,1,:) ( m - cartesian, degrees - spherical ) */
(PID.TID 0000.0001)    42 @  5.000000000000000E+03              /* J =  1: 42 */
(PID.TID 0000.0001)     ;
(PID.TID 0000.0001) dxC =  /* dxC(:,1,:,1) ( m - cartesian, degrees - spherical ) */
(PID.TID 0000.0001)    80 @  5.000000000000000E+03              /* I =  1: 80 */
(PID.TID 0000.0001)     ;
(PID.TID 0000.0001) dxC =  /* dxC(1,:,1,:) ( m - cartesian, degrees - spherical ) */
(PID.TID 0000.0001)    42 @  5.000000000000000E+03              /* J =  1: 42 */
(PID.TID 0000.0001)     ;
(PID.TID 0000.0001) dyC =  /* dyC(:,1,:,1) ( m - cartesian, degrees - spherical ) */
(PID.TID 0000.0001)    80 @  5.000000000000000E+03              /* I =  1: 80 */
(PID.TID 0000.0001)     ;
(PID.TID 0000.0001) dyC =  /* dyC(1,:,1,:) ( m - cartesian, degrees - spherical ) */
(PID.TID 0000.0001)    42 @  5.000000000000000E+03              /* J =  1: 42 */
(PID.TID 0000.0001)     ;
(PID.TID 0000.0001) dxV =  /* dxV(:,1,:,1) ( m - cartesian, degrees - spherical ) */
(PID.TID 0000.0001)    80 @  5.000000000000000E+03              /* I =  1: 80 */
(PID.TID 0000.0001)     ;
(PID.TID 0000.0001) dxV =  /* dxV(1,:,1,:) ( m - cartesian, degrees - spherical ) */
(PID.TID 0000.0001)    42 @  5.000000000000000E+03              /* J =  1: 42 */
(PID.TID 0000.0001)     ;
(PID.TID 0000.0001) dyU =  /* dyU(:,1,:,1) ( m - cartesian, degrees - spherical ) */
(PID.TID 0000.0001)    80 @  5.000000000000000E+03              /* I =  1: 80 */
(PID.TID 0000.0001)     ;
(PID.TID 0000.0001) dyU =  /* dyU(1,:,1,:) ( m - cartesian, degrees - spherical ) */
(PID.TID 0000.0001)    42 @  5.000000000000000E+03              /* J =  1: 42 */
(PID.TID 0000.0001)     ;
(PID.TID 0000.0001) rA =  /* rA(:,1,:,1) ( m - cartesian, degrees - spherical ) */
(PID.TID 0000.0001)    80 @  2.500000000000000E+07              /* I =  1: 80 */
(PID.TID 0000.0001)     ;
(PID.TID 0000.0001) rA =  /* rA(1,:,1,:) ( m - cartesian, degrees - spherical ) */
(PID.TID 0000.0001)    42 @  2.500000000000000E+07              /* J =  1: 42 */
(PID.TID 0000.0001)     ;
(PID.TID 0000.0001) rAw =  /* rAw(:,1,:,1) ( m - cartesian, degrees - spherical ) */
(PID.TID 0000.0001)    80 @  2.500000000000000E+07              /* I =  1: 80 */
(PID.TID 0000.0001)     ;
(PID.TID 0000.0001) rAw =  /* rAw(1,:,1,:) ( m - cartesian, degrees - spherical ) */
(PID.TID 0000.0001)    42 @  2.500000000000000E+07              /* J =  1: 42 */
(PID.TID 0000.0001)     ;
(PID.TID 0000.0001) rAs =  /* rAs(:,1,:,1) ( m - cartesian, degrees - spherical ) */
(PID.TID 0000.0001)    80 @  2.500000000000000E+07              /* I =  1: 80 */
(PID.TID 0000.0001)     ;
(PID.TID 0000.0001) rAs =  /* rAs(1,:,1,:) ( m - cartesian, degrees - spherical ) */
(PID.TID 0000.0001)    42 @  2.500000000000000E+07              /* J =  1: 42 */
(PID.TID 0000.0001)     ;
(PID.TID 0000.0001) 
(PID.TID 0000.0001) // =======================================================
(PID.TID 0000.0001) // Field Initial Temperature at iteration          1
(PID.TID 0000.0001) // CMIN =          6.968340000000000E-01
(PID.TID 0000.0001) // CMAX =          6.968340000000000E-01
(PID.TID 0000.0001) // CINT =          0.000000000000000E+00
(PID.TID 0000.0001) // SYMBOLS (CMIN->CMAX): -abcdefghijklmnopqrstuvwxyz+
(PID.TID 0000.0001) //                  0.0: .
(PID.TID 0000.0001) // RANGE I (Lo:Hi:Step):(   1:  80:   1)
(PID.TID 0000.0001) // RANGE J (Lo:Hi:Step):(  42:   1:  -1)
(PID.TID 0000.0001) // RANGE K (Lo:Hi:Step):(   1:   1:   1)
(PID.TID 0000.0001) // =======================================================
(PID.TID 0000.0001) K =   1
(PID.TID 0000.0001)                I=10      I=20      I=30      I=40      I=50      I=60      I=70      I=80
(PID.TID 0000.0001) |--J--|123456789|123456789|123456789|123456789|123456789|123456789|123456789|123456789|
(PID.TID 0000.0001)     42 --------------------------------------------------------------------------------
(PID.TID 0000.0001)     41 --------------------------------------------------------------------------------
(PID.TID 0000.0001)     40 --------------------------------------------------------------------------------
(PID.TID 0000.0001)     39 --------------------------------------------------------------------------------
(PID.TID 0000.0001)     38 --------------------------------------------------------------------------------
(PID.TID 0000.0001)     37 --------------------------------------------------------------------------------
(PID.TID 0000.0001)     36 --------------------------------------------------------------------------------
(PID.TID 0000.0001)     35 --------------------------------------------------------------------------------
(PID.TID 0000.0001)     34 --------------------------------------------------------------------------------
(PID.TID 0000.0001)     33 --------------------------------------------------------------------------------
(PID.TID 0000.0001)     32 --------------------------------------------------------------------------------
(PID.TID 0000.0001)     31 --------------------------------------------------------------------------------
(PID.TID 0000.0001)     30 --------------------------------------------------------------------------------
(PID.TID 0000.0001)     29 --------------------------------------------------------------------------------
(PID.TID 0000.0001)     28 --------------------------------------------------------------------------------
(PID.TID 0000.0001)     27 --------------------------------------------------------------------------------
(PID.TID 0000.0001)     26 --------------------------------------------------------------------------------
(PID.TID 0000.0001)     25 --------------------------------------------------------------------------------
(PID.TID 0000.0001)     24 --------------------------------------------------------------------------------
(PID.TID 0000.0001)     23 --------------------------------------------------------------------------------
(PID.TID 0000.0001)     22 --------------------------------------------------------------------------------
(PID.TID 0000.0001)     21 --------------------------------------------------------------------------------
(PID.TID 0000.0001)     20 --------------------------------------------------------------------------------
(PID.TID 0000.0001)     19 --------------------------------------------------------------------------------
(PID.TID 0000.0001)     18 --------------------------------------------------------------------------------
(PID.TID 0000.0001)     17 --------------------------------------------------------------------------------
(PID.TID 0000.0001)     16 --------------------------------------------------------------------------------
(PID.TID 0000.0001)     15 --------------------------------------------------------------------------------
(PID.TID 0000.0001)     14 --------------------------------------------------------------------------------
(PID.TID 0000.0001)     13 --------------------------------------------------------------------------------
(PID.TID 0000.0001)     12 --------------------------------------------------------------------------------
(PID.TID 0000.0001)     11 --------------------------------------------------------------------------------
(PID.TID 0000.0001)     10 --------------------------------------------------------------------------------
(PID.TID 0000.0001)      9 --------------------------------------------------------------------------------
(PID.TID 0000.0001)      8 --------------------------------------------------------------------------------
(PID.TID 0000.0001)      7 --------------------------------------------------------------------------------
(PID.TID 0000.0001)      6 --------------------------------------------------------------------------------
(PID.TID 0000.0001)      5 --------------------------------------------------------------------------------
(PID.TID 0000.0001)      4 --------------------------------------------------------------------------------
(PID.TID 0000.0001)      3 --------------------------------------------------------------------------------
(PID.TID 0000.0001)      2 --------------------------------------------------------------------------------
(PID.TID 0000.0001)      1 --------------------------------------------------------------------------------
(PID.TID 0000.0001) // =======================================================
(PID.TID 0000.0001) // END OF FIELD                                          =
(PID.TID 0000.0001) // =======================================================
(PID.TID 0000.0001) 
(PID.TID 0000.0001) // =======================================================
(PID.TID 0000.0001) // Field Initial Salinity at iteration          1
(PID.TID 0000.0001) // CMIN =          3.500000000000000E+01
(PID.TID 0000.0001) // CMAX =          3.500000000000000E+01
(PID.TID 0000.0001) // CINT =          0.000000000000000E+00
(PID.TID 0000.0001) // SYMBOLS (CMIN->CMAX): -abcdefghijklmnopqrstuvwxyz+
(PID.TID 0000.0001) //                  0.0: .
(PID.TID 0000.0001) // RANGE I (Lo:Hi:Step):(   1:  80:   1)
(PID.TID 0000.0001) // RANGE J (Lo:Hi:Step):(  42:   1:  -1)
(PID.TID 0000.0001) // RANGE K (Lo:Hi:Step):(   1:   1:   1)
(PID.TID 0000.0001) // =======================================================
(PID.TID 0000.0001) K =   1
(PID.TID 0000.0001)                I=10      I=20      I=30      I=40      I=50      I=60      I=70      I=80
(PID.TID 0000.0001) |--J--|123456789|123456789|123456789|123456789|123456789|123456789|123456789|123456789|
(PID.TID 0000.0001)     42 --------------------------------------------------------------------------------
(PID.TID 0000.0001)     41 --------------------------------------------------------------------------------
(PID.TID 0000.0001)     40 --------------------------------------------------------------------------------
(PID.TID 0000.0001)     39 --------------------------------------------------------------------------------
(PID.TID 0000.0001)     38 --------------------------------------------------------------------------------
(PID.TID 0000.0001)     37 --------------------------------------------------------------------------------
(PID.TID 0000.0001)     36 --------------------------------------------------------------------------------
(PID.TID 0000.0001)     35 --------------------------------------------------------------------------------
(PID.TID 0000.0001)     34 --------------------------------------------------------------------------------
(PID.TID 0000.0001)     33 --------------------------------------------------------------------------------
(PID.TID 0000.0001)     32 --------------------------------------------------------------------------------
(PID.TID 0000.0001)     31 --------------------------------------------------------------------------------
(PID.TID 0000.0001)     30 --------------------------------------------------------------------------------
(PID.TID 0000.0001)     29 --------------------------------------------------------------------------------
(PID.TID 0000.0001)     28 --------------------------------------------------------------------------------
(PID.TID 0000.0001)     27 --------------------------------------------------------------------------------
(PID.TID 0000.0001)     26 --------------------------------------------------------------------------------
(PID.TID 0000.0001)     25 --------------------------------------------------------------------------------
(PID.TID 0000.0001)     24 --------------------------------------------------------------------------------
(PID.TID 0000.0001)     23 --------------------------------------------------------------------------------
(PID.TID 0000.0001)     22 --------------------------------------------------------------------------------
(PID.TID 0000.0001)     21 --------------------------------------------------------------------------------
(PID.TID 0000.0001)     20 --------------------------------------------------------------------------------
(PID.TID 0000.0001)     19 --------------------------------------------------------------------------------
(PID.TID 0000.0001)     18 --------------------------------------------------------------------------------
(PID.TID 0000.0001)     17 --------------------------------------------------------------------------------
(PID.TID 0000.0001)     16 --------------------------------------------------------------------------------
(PID.TID 0000.0001)     15 --------------------------------------------------------------------------------
(PID.TID 0000.0001)     14 --------------------------------------------------------------------------------
(PID.TID 0000.0001)     13 --------------------------------------------------------------------------------
(PID.TID 0000.0001)     12 --------------------------------------------------------------------------------
(PID.TID 0000.0001)     11 --------------------------------------------------------------------------------
(PID.TID 0000.0001)     10 --------------------------------------------------------------------------------
(PID.TID 0000.0001)      9 --------------------------------------------------------------------------------
(PID.TID 0000.0001)      8 --------------------------------------------------------------------------------
(PID.TID 0000.0001)      7 --------------------------------------------------------------------------------
(PID.TID 0000.0001)      6 --------------------------------------------------------------------------------
(PID.TID 0000.0001)      5 --------------------------------------------------------------------------------
(PID.TID 0000.0001)      4 --------------------------------------------------------------------------------
(PID.TID 0000.0001)      3 --------------------------------------------------------------------------------
(PID.TID 0000.0001)      2 --------------------------------------------------------------------------------
(PID.TID 0000.0001)      1 --------------------------------------------------------------------------------
(PID.TID 0000.0001) // =======================================================
(PID.TID 0000.0001) // END OF FIELD                                          =
(PID.TID 0000.0001) // =======================================================
(PID.TID 0000.0001) 
(PID.TID 0000.0001) Start initial hydrostatic pressure computation
(PID.TID 0000.0001) Pressure is predetermined for buoyancyRelation OCEANIC
(PID.TID 0000.0001) 
(PID.TID 0000.0001) // =======================================================
(PID.TID 0000.0001) // Model current state
(PID.TID 0000.0001) // =======================================================
(PID.TID 0000.0001) 
(PID.TID 0000.0001) // =======================================================
(PID.TID 0000.0001) // Begin MONITOR dynamic field statistics
(PID.TID 0000.0001) // =======================================================
(PID.TID 0000.0001) %MON time_tsnumber                =                     0
(PID.TID 0000.0001) %MON time_secondsf                =   0.0000000000000E+00
(PID.TID 0000.0001) %MON dynstat_eta_max              =   0.0000000000000E+00
(PID.TID 0000.0001) %MON dynstat_eta_min              =   0.0000000000000E+00
(PID.TID 0000.0001) %MON dynstat_eta_mean             =   0.0000000000000E+00
(PID.TID 0000.0001) %MON dynstat_eta_sd               =   0.0000000000000E+00
(PID.TID 0000.0001) %MON dynstat_eta_del2             =   0.0000000000000E+00
(PID.TID 0000.0001) %MON dynstat_uvel_max             =   2.5000000000000E-01
(PID.TID 0000.0001) %MON dynstat_uvel_min             =   0.0000000000000E+00
(PID.TID 0000.0001) %MON dynstat_uvel_mean            =   2.1825648779612E-02
(PID.TID 0000.0001) %MON dynstat_uvel_sd              =   7.0569492347991E-02
(PID.TID 0000.0001) %MON dynstat_uvel_del2            =   1.2769076460150E-02
(PID.TID 0000.0001) %MON dynstat_vvel_max             =   0.0000000000000E+00
(PID.TID 0000.0001) %MON dynstat_vvel_min             =   0.0000000000000E+00
(PID.TID 0000.0001) %MON dynstat_vvel_mean            =   0.0000000000000E+00
(PID.TID 0000.0001) %MON dynstat_vvel_sd              =   0.0000000000000E+00
(PID.TID 0000.0001) %MON dynstat_vvel_del2            =   0.0000000000000E+00
(PID.TID 0000.0001) %MON dynstat_wvel_max             =   2.2500000000000E-01
(PID.TID 0000.0001) %MON dynstat_wvel_min             =  -2.2500000000000E-01
(PID.TID 0000.0001) %MON dynstat_wvel_mean            =   4.2807367312012E-18
(PID.TID 0000.0001) %MON dynstat_wvel_sd              =   2.1155337727580E-02
(PID.TID 0000.0001) %MON dynstat_wvel_del2            =   3.1932980617013E-03
(PID.TID 0000.0001) %MON dynstat_theta_max            =   6.9683400000000E-01
(PID.TID 0000.0001) %MON dynstat_theta_min            =  -6.9683400000000E-01
(PID.TID 0000.0001) %MON dynstat_theta_mean           =   1.8778127528405E-02
(PID.TID 0000.0001) %MON dynstat_theta_sd             =   4.5245485394766E-01
(PID.TID 0000.0001) %MON dynstat_theta_del2           =   0.0000000000000E+00
(PID.TID 0000.0001) %MON dynstat_salt_max             =   3.5000000000000E+01
(PID.TID 0000.0001) %MON dynstat_salt_min             =   3.5000000000000E+01
(PID.TID 0000.0001) %MON dynstat_salt_mean            =   3.5000000000000E+01
(PID.TID 0000.0001) %MON dynstat_salt_sd              =   4.9737991503207E-14
(PID.TID 0000.0001) %MON dynstat_salt_del2            =   0.0000000000000E+00
(PID.TID 0000.0001) %MON advcfl_uvel_max              =   3.0000000000000E-02
(PID.TID 0000.0001) %MON advcfl_vvel_max              =   0.0000000000000E+00
(PID.TID 0000.0001) %MON advcfl_wvel_max              =   4.8000000000000E-01
(PID.TID 0000.0001) %MON advcfl_W_hf_max              =   4.2000000000000E-01
(PID.TID 0000.0001) %MON pe_b_mean                    =   0.0000000000000E+00
(PID.TID 0000.0001) %MON ke_max                       =   3.1250000000000E-02
(PID.TID 0000.0001) %MON ke_mean                      =   2.7186839835992E-03
(PID.TID 0000.0001) %MON ke_vol                       =   3.6207071198500E+14
(PID.TID 0000.0001) %MON vort_r_min                   =  -5.0000000000000E-05
(PID.TID 0000.0001) %MON vort_r_max                   =   5.0000000000000E-05
(PID.TID 0000.0001) %MON vort_a_mean                  =   9.8818701338549E-05
(PID.TID 0000.0001) %MON vort_a_sd                    =   1.3258934070657E-05
(PID.TID 0000.0001) %MON vort_p_mean                  =   1.0041939061340E-04
(PID.TID 0000.0001) %MON vort_p_sd                    =   3.1995806396479E-05
(PID.TID 0000.0001) %MON surfExpan_theta_mean         =   1.3735785967959E-19
(PID.TID 0000.0001) %MON surfExpan_salt_mean          =  -3.8935038473670E-18
(PID.TID 0000.0001) // =======================================================
(PID.TID 0000.0001) // End MONITOR dynamic field statistics
(PID.TID 0000.0001) // =======================================================
 cg2d: Sum(rhs),rhsMax =   3.80806497446429E-14  2.06145833333333E+00
(PID.TID 0000.0001)                    cg2d_init_res =    8.81492288299895E+00
(PID.TID 0000.0001)                       cg2d_iters =   176
(PID.TID 0000.0001)                         cg2d_res =    7.22238739823464E-14
(PID.TID 0000.0001) // =======================================================
(PID.TID 0000.0001) // Begin MONITOR dynamic field statistics
(PID.TID 0000.0001) // =======================================================
(PID.TID 0000.0001) %MON time_tsnumber                =                     1
(PID.TID 0000.0001) %MON time_secondsf                =   6.0000000000000E+02
(PID.TID 0000.0001) %MON dynstat_eta_max              =   4.8714038386278E+00
(PID.TID 0000.0001) %MON dynstat_eta_min              =  -4.8744533900604E+00
(PID.TID 0000.0001) %MON dynstat_eta_mean             =   3.8125071891401E-15
(PID.TID 0000.0001) %MON dynstat_eta_sd               =   2.4626577915159E+00
(PID.TID 0000.0001) %MON dynstat_eta_del2             =   1.0947457894179E-01
(PID.TID 0000.0001) %MON dynstat_uvel_max             =   2.5000000000000E-01
(PID.TID 0000.0001) %MON dynstat_uvel_min             =   9.2586296842778E-02
(PID.TID 0000.0001) %MON dynstat_uvel_mean            =   1.5853994628112E-01
(PID.TID 0000.0001) %MON dynstat_uvel_sd              =   4.7369898536763E-02
(PID.TID 0000.0001) %MON dynstat_uvel_del2            =   2.4418104722895E-03
(PID.TID 0000.0001) %MON dynstat_vvel_max             =   3.1998870575203E-02
(PID.TID 0000.0001) %MON dynstat_vvel_min             =  -3.1867303003547E-02
(PID.TID 0000.0001) %MON dynstat_vvel_mean            =  -3.2020103151816E-05
(PID.TID 0000.0001) %MON dynstat_vvel_sd              =   6.7730131348956E-03
(PID.TID 0000.0001) %MON dynstat_vvel_del2            =   2.2675015184441E-04
(PID.TID 0000.0001) %MON dynstat_wvel_max             =   8.9597599102238E-03
(PID.TID 0000.0001) %MON dynstat_wvel_min             =  -8.9596601246246E-03
(PID.TID 0000.0001) %MON dynstat_wvel_mean            =   5.7857751163118E-18
(PID.TID 0000.0001) %MON dynstat_wvel_sd              =   2.6575846676274E-03
(PID.TID 0000.0001) %MON dynstat_wvel_del2            =   1.2724612279999E-04
(PID.TID 0000.0001) %MON dynstat_theta_max            =   7.1773907622455E-01
(PID.TID 0000.0001) %MON dynstat_theta_min            =  -6.9982043622455E-01
(PID.TID 0000.0001) %MON dynstat_theta_mean           =   1.8778127528408E-02
(PID.TID 0000.0001) %MON dynstat_theta_sd             =   4.5247028672176E-01
(PID.TID 0000.0001) %MON dynstat_theta_del2           =   5.2744980634874E-04
(PID.TID 0000.0001) %MON dynstat_salt_max             =   3.5000000000000E+01
(PID.TID 0000.0001) %MON dynstat_salt_min             =   3.5000000000000E+01
(PID.TID 0000.0001) %MON dynstat_salt_mean            =   3.5000000000000E+01
(PID.TID 0000.0001) %MON dynstat_salt_sd              =   4.9737991503207E-14
(PID.TID 0000.0001) %MON dynstat_salt_del2            =   0.0000000000000E+00
(PID.TID 0000.0001) %MON advcfl_uvel_max              =   3.0000000000000E-02
(PID.TID 0000.0001) %MON advcfl_vvel_max              =   3.8398644690244E-03
(PID.TID 0000.0001) %MON advcfl_wvel_max              =   1.7331389831323E-02
(PID.TID 0000.0001) %MON advcfl_W_hf_max              =   1.9934313991468E-02
(PID.TID 0000.0001) %MON pe_b_mean                    =   6.9013338305982E-03
(PID.TID 0000.0001) %MON ke_max                       =   3.1250000000000E-02
(PID.TID 0000.0001) %MON ke_mean                      =   1.3664488823087E-02
(PID.TID 0000.0001) %MON ke_vol                       =   3.6207071198500E+14
(PID.TID 0000.0001) %MON vort_r_min                   =  -4.5844783447769E-05
(PID.TID 0000.0001) %MON vort_r_max                   =   4.5844735570116E-05
(PID.TID 0000.0001) %MON vort_a_mean                  =   1.0000000000000E-04
(PID.TID 0000.0001) %MON vort_a_sd                    =   5.1000172208789E-06
(PID.TID 0000.0001) %MON vort_p_mean                  =   1.0161982423688E-04
(PID.TID 0000.0001) %MON vort_p_sd                    =   3.0227297891749E-05
(PID.TID 0000.0001) %MON surfExpan_theta_mean         =  -4.0384695593900E-06
(PID.TID 0000.0001) %MON surfExpan_salt_mean          =  -1.5674422284984E-16
(PID.TID 0000.0001) // =======================================================
(PID.TID 0000.0001) // End MONITOR dynamic field statistics
(PID.TID 0000.0001) // =======================================================
 cg2d: Sum(rhs),rhsMax =   3.18856052672345E-13  4.95862020595739E-01
(PID.TID 0000.0001)                    cg2d_init_res =    3.79130624036565E+01
(PID.TID 0000.0001)                       cg2d_iters =   199
(PID.TID 0000.0001)                         cg2d_res =    8.11822571536906E-14
(PID.TID 0000.0001) // =======================================================
(PID.TID 0000.0001) // Begin MONITOR dynamic field statistics
(PID.TID 0000.0001) // =======================================================
(PID.TID 0000.0001) %MON time_tsnumber                =                     2
(PID.TID 0000.0001) %MON time_secondsf                =   1.2000000000000E+03
(PID.TID 0000.0001) %MON dynstat_eta_max              =   4.0124934188894E+00
(PID.TID 0000.0001) %MON dynstat_eta_min              =  -4.0168011873291E+00
(PID.TID 0000.0001) %MON dynstat_eta_mean             =  -3.4003652750500E-15
(PID.TID 0000.0001) %MON dynstat_eta_sd               =   2.5290284806204E+00
(PID.TID 0000.0001) %MON dynstat_eta_del2             =   9.9957437697606E-02
(PID.TID 0000.0001) %MON dynstat_uvel_max             =   5.7313017917133E-01
(PID.TID 0000.0001) %MON dynstat_uvel_min             =   2.0735309651536E-01
(PID.TID 0000.0001) %MON dynstat_uvel_mean            =   2.5966418514786E-01
(PID.TID 0000.0001) %MON dynstat_uvel_sd              =   2.4578611242987E-02
(PID.TID 0000.0001) %MON dynstat_uvel_del2            =   1.0455152302279E-03
(PID.TID 0000.0001) %MON dynstat_vvel_max             =   8.0321727366127E-02
(PID.TID 0000.0001) %MON dynstat_vvel_min             =  -9.0851222666966E-02
(PID.TID 0000.0001) %MON dynstat_vvel_mean            =  -2.2435938931479E-03
(PID.TID 0000.0001) %MON dynstat_vvel_sd              =   1.7530510243420E-02
(PID.TID 0000.0001) %MON dynstat_vvel_del2            =   3.0509178464318E-04
(PID.TID 0000.0001) %MON dynstat_wvel_max             =   2.0822644441621E-02
(PID.TID 0000.0001) %MON dynstat_wvel_min             =  -2.0792617324283E-02
(PID.TID 0000.0001) %MON dynstat_wvel_mean            =   1.1106038708777E-18
(PID.TID 0000.0001) %MON dynstat_wvel_sd              =   2.1119187845407E-03
(PID.TID 0000.0001) %MON dynstat_wvel_del2            =   2.2034192361178E-04
(PID.TID 0000.0001) %MON dynstat_theta_max            =   7.0470803591881E-01
(PID.TID 0000.0001) %MON dynstat_theta_min            =  -6.9887711116000E-01
(PID.TID 0000.0001) %MON dynstat_theta_mean           =   1.8766555694518E-02
(PID.TID 0000.0001) %MON dynstat_theta_sd             =   4.5245235475364E-01
(PID.TID 0000.0001) %MON dynstat_theta_del2           =   1.9756939370622E-04
(PID.TID 0000.0001) %MON dynstat_salt_max             =   3.5000000000000E+01
(PID.TID 0000.0001) %MON dynstat_salt_min             =   3.5000000000000E+01
(PID.TID 0000.0001) %MON dynstat_salt_mean            =   3.5000000000000E+01
(PID.TID 0000.0001) %MON dynstat_salt_sd              =   4.9737991503207E-14
(PID.TID 0000.0001) %MON dynstat_salt_del2            =   0.0000000000000E+00
(PID.TID 0000.0001) %MON advcfl_uvel_max              =   6.8775621500560E-02
(PID.TID 0000.0001) %MON advcfl_vvel_max              =   1.0902146720036E-02
(PID.TID 0000.0001) %MON advcfl_wvel_max              =   2.2210820737729E-02
(PID.TID 0000.0001) %MON advcfl_W_hf_max              =   4.9699796569112E-02
(PID.TID 0000.0001) %MON pe_b_mean                    =   7.2783400464476E-03
(PID.TID 0000.0001) %MON ke_max                       =   1.6012182768344E-01
(PID.TID 0000.0001) %MON ke_mean                      =   3.4051709798159E-02
(PID.TID 0000.0001) %MON ke_vol                       =   3.6207071198500E+14
(PID.TID 0000.0001) %MON vort_r_min                   =  -1.1974353156538E-04
(PID.TID 0000.0001) %MON vort_r_max                   =   1.1965913460378E-04
(PID.TID 0000.0001) %MON vort_a_mean                  =   9.9999999999998E-05
(PID.TID 0000.0001) %MON vort_a_sd                    =   6.1520800764384E-06
(PID.TID 0000.0001) %MON vort_p_mean                  =   1.0161982423688E-04
(PID.TID 0000.0001) %MON vort_p_sd                    =   3.4135645811737E-05
(PID.TID 0000.0001) %MON surfExpan_theta_mean         =   2.8816030077922E-07
(PID.TID 0000.0001) %MON surfExpan_salt_mean          =   1.4428047328354E-18
(PID.TID 0000.0001) // =======================================================
(PID.TID 0000.0001) // End MONITOR dynamic field statistics
(PID.TID 0000.0001) // =======================================================
 cg2d: Sum(rhs),rhsMax =  -1.82076576038526E-13  2.26311399847340E-01
(PID.TID 0000.0001)                    cg2d_init_res =    1.45124280389610E+01
(PID.TID 0000.0001)                       cg2d_iters =   202
(PID.TID 0000.0001)                         cg2d_res =    7.25917371504214E-14
(PID.TID 0000.0001) // =======================================================
(PID.TID 0000.0001) // Begin MONITOR dynamic field statistics
(PID.TID 0000.0001) // =======================================================
(PID.TID 0000.0001) %MON time_tsnumber                =                     3
(PID.TID 0000.0001) %MON time_secondsf                =   1.8000000000000E+03
(PID.TID 0000.0001) %MON dynstat_eta_max              =   2.2437871914519E+00
(PID.TID 0000.0001) %MON dynstat_eta_min              =  -2.2413534500603E+00
(PID.TID 0000.0001) %MON dynstat_eta_mean             =  -6.9106019363201E-16
(PID.TID 0000.0001) %MON dynstat_eta_sd               =   1.4072441200012E+00
(PID.TID 0000.0001) %MON dynstat_eta_del2             =   5.4391929644829E-02
(PID.TID 0000.0001) %MON dynstat_uvel_max             =   7.9934615405355E-01
(PID.TID 0000.0001) %MON dynstat_uvel_min             =   2.3509710360652E-01
(PID.TID 0000.0001) %MON dynstat_uvel_mean            =   3.0977329624619E-01
(PID.TID 0000.0001) %MON dynstat_uvel_sd              =   5.5572381451429E-02
(PID.TID 0000.0001) %MON dynstat_uvel_del2            =   2.3528320492268E-03
(PID.TID 0000.0001) %MON dynstat_vvel_max             =   1.1181784340726E-01
(PID.TID 0000.0001) %MON dynstat_vvel_min             =  -1.4228891775796E-01
(PID.TID 0000.0001) %MON dynstat_vvel_mean            =  -1.7448186890254E-03
(PID.TID 0000.0001) %MON dynstat_vvel_sd              =   2.4573987379701E-02
(PID.TID 0000.0001) %MON dynstat_vvel_del2            =   3.2762882443516E-04
(PID.TID 0000.0001) %MON dynstat_wvel_max             =   2.7759805619861E-02
(PID.TID 0000.0001) %MON dynstat_wvel_min             =  -2.7525820126288E-02
(PID.TID 0000.0001) %MON dynstat_wvel_mean            =   9.6783340172586E-20
(PID.TID 0000.0001) %MON dynstat_wvel_sd              =   2.7474909470909E-03
(PID.TID 0000.0001) %MON dynstat_wvel_del2            =   2.2649907053662E-04
(PID.TID 0000.0001) %MON dynstat_theta_max            =   7.0380587454096E-01
(PID.TID 0000.0001) %MON dynstat_theta_min            =  -7.0294286478423E-01
(PID.TID 0000.0001) %MON dynstat_theta_mean           =   1.8766109797516E-02
(PID.TID 0000.0001) %MON dynstat_theta_sd             =   4.5245215424349E-01
(PID.TID 0000.0001) %MON dynstat_theta_del2           =   1.7306041340156E-04
(PID.TID 0000.0001) %MON dynstat_salt_max             =   3.5000000000000E+01
(PID.TID 0000.0001) %MON dynstat_salt_min             =   3.5000000000000E+01
(PID.TID 0000.0001) %MON dynstat_salt_mean            =   3.5000000000000E+01
(PID.TID 0000.0001) %MON dynstat_salt_sd              =   4.9737991503207E-14
(PID.TID 0000.0001) %MON dynstat_salt_del2            =   0.0000000000000E+00
(PID.TID 0000.0001) %MON advcfl_uvel_max              =   9.5921538486427E-02
(PID.TID 0000.0001) %MON advcfl_vvel_max              =   1.7074670130955E-02
(PID.TID 0000.0001) %MON advcfl_wvel_max              =   2.9610459327851E-02
(PID.TID 0000.0001) %MON advcfl_W_hf_max              =   6.8669696608567E-02
(PID.TID 0000.0001) %MON pe_b_mean                    =   2.2535322995819E-03
(PID.TID 0000.0001) %MON ke_max                       =   3.1320174675864E-01
(PID.TID 0000.0001) %MON ke_mean                      =   4.9653445369281E-02
(PID.TID 0000.0001) %MON ke_vol                       =   3.6207071198500E+14
(PID.TID 0000.0001) %MON vort_r_min                   =  -1.7127566352582E-04
(PID.TID 0000.0001) %MON vort_r_max                   =   1.7053225926169E-04
(PID.TID 0000.0001) %MON vort_a_mean                  =   9.9999999999999E-05
(PID.TID 0000.0001) %MON vort_a_sd                    =   9.1633203141939E-06
(PID.TID 0000.0001) %MON vort_p_mean                  =   1.0161982423688E-04
(PID.TID 0000.0001) %MON vort_p_sd                    =   3.8288966393148E-05
(PID.TID 0000.0001) %MON surfExpan_theta_mean         =   1.3379877442675E-06
(PID.TID 0000.0001) %MON surfExpan_salt_mean          =  -2.7656694796747E-17
(PID.TID 0000.0001) // =======================================================
(PID.TID 0000.0001) // End MONITOR dynamic field statistics
(PID.TID 0000.0001) // =======================================================
 cg2d: Sum(rhs),rhsMax =  -1.13131726209303E-13  2.39601045148712E-01
(PID.TID 0000.0001)                    cg2d_init_res =    9.18633293231296E+00
(PID.TID 0000.0001)                       cg2d_iters =   199
(PID.TID 0000.0001)                         cg2d_res =    9.64531924175332E-14
(PID.TID 0000.0001) // =======================================================
(PID.TID 0000.0001) // Begin MONITOR dynamic field statistics
(PID.TID 0000.0001) // =======================================================
(PID.TID 0000.0001) %MON time_tsnumber                =                     4
(PID.TID 0000.0001) %MON time_secondsf                =   2.4000000000000E+03
(PID.TID 0000.0001) %MON dynstat_eta_max              =   5.3296066014212E-01
(PID.TID 0000.0001) %MON dynstat_eta_min              =  -5.3202361345844E-01
(PID.TID 0000.0001) %MON dynstat_eta_mean             =  -3.6063687826591E-16
(PID.TID 0000.0001) %MON dynstat_eta_sd               =   2.5347734678718E-01
(PID.TID 0000.0001) %MON dynstat_eta_del2             =   1.1370748789875E-02
(PID.TID 0000.0001) %MON dynstat_uvel_max             =   8.2457373750114E-01
(PID.TID 0000.0001) %MON dynstat_uvel_min             =   2.3412796919473E-01
(PID.TID 0000.0001) %MON dynstat_uvel_mean            =   3.1386954186385E-01
(PID.TID 0000.0001) %MON dynstat_uvel_sd              =   6.0369342849793E-02
(PID.TID 0000.0001) %MON dynstat_uvel_del2            =   2.4052028663116E-03
(PID.TID 0000.0001) %MON dynstat_vvel_max             =   1.1536574093547E-01
(PID.TID 0000.0001) %MON dynstat_vvel_min             =  -1.7543113700360E-01
(PID.TID 0000.0001) %MON dynstat_vvel_mean            =  -4.7348164738487E-04
(PID.TID 0000.0001) %MON dynstat_vvel_sd              =   2.5908776996999E-02
(PID.TID 0000.0001) %MON dynstat_vvel_del2            =   3.1210867217316E-04
(PID.TID 0000.0001) %MON dynstat_wvel_max             =   2.8425544923293E-02
(PID.TID 0000.0001) %MON dynstat_wvel_min             =  -2.7841694912293E-02
(PID.TID 0000.0001) %MON dynstat_wvel_mean            =   1.3429627261221E-18
(PID.TID 0000.0001) %MON dynstat_wvel_sd              =   2.8239662707227E-03
(PID.TID 0000.0001) %MON dynstat_wvel_del2            =   2.3267179356132E-04
(PID.TID 0000.0001) %MON dynstat_theta_max            =   7.0301612999403E-01
(PID.TID 0000.0001) %MON dynstat_theta_min            =  -7.0750050688966E-01
(PID.TID 0000.0001) %MON dynstat_theta_mean           =   1.8763849155494E-02
(PID.TID 0000.0001) %MON dynstat_theta_sd             =   4.5245078904921E-01
(PID.TID 0000.0001) %MON dynstat_theta_del2           =   1.6673691095945E-04
(PID.TID 0000.0001) %MON dynstat_salt_max             =   3.5000000000000E+01
(PID.TID 0000.0001) %MON dynstat_salt_min             =   3.5000000000000E+01
(PID.TID 0000.0001) %MON dynstat_salt_mean            =   3.5000000000000E+01
(PID.TID 0000.0001) %MON dynstat_salt_sd              =   4.9737991503207E-14
(PID.TID 0000.0001) %MON dynstat_salt_del2            =   0.0000000000000E+00
(PID.TID 0000.0001) %MON advcfl_uvel_max              =   9.8948848500137E-02
(PID.TID 0000.0001) %MON advcfl_vvel_max              =   2.1051736440432E-02
(PID.TID 0000.0001) %MON advcfl_wvel_max              =   3.0320581251512E-02
(PID.TID 0000.0001) %MON advcfl_W_hf_max              =   7.1015188944378E-02
(PID.TID 0000.0001) %MON pe_b_mean                    =   7.3114448246567E-05
(PID.TID 0000.0001) %MON ke_max                       =   3.3712770307365E-01
(PID.TID 0000.0001) %MON ke_mean                      =   5.1235566995896E-02
(PID.TID 0000.0001) %MON ke_vol                       =   3.6207071198500E+14
(PID.TID 0000.0001) %MON vort_r_min                   =  -1.8290848722213E-04
(PID.TID 0000.0001) %MON vort_r_max                   =   1.8084035911939E-04
(PID.TID 0000.0001) %MON vort_a_mean                  =   1.0000000000000E-04
(PID.TID 0000.0001) %MON vort_a_sd                    =   9.4391898183315E-06
(PID.TID 0000.0001) %MON vort_p_mean                  =   1.0161982423688E-04
(PID.TID 0000.0001) %MON vort_p_sd                    =   3.8739205963370E-05
(PID.TID 0000.0001) %MON surfExpan_theta_mean         =   8.6087421906376E-07
(PID.TID 0000.0001) %MON surfExpan_salt_mean          =   2.8848911746260E-17
(PID.TID 0000.0001) // =======================================================
(PID.TID 0000.0001) // End MONITOR dynamic field statistics
(PID.TID 0000.0001) // =======================================================
 cg2d: Sum(rhs),rhsMax =  -3.41393580072236E-14  2.16717165067260E-01
(PID.TID 0000.0001)                    cg2d_init_res =    5.79689670930629E+00
(PID.TID 0000.0001)                       cg2d_iters =   197
(PID.TID 0000.0001)                         cg2d_res =    7.52311478342179E-14
(PID.TID 0000.0001) // =======================================================
(PID.TID 0000.0001) // Begin MONITOR dynamic field statistics
(PID.TID 0000.0001) // =======================================================
(PID.TID 0000.0001) %MON time_tsnumber                =                     5
(PID.TID 0000.0001) %MON time_secondsf                =   3.0000000000000E+03
(PID.TID 0000.0001) %MON dynstat_eta_max              =   1.1289495638916E+00
(PID.TID 0000.0001) %MON dynstat_eta_min              =  -1.1221344649267E+00
(PID.TID 0000.0001) %MON dynstat_eta_mean             =  -5.2517025716721E-16
(PID.TID 0000.0001) %MON dynstat_eta_sd               =   6.1056045728520E-01
(PID.TID 0000.0001) %MON dynstat_eta_del2             =   2.3910988442882E-02
(PID.TID 0000.0001) %MON dynstat_uvel_max             =   7.2650295692742E-01
(PID.TID 0000.0001) %MON dynstat_uvel_min             =   2.2654489795694E-01
(PID.TID 0000.0001) %MON dynstat_uvel_mean            =   2.9185129714009E-01
(PID.TID 0000.0001) %MON dynstat_uvel_sd              =   4.7058298074399E-02
(PID.TID 0000.0001) %MON dynstat_uvel_del2            =   1.7531864674106E-03
(PID.TID 0000.0001) %MON dynstat_vvel_max             =   1.0317663604179E-01
(PID.TID 0000.0001) %MON dynstat_vvel_min             =  -1.9754846105373E-01
(PID.TID 0000.0001) %MON dynstat_vvel_mean            =   4.0601674737608E-04
(PID.TID 0000.0001) %MON dynstat_vvel_sd              =   2.3885698603277E-02
(PID.TID 0000.0001) %MON dynstat_vvel_del2            =   3.0827281088842E-04
(PID.TID 0000.0001) %MON dynstat_wvel_max             =   2.5228579034950E-02
(PID.TID 0000.0001) %MON dynstat_wvel_min             =  -2.5338244080839E-02
(PID.TID 0000.0001) %MON dynstat_wvel_mean            =  -5.3143595743646E-20
(PID.TID 0000.0001) %MON dynstat_wvel_sd              =   2.4174621033842E-03
(PID.TID 0000.0001) %MON dynstat_wvel_del2            =   2.0471129202611E-04
(PID.TID 0000.0001) %MON dynstat_theta_max            =   7.0475574916752E-01
(PID.TID 0000.0001) %MON dynstat_theta_min            =  -7.1137836267284E-01
(PID.TID 0000.0001) %MON dynstat_theta_mean           =   1.8762029183843E-02
(PID.TID 0000.0001) %MON dynstat_theta_sd             =   4.5244957727664E-01
(PID.TID 0000.0001) %MON dynstat_theta_del2           =   1.6658686166544E-04
(PID.TID 0000.0001) %MON dynstat_salt_max             =   3.5000000000000E+01
(PID.TID 0000.0001) %MON dynstat_salt_min             =   3.5000000000000E+01
(PID.TID 0000.0001) %MON dynstat_salt_mean            =   3.5000000000000E+01
(PID.TID 0000.0001) %MON dynstat_salt_sd              =   4.9737991503207E-14
(PID.TID 0000.0001) %MON dynstat_salt_del2            =   0.0000000000000E+00
(PID.TID 0000.0001) %MON advcfl_uvel_max              =   8.7180354831291E-02
(PID.TID 0000.0001) %MON advcfl_vvel_max              =   2.3705815326448E-02
(PID.TID 0000.0001) %MON advcfl_wvel_max              =   2.7027460352895E-02
(PID.TID 0000.0001) %MON advcfl_W_hf_max              =   6.2914516944484E-02
(PID.TID 0000.0001) %MON pe_b_mean                    =   4.2421131635727E-04
(PID.TID 0000.0001) %MON ke_max                       =   2.6867454902064E-01
(PID.TID 0000.0001) %MON ke_mean                      =   4.3827672268363E-02
(PID.TID 0000.0001) %MON ke_vol                       =   3.6207071198500E+14
(PID.TID 0000.0001) %MON vort_r_min                   =  -1.6914919060400E-04
(PID.TID 0000.0001) %MON vort_r_max                   =   1.6568483147299E-04
(PID.TID 0000.0001) %MON vort_a_mean                  =   1.0000000000000E-04
(PID.TID 0000.0001) %MON vort_a_sd                    =   8.0383911779716E-06
(PID.TID 0000.0001) %MON vort_p_mean                  =   1.0161982423688E-04
(PID.TID 0000.0001) %MON vort_p_sd                    =   3.6780499891490E-05
(PID.TID 0000.0001) %MON surfExpan_theta_mean         =   2.7462347030309E-07
(PID.TID 0000.0001) %MON surfExpan_salt_mean          =   5.2658873663736E-18
(PID.TID 0000.0001) // =======================================================
(PID.TID 0000.0001) // End MONITOR dynamic field statistics
(PID.TID 0000.0001) // =======================================================
(PID.TID 0000.0001) %CHECKPOINT         5 0000000005
 cg2d: Sum(rhs),rhsMax =  -5.31796828795450E-14  1.77357071655568E-01
(PID.TID 0000.0001)                    cg2d_init_res =    2.22943447342839E+00
(PID.TID 0000.0001)                       cg2d_iters =   197
(PID.TID 0000.0001)                         cg2d_res =    7.82275482468122E-14
(PID.TID 0000.0001) // =======================================================
(PID.TID 0000.0001) // Begin MONITOR dynamic field statistics
(PID.TID 0000.0001) // =======================================================
(PID.TID 0000.0001) %MON time_tsnumber                =                     6
(PID.TID 0000.0001) %MON time_secondsf                =   3.6000000000000E+03
(PID.TID 0000.0001) %MON dynstat_eta_max              =   1.2400185979193E+00
(PID.TID 0000.0001) %MON dynstat_eta_min              =  -1.2366601388296E+00
(PID.TID 0000.0001) %MON dynstat_eta_mean             =   1.3057966396291E-16
(PID.TID 0000.0001) %MON dynstat_eta_sd               =   7.0091721432198E-01
(PID.TID 0000.0001) %MON dynstat_eta_del2             =   2.7366347605451E-02
(PID.TID 0000.0001) %MON dynstat_uvel_max             =   6.0945380527479E-01
(PID.TID 0000.0001) %MON dynstat_uvel_min             =   1.8921613690619E-01
(PID.TID 0000.0001) %MON dynstat_uvel_mean            =   2.6615621358333E-01
(PID.TID 0000.0001) %MON dynstat_uvel_sd              =   3.2735393319018E-02
(PID.TID 0000.0001) %MON dynstat_uvel_del2            =   1.0091422682798E-03
(PID.TID 0000.0001) %MON dynstat_vvel_max             =   9.8995200391281E-02
(PID.TID 0000.0001) %MON dynstat_vvel_min             =  -2.1980681949759E-01
(PID.TID 0000.0001) %MON dynstat_vvel_mean            =   6.5903156415956E-04
(PID.TID 0000.0001) %MON dynstat_vvel_sd              =   2.1561132734127E-02
(PID.TID 0000.0001) %MON dynstat_vvel_del2            =   3.1736676910090E-04
(PID.TID 0000.0001) %MON dynstat_wvel_max             =   2.1503954486396E-02
(PID.TID 0000.0001) %MON dynstat_wvel_min             =  -2.3402275828548E-02
(PID.TID 0000.0001) %MON dynstat_wvel_mean            =   4.1047259433153E-19
(PID.TID 0000.0001) %MON dynstat_wvel_sd              =   2.0487374208030E-03
(PID.TID 0000.0001) %MON dynstat_wvel_del2            =   1.6929407704304E-04
(PID.TID 0000.0001) %MON dynstat_theta_max            =   7.0645217682794E-01
(PID.TID 0000.0001) %MON dynstat_theta_min            =  -7.1426439348320E-01
(PID.TID 0000.0001) %MON dynstat_theta_mean           =   1.8760674261912E-02
(PID.TID 0000.0001) %MON dynstat_theta_sd             =   4.5244850770832E-01
(PID.TID 0000.0001) %MON dynstat_theta_del2           =   1.6552627353179E-04
(PID.TID 0000.0001) %MON dynstat_salt_max             =   3.5000000000000E+01
(PID.TID 0000.0001) %MON dynstat_salt_min             =   3.5000000000000E+01
(PID.TID 0000.0001) %MON dynstat_salt_mean            =   3.5000000000000E+01
(PID.TID 0000.0001) %MON dynstat_salt_sd              =   4.9737991503207E-14
(PID.TID 0000.0001) %MON dynstat_salt_del2            =   0.0000000000000E+00
(PID.TID 0000.0001) %MON advcfl_uvel_max              =   7.3134456632975E-02
(PID.TID 0000.0001) %MON advcfl_vvel_max              =   2.6376818339710E-02
(PID.TID 0000.0001) %MON advcfl_wvel_max              =   2.4962427550451E-02
(PID.TID 0000.0001) %MON advcfl_W_hf_max              =   5.2998987897860E-02
(PID.TID 0000.0001) %MON pe_b_mean                    =   5.5905991517028E-04
(PID.TID 0000.0001) %MON ke_max                       =   1.9867502704299E-01
(PID.TID 0000.0001) %MON ke_mean                      =   3.6061721387638E-02
(PID.TID 0000.0001) %MON ke_vol                       =   3.6207071198500E+14
(PID.TID 0000.0001) %MON vort_r_min                   =  -1.5083216909234E-04
(PID.TID 0000.0001) %MON vort_r_max                   =   1.4624357774251E-04
(PID.TID 0000.0001) %MON vort_a_mean                  =   1.0000000000000E-04
(PID.TID 0000.0001) %MON vort_a_sd                    =   6.5818065499312E-06
(PID.TID 0000.0001) %MON vort_p_mean                  =   1.0161982423688E-04
(PID.TID 0000.0001) %MON vort_p_sd                    =   3.4761600746193E-05
(PID.TID 0000.0001) %MON surfExpan_theta_mean         =   3.1875335456715E-08
(PID.TID 0000.0001) %MON surfExpan_salt_mean          =  -1.1295091845451E-19
(PID.TID 0000.0001) // =======================================================
(PID.TID 0000.0001) // End MONITOR dynamic field statistics
(PID.TID 0000.0001) // =======================================================
 cg2d: Sum(rhs),rhsMax =  -4.52970994047064E-14  1.50104519135982E-01
(PID.TID 0000.0001)                    cg2d_init_res =    3.53144424417070E+00
(PID.TID 0000.0001)                       cg2d_iters =   197
(PID.TID 0000.0001)                         cg2d_res =    7.97395508268474E-14
(PID.TID 0000.0001) // =======================================================
(PID.TID 0000.0001) // Begin MONITOR dynamic field statistics
(PID.TID 0000.0001) // =======================================================
(PID.TID 0000.0001) %MON time_tsnumber                =                     7
(PID.TID 0000.0001) %MON time_secondsf                =   4.2000000000000E+03
(PID.TID 0000.0001) %MON dynstat_eta_max              =   8.3139774343940E-01
(PID.TID 0000.0001) %MON dynstat_eta_min              =  -8.3116010793407E-01
(PID.TID 0000.0001) %MON dynstat_eta_mean             =  -1.9922905734607E-16
(PID.TID 0000.0001) %MON dynstat_eta_sd               =   4.3270991950223E-01
(PID.TID 0000.0001) %MON dynstat_eta_del2             =   1.6869972684207E-02
(PID.TID 0000.0001) %MON dynstat_uvel_max             =   5.3526235288587E-01
(PID.TID 0000.0001) %MON dynstat_uvel_min             =   1.6576161276853E-01
(PID.TID 0000.0001) %MON dynstat_uvel_mean            =   2.5061289854757E-01
(PID.TID 0000.0001) %MON dynstat_uvel_sd              =   2.6023608723360E-02
(PID.TID 0000.0001) %MON dynstat_uvel_del2            =   6.8702901449367E-04
(PID.TID 0000.0001) %MON dynstat_vvel_max             =   9.7873055302936E-02
(PID.TID 0000.0001) %MON dynstat_vvel_min             =  -2.4026581438926E-01
(PID.TID 0000.0001) %MON dynstat_vvel_mean            =   4.8042230602204E-04
(PID.TID 0000.0001) %MON dynstat_vvel_sd              =   2.0559613232573E-02
(PID.TID 0000.0001) %MON dynstat_vvel_del2            =   3.2379206835095E-04
(PID.TID 0000.0001) %MON dynstat_wvel_max             =   2.0264986457707E-02
(PID.TID 0000.0001) %MON dynstat_wvel_min             =  -2.2132891144744E-02
(PID.TID 0000.0001) %MON dynstat_wvel_mean            =  -7.7607593637535E-19
(PID.TID 0000.0001) %MON dynstat_wvel_sd              =   1.8990171713249E-03
(PID.TID 0000.0001) %MON dynstat_wvel_del2            =   1.5383754598365E-04
(PID.TID 0000.0001) %MON dynstat_theta_max            =   7.0777464857284E-01
(PID.TID 0000.0001) %MON dynstat_theta_min            =  -7.1642380067656E-01
(PID.TID 0000.0001) %MON dynstat_theta_mean           =   1.8759563680737E-02
(PID.TID 0000.0001) %MON dynstat_theta_sd             =   4.5244757294663E-01
(PID.TID 0000.0001) %MON dynstat_theta_del2           =   1.6465812628126E-04
(PID.TID 0000.0001) %MON dynstat_salt_max             =   3.5000000000000E+01
(PID.TID 0000.0001) %MON dynstat_salt_min             =   3.5000000000000E+01
(PID.TID 0000.0001) %MON dynstat_salt_mean            =   3.5000000000000E+01
(PID.TID 0000.0001) %MON dynstat_salt_sd              =   4.9737991503207E-14
(PID.TID 0000.0001) %MON dynstat_salt_del2            =   0.0000000000000E+00
(PID.TID 0000.0001) %MON advcfl_uvel_max              =   6.4231482346304E-02
(PID.TID 0000.0001) %MON advcfl_vvel_max              =   2.8831897726711E-02
(PID.TID 0000.0001) %MON advcfl_wvel_max              =   2.3608417221060E-02
(PID.TID 0000.0001) %MON advcfl_W_hf_max              =   4.6611685553683E-02
(PID.TID 0000.0001) %MON pe_b_mean                    =   2.1306818384184E-04
(PID.TID 0000.0001) %MON ke_max                       =   1.6290455443222E-01
(PID.TID 0000.0001) %MON ke_mean                      =   3.1841965378656E-02
(PID.TID 0000.0001) %MON ke_vol                       =   3.6207071198500E+14
(PID.TID 0000.0001) %MON vort_r_min                   =  -1.4061454891850E-04
(PID.TID 0000.0001) %MON vort_r_max                   =   1.3510090776864E-04
(PID.TID 0000.0001) %MON vort_a_mean                  =   9.9999999999999E-05
(PID.TID 0000.0001) %MON vort_a_sd                    =   5.8365788932611E-06
(PID.TID 0000.0001) %MON vort_p_mean                  =   1.0161982423688E-04
(PID.TID 0000.0001) %MON vort_p_sd                    =   3.3700459164280E-05
(PID.TID 0000.0001) %MON surfExpan_theta_mean         =  -1.0596311339806E-07
(PID.TID 0000.0001) %MON surfExpan_salt_mean          =   5.9246745081168E-20
(PID.TID 0000.0001) // =======================================================
(PID.TID 0000.0001) // End MONITOR dynamic field statistics
(PID.TID 0000.0001) // =======================================================
 cg2d: Sum(rhs),rhsMax =  -6.06181771445335E-14  1.36883656514029E-01
(PID.TID 0000.0001)                    cg2d_init_res =    4.29000439334819E+00
(PID.TID 0000.0001)                       cg2d_iters =   195
(PID.TID 0000.0001)                         cg2d_res =    7.53348288166358E-14
(PID.TID 0000.0001) // =======================================================
(PID.TID 0000.0001) // Begin MONITOR dynamic field statistics
(PID.TID 0000.0001) // =======================================================
(PID.TID 0000.0001) %MON time_tsnumber                =                     8
(PID.TID 0000.0001) %MON time_secondsf                =   4.8000000000000E+03
(PID.TID 0000.0001) %MON dynstat_eta_max              =   3.4017494132989E-01
(PID.TID 0000.0001) %MON dynstat_eta_min              =  -3.4088032227224E-01
(PID.TID 0000.0001) %MON dynstat_eta_mean             =  -1.6596873670265E-16
(PID.TID 0000.0001) %MON dynstat_eta_sd               =   1.4723374153518E-01
(PID.TID 0000.0001) %MON dynstat_eta_del2             =   7.2544562978546E-03
(PID.TID 0000.0001) %MON dynstat_uvel_max             =   5.1388119824814E-01
(PID.TID 0000.0001) %MON dynstat_uvel_min             =   1.5859525415988E-01
(PID.TID 0000.0001) %MON dynstat_uvel_mean            =   2.4778228038143E-01
(PID.TID 0000.0001) %MON dynstat_uvel_sd              =   2.5111804426303E-02
(PID.TID 0000.0001) %MON dynstat_uvel_del2            =   6.6501081693789E-04
(PID.TID 0000.0001) %MON dynstat_vvel_max             =   1.0173210420356E-01
(PID.TID 0000.0001) %MON dynstat_vvel_min             =  -2.6316633556184E-01
(PID.TID 0000.0001) %MON dynstat_vvel_mean            =   1.6224881728802E-04
(PID.TID 0000.0001) %MON dynstat_vvel_sd              =   2.1033200755001E-02
(PID.TID 0000.0001) %MON dynstat_vvel_del2            =   3.3757787959855E-04
(PID.TID 0000.0001) %MON dynstat_wvel_max             =   2.0206525418157E-02
(PID.TID 0000.0001) %MON dynstat_wvel_min             =  -2.2028410235351E-02
(PID.TID 0000.0001) %MON dynstat_wvel_mean            =  -9.9972576820176E-19
(PID.TID 0000.0001) %MON dynstat_wvel_sd              =   1.8590769280815E-03
(PID.TID 0000.0001) %MON dynstat_wvel_del2            =   1.4079388952597E-04
(PID.TID 0000.0001) %MON dynstat_theta_max            =   7.0892439740898E-01
(PID.TID 0000.0001) %MON dynstat_theta_min            =  -7.1828197964170E-01
(PID.TID 0000.0001) %MON dynstat_theta_mean           =   1.8758627616230E-02
(PID.TID 0000.0001) %MON dynstat_theta_sd             =   4.5244673968388E-01
(PID.TID 0000.0001) %MON dynstat_theta_del2           =   1.6461191074465E-04
(PID.TID 0000.0001) %MON dynstat_salt_max             =   3.5000000000000E+01
(PID.TID 0000.0001) %MON dynstat_salt_min             =   3.5000000000000E+01
(PID.TID 0000.0001) %MON dynstat_salt_mean            =   3.5000000000000E+01
(PID.TID 0000.0001) %MON dynstat_salt_sd              =   4.9737991503207E-14
(PID.TID 0000.0001) %MON dynstat_salt_del2            =   0.0000000000000E+00
(PID.TID 0000.0001) %MON advcfl_uvel_max              =   6.1665743789777E-02
(PID.TID 0000.0001) %MON advcfl_vvel_max              =   3.1579960267421E-02
(PID.TID 0000.0001) %MON advcfl_wvel_max              =   2.3496970917708E-02
(PID.TID 0000.0001) %MON advcfl_W_hf_max              =   4.4756052354058E-02
(PID.TID 0000.0001) %MON pe_b_mean                    =   2.4668321447109E-05
(PID.TID 0000.0001) %MON ke_max                       =   1.5751836279075E-01
(PID.TID 0000.0001) %MON ke_mean                      =   3.1125525406197E-02
(PID.TID 0000.0001) %MON ke_vol                       =   3.6207071198500E+14
(PID.TID 0000.0001) %MON vort_r_min                   =  -1.4104905003466E-04
(PID.TID 0000.0001) %MON vort_r_max                   =   1.3462138797586E-04
(PID.TID 0000.0001) %MON vort_a_mean                  =   1.0000000000000E-04
(PID.TID 0000.0001) %MON vort_a_sd                    =   5.7297753364193E-06
(PID.TID 0000.0001) %MON vort_p_mean                  =   1.0161982423688E-04
(PID.TID 0000.0001) %MON vort_p_sd                    =   3.3532326265620E-05
(PID.TID 0000.0001) %MON surfExpan_theta_mean         =  -1.8240855868310E-07
(PID.TID 0000.0001) %MON surfExpan_salt_mean          =  -8.0540523245345E-18
(PID.TID 0000.0001) // =======================================================
(PID.TID 0000.0001) // End MONITOR dynamic field statistics
(PID.TID 0000.0001) // =======================================================
 cg2d: Sum(rhs),rhsMax =  -2.85327317328665E-14  1.41921083244036E-01
(PID.TID 0000.0001)                    cg2d_init_res =    2.61627618427000E+00
(PID.TID 0000.0001)                       cg2d_iters =   193
(PID.TID 0000.0001)                         cg2d_res =    9.23260651923838E-14
(PID.TID 0000.0001) // =======================================================
(PID.TID 0000.0001) // Begin MONITOR dynamic field statistics
(PID.TID 0000.0001) // =======================================================
(PID.TID 0000.0001) %MON time_tsnumber                =                     9
(PID.TID 0000.0001) %MON time_secondsf                =   5.4000000000000E+03
(PID.TID 0000.0001) %MON dynstat_eta_max              =   4.3942387640490E-01
(PID.TID 0000.0001) %MON dynstat_eta_min              =  -4.3955488578481E-01
(PID.TID 0000.0001) %MON dynstat_eta_mean             =  -2.4343372652770E-16
(PID.TID 0000.0001) %MON dynstat_eta_sd               =   1.9635271706224E-01
(PID.TID 0000.0001) %MON dynstat_eta_del2             =   8.1870792003990E-03
(PID.TID 0000.0001) %MON dynstat_uvel_max             =   5.3229463967713E-01
(PID.TID 0000.0001) %MON dynstat_uvel_min             =   1.6198746064357E-01
(PID.TID 0000.0001) %MON dynstat_uvel_mean            =   2.5297966520389E-01
(PID.TID 0000.0001) %MON dynstat_uvel_sd              =   2.6966132863089E-02
(PID.TID 0000.0001) %MON dynstat_uvel_del2            =   6.9248583116218E-04
(PID.TID 0000.0001) %MON dynstat_vvel_max             =   1.0920021940985E-01
(PID.TID 0000.0001) %MON dynstat_vvel_min             =  -2.8940345659286E-01
(PID.TID 0000.0001) %MON dynstat_vvel_mean            =  -8.0456027814766E-05
(PID.TID 0000.0001) %MON dynstat_vvel_sd              =   2.2431110698117E-02
(PID.TID 0000.0001) %MON dynstat_vvel_del2            =   3.5938946347928E-04
(PID.TID 0000.0001) %MON dynstat_wvel_max             =   2.0939010591650E-02
(PID.TID 0000.0001) %MON dynstat_wvel_min             =  -2.2749520641363E-02
(PID.TID 0000.0001) %MON dynstat_wvel_mean            =  -2.4369233066824E-19
(PID.TID 0000.0001) %MON dynstat_wvel_sd              =   1.8619686390430E-03
(PID.TID 0000.0001) %MON dynstat_wvel_del2            =   1.2688556413969E-04
(PID.TID 0000.0001) %MON dynstat_theta_max            =   7.1003810482097E-01
(PID.TID 0000.0001) %MON dynstat_theta_min            =  -7.2014670972679E-01
(PID.TID 0000.0001) %MON dynstat_theta_mean           =   1.8757834392070E-02
(PID.TID 0000.0001) %MON dynstat_theta_sd             =   4.5244595572183E-01
(PID.TID 0000.0001) %MON dynstat_theta_del2           =   1.6701623108303E-04
(PID.TID 0000.0001) %MON dynstat_salt_max             =   3.5000000000000E+01
(PID.TID 0000.0001) %MON dynstat_salt_min             =   3.5000000000000E+01
(PID.TID 0000.0001) %MON dynstat_salt_mean            =   3.5000000000000E+01
(PID.TID 0000.0001) %MON dynstat_salt_sd              =   4.9737991503207E-14
(PID.TID 0000.0001) %MON dynstat_salt_del2            =   0.0000000000000E+00
(PID.TID 0000.0001) %MON advcfl_uvel_max              =   6.3875356761255E-02
(PID.TID 0000.0001) %MON advcfl_vvel_max              =   3.4728414791144E-02
(PID.TID 0000.0001) %MON advcfl_wvel_max              =   2.4266155350787E-02
(PID.TID 0000.0001) %MON advcfl_W_hf_max              =   4.5755522714302E-02
(PID.TID 0000.0001) %MON pe_b_mean                    =   4.3873141447326E-05
(PID.TID 0000.0001) %MON ke_max                       =   1.6932571897493E-01
(PID.TID 0000.0001) %MON ke_mean                      =   3.2500689691952E-02
(PID.TID 0000.0001) %MON ke_vol                       =   3.6207071198500E+14
(PID.TID 0000.0001) %MON vort_r_min                   =  -1.4841922473449E-04
(PID.TID 0000.0001) %MON vort_r_max                   =   1.4093782588709E-04
(PID.TID 0000.0001) %MON vort_a_mean                  =   1.0000000000000E-04
(PID.TID 0000.0001) %MON vort_a_sd                    =   5.9824116405628E-06
(PID.TID 0000.0001) %MON vort_p_mean                  =   1.0161982423688E-04
(PID.TID 0000.0001) %MON vort_p_sd                    =   3.3882602816293E-05
(PID.TID 0000.0001) %MON surfExpan_theta_mean         =  -1.4048997450516E-07
(PID.TID 0000.0001) %MON surfExpan_salt_mean          =  -1.8833989859748E-17
(PID.TID 0000.0001) // =======================================================
(PID.TID 0000.0001) // End MONITOR dynamic field statistics
(PID.TID 0000.0001) // =======================================================
 cg2d: Sum(rhs),rhsMax =  -6.59472476627343E-14  1.50188334882635E-01
(PID.TID 0000.0001)                    cg2d_init_res =    8.35736372065514E-01
(PID.TID 0000.0001)                       cg2d_iters =   192
(PID.TID 0000.0001)                         cg2d_res =    9.89781246724147E-14
(PID.TID 0000.0001) // =======================================================
(PID.TID 0000.0001) // Begin MONITOR dynamic field statistics
(PID.TID 0000.0001) // =======================================================
(PID.TID 0000.0001) %MON time_tsnumber                =                    10
(PID.TID 0000.0001) %MON time_secondsf                =   6.0000000000000E+03
(PID.TID 0000.0001) %MON dynstat_eta_max              =   5.1607275517911E-01
(PID.TID 0000.0001) %MON dynstat_eta_min              =  -5.1535833201998E-01
(PID.TID 0000.0001) %MON dynstat_eta_mean             =  -1.5263626026729E-16
(PID.TID 0000.0001) %MON dynstat_eta_sd               =   2.3825533039451E-01
(PID.TID 0000.0001) %MON dynstat_eta_del2             =   9.3577577748520E-03
(PID.TID 0000.0001) %MON dynstat_uvel_max             =   5.5759752400204E-01
(PID.TID 0000.0001) %MON dynstat_uvel_min             =   1.6735829274765E-01
(PID.TID 0000.0001) %MON dynstat_uvel_mean            =   2.5992998687589E-01
(PID.TID 0000.0001) %MON dynstat_uvel_sd              =   2.9917795684878E-02
(PID.TID 0000.0001) %MON dynstat_uvel_del2            =   8.2465933136061E-04
(PID.TID 0000.0001) %MON dynstat_vvel_max             =   1.1785076402684E-01
(PID.TID 0000.0001) %MON dynstat_vvel_min             =  -3.1759906980366E-01
(PID.TID 0000.0001) %MON dynstat_vvel_mean            =  -1.6922126188910E-04
(PID.TID 0000.0001) %MON dynstat_vvel_sd              =   2.4100355969174E-02
(PID.TID 0000.0001) %MON dynstat_vvel_del2            =   3.8186005039542E-04
(PID.TID 0000.0001) %MON dynstat_wvel_max             =   2.1847855594095E-02
(PID.TID 0000.0001) %MON dynstat_wvel_min             =  -2.3695582894239E-02
(PID.TID 0000.0001) %MON dynstat_wvel_mean            =   3.9067177775062E-19
(PID.TID 0000.0001) %MON dynstat_wvel_sd              =   1.8902823078088E-03
(PID.TID 0000.0001) %MON dynstat_wvel_del2            =   1.1493896948741E-04
(PID.TID 0000.0001) %MON dynstat_theta_max            =   7.1115639409362E-01
(PID.TID 0000.0001) %MON dynstat_theta_min            =  -7.2212265126300E-01
(PID.TID 0000.0001) %MON dynstat_theta_mean           =   1.8757159315357E-02
(PID.TID 0000.0001) %MON dynstat_theta_sd             =   4.5244518575320E-01
(PID.TID 0000.0001) %MON dynstat_theta_del2           =   1.7018368032254E-04
(PID.TID 0000.0001) %MON dynstat_salt_max             =   3.5000000000000E+01
(PID.TID 0000.0001) %MON dynstat_salt_min             =   3.5000000000000E+01
(PID.TID 0000.0001) %MON dynstat_salt_mean            =   3.5000000000000E+01
(PID.TID 0000.0001) %MON dynstat_salt_sd              =   4.9737991503207E-14
(PID.TID 0000.0001) %MON dynstat_salt_del2            =   0.0000000000000E+00
(PID.TID 0000.0001) %MON advcfl_uvel_max              =   6.6911702880245E-02
(PID.TID 0000.0001) %MON advcfl_vvel_max              =   3.8111888376439E-02
(PID.TID 0000.0001) %MON advcfl_wvel_max              =   2.5275288420522E-02
(PID.TID 0000.0001) %MON advcfl_W_hf_max              =   4.7371977799428E-02
(PID.TID 0000.0001) %MON pe_b_mean                    =   6.4596673389905E-05
(PID.TID 0000.0001) %MON ke_max                       =   1.8554507817223E-01
(PID.TID 0000.0001) %MON ke_mean                      =   3.4399281874036E-02
(PID.TID 0000.0001) %MON ke_vol                       =   3.6207071198500E+14
(PID.TID 0000.0001) %MON vort_r_min                   =  -1.5750212766127E-04
(PID.TID 0000.0001) %MON vort_r_max                   =   1.4875231511989E-04
(PID.TID 0000.0001) %MON vort_a_mean                  =   1.0000000000000E-04
(PID.TID 0000.0001) %MON vort_a_sd                    =   6.3350769163422E-06
(PID.TID 0000.0001) %MON vort_p_mean                  =   1.0161982423688E-04
(PID.TID 0000.0001) %MON vort_p_sd                    =   3.4365685195142E-05
(PID.TID 0000.0001) %MON surfExpan_theta_mean         =  -3.4174337942812E-08
(PID.TID 0000.0001) %MON surfExpan_salt_mean          =  -4.1369049984075E-19
(PID.TID 0000.0001) // =======================================================
(PID.TID 0000.0001) // End MONITOR dynamic field statistics
(PID.TID 0000.0001) // =======================================================
(PID.TID 0000.0001) %CHECKPOINT        10 0000000010
(PID.TID 0000.0001)   Seconds in section "ALL                    [THE_MODEL_MAIN]":
(PID.TID 0000.0001)           User time:  5.96000004
(PID.TID 0000.0001)         System time:  0.140000001
(PID.TID 0000.0001)     Wall clock time:  6.68945503
(PID.TID 0000.0001)          No. starts: 1
(PID.TID 0000.0001)           No. stops: 1
(PID.TID 0000.0001)   Seconds in section "INITIALISE_FIXED       [THE_MODEL_MAIN]":
(PID.TID 0000.0001)           User time:  0.129999995
(PID.TID 0000.0001)         System time:  0.00999999978
(PID.TID 0000.0001)     Wall clock time:  0.298267961
(PID.TID 0000.0001)          No. starts: 1
(PID.TID 0000.0001)           No. stops: 1
(PID.TID 0000.0001)   Seconds in section "THE_MAIN_LOOP          [THE_MODEL_MAIN]":
(PID.TID 0000.0001)           User time:  5.83000004
(PID.TID 0000.0001)         System time:  0.130000001
(PID.TID 0000.0001)     Wall clock time:  6.39106297
(PID.TID 0000.0001)          No. starts: 1
(PID.TID 0000.0001)           No. stops: 1
(PID.TID 0000.0001)   Seconds in section "INITIALISE_VARIA    [THE_MAIN_LOOP]":
(PID.TID 0000.0001)           User time:  0.0400000066
(PID.TID 0000.0001)         System time:  0.
(PID.TID 0000.0001)     Wall clock time:  0.0370889902
(PID.TID 0000.0001)          No. starts: 1
(PID.TID 0000.0001)           No. stops: 1
(PID.TID 0000.0001)   Seconds in section "MONITOR             [THE_MAIN_LOOP]":
(PID.TID 0000.0001)           User time:  0.0600000024
(PID.TID 0000.0001)         System time:  0.
(PID.TID 0000.0001)     Wall clock time:  0.0627900362
(PID.TID 0000.0001)          No. starts: 1
(PID.TID 0000.0001)           No. stops: 1
(PID.TID 0000.0001)   Seconds in section "DO_THE_MODEL_IO     [THE_MAIN_LOOP]":
(PID.TID 0000.0001)           User time:  0.0400000066
(PID.TID 0000.0001)         System time:  0.
(PID.TID 0000.0001)     Wall clock time:  0.143793106
(PID.TID 0000.0001)          No. starts: 1
(PID.TID 0000.0001)           No. stops: 1
(PID.TID 0000.0001)   Seconds in section "MAIN LOOP           [THE_MAIN_LOOP]":
(PID.TID 0000.0001)           User time:  5.69000003
(PID.TID 0000.0001)         System time:  0.130000001
(PID.TID 0000.0001)     Wall clock time:  6.14727497
(PID.TID 0000.0001)          No. starts: 1
(PID.TID 0000.0001)           No. stops: 1
(PID.TID 0000.0001)   Seconds in section "FORWARD_STEP        [THE_MAIN_LOOP]":
(PID.TID 0000.0001)           User time:  5.69000003
(PID.TID 0000.0001)         System time:  0.130000001
(PID.TID 0000.0001)     Wall clock time:  6.14704418
(PID.TID 0000.0001)          No. starts: 10
(PID.TID 0000.0001)           No. stops: 10
(PID.TID 0000.0001)   Seconds in section "EXTERNAL_FIELDS_LOAD[FORWARD_STEP]":
(PID.TID 0000.0001)           User time:  0.
(PID.TID 0000.0001)         System time:  0.
(PID.TID 0000.0001)     Wall clock time:  0.000206112862
(PID.TID 0000.0001)          No. starts: 10
(PID.TID 0000.0001)           No. stops: 10
(PID.TID 0000.0001)   Seconds in section "THERMODYNAMICS      [FORWARD_STEP]":
(PID.TID 0000.0001)           User time:  0.690000057
(PID.TID 0000.0001)         System time:  0.00999999978
(PID.TID 0000.0001)     Wall clock time:  0.689936996
(PID.TID 0000.0001)          No. starts: 10
(PID.TID 0000.0001)           No. stops: 10
(PID.TID 0000.0001)   Seconds in section "BLOCKING_EXCHANGES  [FORWARD_STEP]":
(PID.TID 0000.0001)           User time:  0.0399999619
(PID.TID 0000.0001)         System time:  0.
(PID.TID 0000.0001)     Wall clock time:  0.0186146498
(PID.TID 0000.0001)          No. starts: 20
(PID.TID 0000.0001)           No. stops: 20
(PID.TID 0000.0001)   Seconds in section "DYNAMICS            [FORWARD_STEP]":
(PID.TID 0000.0001)           User time:  0.809999704
(PID.TID 0000.0001)         System time:  0.
(PID.TID 0000.0001)     Wall clock time:  0.830625176
(PID.TID 0000.0001)          No. starts: 10
(PID.TID 0000.0001)           No. stops: 10
(PID.TID 0000.0001)   Seconds in section "SOLVE_FOR_PRESSURE  [FORWARD_STEP]":
(PID.TID 0000.0001)           User time:  3.26999995
(PID.TID 0000.0001)         System time:  0.
(PID.TID 0000.0001)     Wall clock time:  3.26043427
(PID.TID 0000.0001)          No. starts: 10
(PID.TID 0000.0001)           No. stops: 10
(PID.TID 0000.0001)   Seconds in section "THE_CORRECTION_STEP [FORWARD_STEP]":
(PID.TID 0000.0001)           User time:  0.110000432
(PID.TID 0000.0001)         System time:  0.
(PID.TID 0000.0001)     Wall clock time:  0.115787029
(PID.TID 0000.0001)          No. starts: 10
(PID.TID 0000.0001)           No. stops: 10
(PID.TID 0000.0001)   Seconds in section "MONITOR             [FORWARD_STEP]":
(PID.TID 0000.0001)           User time:  0.620000064
(PID.TID 0000.0001)         System time:  0.00999999791
(PID.TID 0000.0001)     Wall clock time:  0.63935113
(PID.TID 0000.0001)          No. starts: 10
(PID.TID 0000.0001)           No. stops: 10
(PID.TID 0000.0001)   Seconds in section "DO_THE_MODEL_IO     [FORWARD_STEP]":
(PID.TID 0000.0001)           User time:  0.0199999809
(PID.TID 0000.0001)         System time:  0.0300000049
(PID.TID 0000.0001)     Wall clock time:  0.0860108137
(PID.TID 0000.0001)          No. starts: 10
(PID.TID 0000.0001)           No. stops: 10
(PID.TID 0000.0001)   Seconds in section "WRITE_CHECKPOINT    [FORWARD_STEP]":
(PID.TID 0000.0001)           User time:  0.129999876
(PID.TID 0000.0001)         System time:  0.0799999982
(PID.TID 0000.0001)     Wall clock time:  0.503716111
(PID.TID 0000.0001)          No. starts: 10
(PID.TID 0000.0001)           No. stops: 10
(PID.TID 0000.0001)   Seconds in section "WRITE_CHECKPOINT       [THE_MODEL_MAIN]":
(PID.TID 0000.0001)           User time:  0.
(PID.TID 0000.0001)         System time:  0.
(PID.TID 0000.0001)     Wall clock time:  2.20537186E-05
(PID.TID 0000.0001)          No. starts: 1
(PID.TID 0000.0001)           No. stops: 1
(PID.TID 0000.0001) // ======================================================
(PID.TID 0000.0001) // Tile <-> Tile communication statistics
(PID.TID 0000.0001) // ======================================================
(PID.TID 0000.0001) // o Tile number: 000001
(PID.TID 0000.0001) //         No. X exchanges =              0
(PID.TID 0000.0001) //            Max. X spins =              0
(PID.TID 0000.0001) //            Min. X spins =     1000000000
(PID.TID 0000.0001) //          Total. X spins =              0
(PID.TID 0000.0001) //            Avg. X spins =       0.00E+00
(PID.TID 0000.0001) //         No. Y exchanges =              0
(PID.TID 0000.0001) //            Max. Y spins =              0
(PID.TID 0000.0001) //            Min. Y spins =     1000000000
(PID.TID 0000.0001) //          Total. Y spins =              0
(PID.TID 0000.0001) //            Avg. Y spins =       0.00E+00
(PID.TID 0000.0001) // o Tile number: 000002
(PID.TID 0000.0001) //         No. X exchanges =              0
(PID.TID 0000.0001) //            Max. X spins =              0
(PID.TID 0000.0001) //            Min. X spins =     1000000000
(PID.TID 0000.0001) //          Total. X spins =              0
(PID.TID 0000.0001) //            Avg. X spins =       0.00E+00
(PID.TID 0000.0001) //         No. Y exchanges =              0
(PID.TID 0000.0001) //            Max. Y spins =              0
(PID.TID 0000.0001) //            Min. Y spins =     1000000000
(PID.TID 0000.0001) //          Total. Y spins =              0
(PID.TID 0000.0001) //            Avg. Y spins =       0.00E+00
(PID.TID 0000.0001) // o Thread number: 000001
(PID.TID 0000.0001) //            No. barriers =          27490
(PID.TID 0000.0001) //      Max. barrier spins =              1
(PID.TID 0000.0001) //      Min. barrier spins =              1
(PID.TID 0000.0001) //     Total barrier spins =          27490
(PID.TID 0000.0001) //      Avg. barrier spins =       1.00E+00
