(PID.TID 0000.0001) 
(PID.TID 0000.0001) // ======================================================
(PID.TID 0000.0001) //                      MITgcm UV
(PID.TID 0000.0001) //                      =========
(PID.TID 0000.0001) // ======================================================
(PID.TID 0000.0001) // execution environment starting up...
(PID.TID 0000.0001) 
(PID.TID 0000.0001) // MITgcmUV version:  checkpoint62m
(PID.TID 0000.0001) // Build user:        jmc
(PID.TID 0000.0001) // Build host:        baudelaire
(PID.TID 0000.0001) // Build date:        Mon Nov  8 03:12:44 EST 2010
(PID.TID 0000.0001) 
(PID.TID 0000.0001) // =======================================================
(PID.TID 0000.0001) // Execution Environment parameter file "eedata"
(PID.TID 0000.0001) // =======================================================
(PID.TID 0000.0001) ># Example "eedata" file
(PID.TID 0000.0001) ># Lines beginning "#" are comments
(PID.TID 0000.0001) ># nTx - No. threads per process in X
(PID.TID 0000.0001) ># nTy - No. threads per process in Y
(PID.TID 0000.0001) > &EEPARMS
(PID.TID 0000.0001) > /
(PID.TID 0000.0001) ># Note: Some systems use & as the
(PID.TID 0000.0001) ># namelist terminator. Other systems
(PID.TID 0000.0001) ># use a / character (as shown here).
(PID.TID 0000.0001) 
(PID.TID 0000.0001) // =======================================================
(PID.TID 0000.0001) // Computational Grid Specification ( see files "SIZE.h" )
(PID.TID 0000.0001) //                                  ( and "eedata"       )
(PID.TID 0000.0001) // =======================================================
(PID.TID 0000.0001)      nPx =    1 ; /* No. processes in X */
(PID.TID 0000.0001)      nPy =    1 ; /* No. processes in Y */
(PID.TID 0000.0001)      nSx =    2 ; /* No. tiles in X per process */
(PID.TID 0000.0001)      nSy =    2 ; /* No. tiles in Y per process */
(PID.TID 0000.0001)      sNx =   40 ; /* Tile size in X */
(PID.TID 0000.0001)      sNy =   21 ; /* Tile size in Y */
(PID.TID 0000.0001)      OLx =    2 ; /* Tile overlap distance in X */
(PID.TID 0000.0001)      OLy =    2 ; /* Tile overlap distance in Y */
(PID.TID 0000.0001)      nTx =    1 ; /* No. threads in X per process */
(PID.TID 0000.0001)      nTy =    1 ; /* No. threads in Y per process */
(PID.TID 0000.0001)       Nr =    8 ; /* No. levels in the vertical   */
(PID.TID 0000.0001)       Nx =   80 ; /* Total domain size in X ( = nPx*nSx*sNx ) */
(PID.TID 0000.0001)       Ny =   42 ; /* Total domain size in Y ( = nPy*nSy*sNy ) */
(PID.TID 0000.0001)   nTiles =    4 ; /* Total no. tiles per process ( = nSx*nSy ) */
(PID.TID 0000.0001)   nProcs =    1 ; /* Total no. processes ( = nPx*nPy ) */
(PID.TID 0000.0001) nThreads =    1 ; /* Total no. threads per process ( = nTx*nTy ) */
(PID.TID 0000.0001) usingMPI =    F ; /* Flag used to control whether MPI is in use */
(PID.TID 0000.0001)                   /*  note: To execute a program with MPI calls */
(PID.TID 0000.0001)                   /*  it must be launched appropriately e.g     */
(PID.TID 0000.0001)                   /*  "mpirun -np 64 ......"                    */
(PID.TID 0000.0001) useCoupler=    F ;/* Flag used to control communications with   */
(PID.TID 0000.0001)                   /*  other model components, through a coupler */
(PID.TID 0000.0001) printMapIncludesZeros=    F ; /* print zeros in Std.Output maps */
(PID.TID 0000.0001) maxLengthPrt1D=   65 /* maxLength of 1D array printed to StdOut */
(PID.TID 0000.0001) 
(PID.TID 0000.0001) // ======================================================
(PID.TID 0000.0001) // Mapping of tiles to threads
(PID.TID 0000.0001) // ======================================================
(PID.TID 0000.0001) // -o- Thread   1, tiles (   1:   2,   1:   2)
(PID.TID 0000.0001) 
(PID.TID 0000.0001) // ======================================================
(PID.TID 0000.0001) // Tile <-> Tile connectvity table
(PID.TID 0000.0001) // ======================================================
(PID.TID 0000.0001) // Tile number: 000001 (process no. = 000001)
(PID.TID 0000.0001) //        WEST: Tile = 000002, Process = 000001, Comm = put
(PID.TID 0000.0001) //                bi = 000002, bj = 000001
(PID.TID 0000.0001) //        EAST: Tile = 000002, Process = 000001, Comm = put
(PID.TID 0000.0001) //                bi = 000002, bj = 000001
(PID.TID 0000.0001) //       SOUTH: Tile = 000003, Process = 000001, Comm = put
(PID.TID 0000.0001) //                bi = 000001, bj = 000002
(PID.TID 0000.0001) //       NORTH: Tile = 000003, Process = 000001, Comm = put
(PID.TID 0000.0001) //                bi = 000001, bj = 000002
(PID.TID 0000.0001) // Tile number: 000002 (process no. = 000001)
(PID.TID 0000.0001) //        WEST: Tile = 000001, Process = 000001, Comm = put
(PID.TID 0000.0001) //                bi = 000001, bj = 000001
(PID.TID 0000.0001) //        EAST: Tile = 000001, Process = 000001, Comm = put
(PID.TID 0000.0001) //                bi = 000001, bj = 000001
(PID.TID 0000.0001) //       SOUTH: Tile = 000004, Process = 000001, Comm = put
(PID.TID 0000.0001) //                bi = 000002, bj = 000002
(PID.TID 0000.0001) //       NORTH: Tile = 000004, Process = 000001, Comm = put
(PID.TID 0000.0001) //                bi = 000002, bj = 000002
(PID.TID 0000.0001) // Tile number: 000003 (process no. = 000001)
(PID.TID 0000.0001) //        WEST: Tile = 000004, Process = 000001, Comm = put
(PID.TID 0000.0001) //                bi = 000002, bj = 000002
(PID.TID 0000.0001) //        EAST: Tile = 000004, Process = 000001, Comm = put
(PID.TID 0000.0001) //                bi = 000002, bj = 000002
(PID.TID 0000.0001) //       SOUTH: Tile = 000001, Process = 000001, Comm = put
(PID.TID 0000.0001) //                bi = 000001, bj = 000001
(PID.TID 0000.0001) //       NORTH: Tile = 000001, Process = 000001, Comm = put
(PID.TID 0000.0001) //                bi = 000001, bj = 000001
(PID.TID 0000.0001) // Tile number: 000004 (process no. = 000001)
(PID.TID 0000.0001) //        WEST: Tile = 000003, Process = 000001, Comm = put
(PID.TID 0000.0001) //                bi = 000001, bj = 000002
(PID.TID 0000.0001) //        EAST: Tile = 000003, Process = 000001, Comm = put
(PID.TID 0000.0001) //                bi = 000001, bj = 000002
(PID.TID 0000.0001) //       SOUTH: Tile = 000002, Process = 000001, Comm = put
(PID.TID 0000.0001) //                bi = 000002, bj = 000001
(PID.TID 0000.0001) //       NORTH: Tile = 000002, Process = 000001, Comm = put
(PID.TID 0000.0001) //                bi = 000002, bj = 000001
(PID.TID 0000.0001) 
(PID.TID 0000.0001) DEBUG_MSG: ENTERED S/R THE_MODEL_MAIN
(PID.TID 0000.0001) DEBUG_MSG: CALLING S/R INITIALISE_FIXED
(PID.TID 0000.0001) // =======================================================
(PID.TID 0000.0001) // Model parameter file "data"
(PID.TID 0000.0001) // =======================================================
(PID.TID 0000.0001) ># ====================
(PID.TID 0000.0001) ># | Model parameters |
(PID.TID 0000.0001) ># ====================
(PID.TID 0000.0001) >#
(PID.TID 0000.0001) ># Continuous equation parameters
(PID.TID 0000.0001) > &PARM01
(PID.TID 0000.0001) > tRef= 0.696834, 0.497738, 0.298643, 0.0995477, -0.0995477, -0.298643, -0.497738, -0.696834,
(PID.TID 0000.0001) > sRef= 8*35.,
(PID.TID 0000.0001) > viscAz=1.E-3,
(PID.TID 0000.0001) > viscAh=1.E3,
(PID.TID 0000.0001) > no_slip_sides=.FALSE.,
(PID.TID 0000.0001) > no_slip_bottom=.FALSE.,
(PID.TID 0000.0001) > viscA4=0.E12,
(PID.TID 0000.0001) > diffKhT=1.E3,
(PID.TID 0000.0001) > diffKzT=1.E-5,
(PID.TID 0000.0001) > diffKhS=1.E3,
(PID.TID 0000.0001) > diffKzS=1.E-5,
(PID.TID 0000.0001) > f0=1.e-4,
(PID.TID 0000.0001) > beta=0.E-11,
(PID.TID 0000.0001) > tAlpha=2.E-4,
(PID.TID 0000.0001) > sBeta =0.E-4,
(PID.TID 0000.0001) > gravity=9.81,
(PID.TID 0000.0001) > gBaro=9.81,
(PID.TID 0000.0001) > rigidLid=.FALSE.,
(PID.TID 0000.0001) > implicitFreeSurface=.TRUE.,
(PID.TID 0000.0001) > eosType='LINEAR',
(PID.TID 0000.0001) > hFacMin=0.2,
(PID.TID 0000.0001) > saltAdvScheme=4,
(PID.TID 0000.0001) > nonHydrostatic=.FALSE.,
(PID.TID 0000.0001) > readBinaryPrec=64,
(PID.TID 0000.0001) >#- not safe to use globalFiles in multi-processors runs
(PID.TID 0000.0001) >#globalFiles=.TRUE.,
(PID.TID 0000.0001) > /
(PID.TID 0000.0001) >
(PID.TID 0000.0001) ># Elliptic solver parameters
(PID.TID 0000.0001) > &PARM02
(PID.TID 0000.0001) > cg2dMaxIters=1000,
(PID.TID 0000.0001) > cg2dTargetResidual=1.E-13,
(PID.TID 0000.0001) > cg3dMaxIters=400,
(PID.TID 0000.0001) > cg3dTargetResidual=1.E-13,
(PID.TID 0000.0001) > /
(PID.TID 0000.0001) >
(PID.TID 0000.0001) ># Time stepping parameters
(PID.TID 0000.0001) > &PARM03
(PID.TID 0000.0001) > niter0=0,
(PID.TID 0000.0001) > nTimeSteps=10,
(PID.TID 0000.0001) > deltaT=600.0,
(PID.TID 0000.0001) > abEps=0.1,
(PID.TID 0000.0001) > pChkptFreq=0.0,
(PID.TID 0000.0001) > chkptFreq=0.0,
(PID.TID 0000.0001) > dumpFreq=10800.0,
(PID.TID 0000.0001) > monitorSelect=2,
(PID.TID 0000.0001) > monitorFreq=1.,
(PID.TID 0000.0001) ># for time dependent open boundary conditions comment
(PID.TID 0000.0001) ># in the following three lines
(PID.TID 0000.0001) ># periodicExternalForcing=.TRUE.,
(PID.TID 0000.0001) ># externForcingPeriod=600.,
(PID.TID 0000.0001) ># externForcingCycle=1200.,
(PID.TID 0000.0001) > /
(PID.TID 0000.0001) >
(PID.TID 0000.0001) ># Gridding parameters
(PID.TID 0000.0001) > &PARM04
(PID.TID 0000.0001) > usingCartesianGrid=.TRUE.,
(PID.TID 0000.0001) > usingSphericalPolarGrid=.FALSE.,
(PID.TID 0000.0001) > delX=80*5.e3,
(PID.TID 0000.0001) > delY=42*5.e3,
(PID.TID 0000.0001) > delZ= 8*562.5,
(PID.TID 0000.0001) > /
(PID.TID 0000.0001) >
(PID.TID 0000.0001) ># Input datasets
(PID.TID 0000.0001) > &PARM05
(PID.TID 0000.0001) > bathyFile='topog.bump',
(PID.TID 0000.0001) > /
(PID.TID 0000.0001) 
(PID.TID 0000.0001) S/R INI_PARMS ; starts to read PARM01
(PID.TID 0000.0001) S/R INI_PARMS ; read PARM01 : OK
(PID.TID 0000.0001) S/R INI_PARMS ; starts to read PARM02
(PID.TID 0000.0001) S/R INI_PARMS ; read PARM02 : OK
(PID.TID 0000.0001) S/R INI_PARMS ; starts to read PARM03
(PID.TID 0000.0001) S/R INI_PARMS ; read PARM03 : OK
(PID.TID 0000.0001) S/R INI_PARMS ; starts to read PARM04
(PID.TID 0000.0001) S/R INI_PARMS ; read PARM04 : OK
(PID.TID 0000.0001) S/R INI_PARMS ; starts to read PARM05
(PID.TID 0000.0001) S/R INI_PARMS ; read PARM05 : OK
(PID.TID 0000.0001)  PACKAGES_BOOT: opening data.pkg
(PID.TID 0000.0001)  OPEN_COPY_DATA_FILE: opening file data.pkg
(PID.TID 0000.0001) // =======================================================
(PID.TID 0000.0001) // Parameter file "data.pkg"
(PID.TID 0000.0001) // =======================================================
(PID.TID 0000.0001) ># Packages
(PID.TID 0000.0001) > &PACKAGES
(PID.TID 0000.0001) > useOBCS=.TRUE.,
(PID.TID 0000.0001) > usePtracers=.TRUE.,
(PID.TID 0000.0001) > useRBCS=.TRUE.,
(PID.TID 0000.0001) >#useLayers=.TRUE.,
(PID.TID 0000.0001) > /
(PID.TID 0000.0001) 
(PID.TID 0000.0001)  PACKAGES_BOOT: finished reading data.pkg
(PID.TID 0000.0001)  OPEN_COPY_DATA_FILE: opening file data.obcs
(PID.TID 0000.0001) // =======================================================
(PID.TID 0000.0001) // Parameter file "data.obcs"
(PID.TID 0000.0001) // =======================================================
(PID.TID 0000.0001) ># Open-boundaries
(PID.TID 0000.0001) > &OBCS_PARM01
(PID.TID 0000.0001) ># This flag turns off checking and fixing problematic topography across
(PID.TID 0000.0001) ># open boundaries. We set it here to override the default because
(PID.TID 0000.0001) ># we want to reproduce old results (including their bugs).
(PID.TID 0000.0001) > OBCSfixTopo=.FALSE.,
(PID.TID 0000.0001) > OB_Jnorth=80*-1,
(PID.TID 0000.0001) > OB_Jsouth=80*1,
(PID.TID 0000.0001) > OB_Ieast=42*-1,
(PID.TID 0000.0001) > OB_Iwest=42*1,
(PID.TID 0000.0001) >#useOrlanskiNorth=.TRUE.,
(PID.TID 0000.0001) >#useOrlanskiSouth=.TRUE.,
(PID.TID 0000.0001) >#useOrlanskiEast=.TRUE.,
(PID.TID 0000.0001) >#useOrlanskiWest=.FALSE.,
(PID.TID 0000.0001) > useOBCSprescribe = .TRUE.,
(PID.TID 0000.0001) > OBNuFile = 'OBmeridU.bin',
(PID.TID 0000.0001) > OBSuFile = 'OBmeridU.bin',
(PID.TID 0000.0001) > OBWuFile = 'OBzonalU.bin',
(PID.TID 0000.0001) > OBEuFile = 'OBzonalU.bin',
(PID.TID 0000.0001) > OBWsFile = 'OBzonalS.bin',
(PID.TID 0000.0001) > OBWptrFile(1) = 'OBzonalS.bin',
(PID.TID 0000.0001) > /
(PID.TID 0000.0001) >
(PID.TID 0000.0001) ># Orlanski parameters
(PID.TID 0000.0001) > &OBCS_PARM02
(PID.TID 0000.0001) >#Cmax=0.45,
(PID.TID 0000.0001) >#cVelTimeScale=1000.,
(PID.TID 0000.0001) > /
(PID.TID 0000.0001) 
(PID.TID 0000.0001)  PTRACERS_READPARMS: opening data.ptracers
(PID.TID 0000.0001)  OPEN_COPY_DATA_FILE: opening file data.ptracers
(PID.TID 0000.0001) // =======================================================
(PID.TID 0000.0001) // Parameter file "data.ptracers"
(PID.TID 0000.0001) // =======================================================
(PID.TID 0000.0001) ># This set-up is supposed to mimic salinity. That is, initially
(PID.TID 0000.0001) ># PTRACER(:,:,:,1) is identical to salinity, except that
(PID.TID 0000.0001) ># 1) the default (i.e., not explicitly specified) open boundary conditions
(PID.TID 0000.0001) ># are different, so that PTRACER(:,:,:,1) evolves differently than salinity.
(PID.TID 0000.0001) ># 2) a weak relaxation is applied in the Eastern part of the channel (using rbcs).
(PID.TID 0000.0001) > &PTRACERS_PARM01
(PID.TID 0000.0001) > PTRACERS_numInUse=1,
(PID.TID 0000.0001) > PTRACERS_ref(1,1) = 8*35.,
(PID.TID 0000.0001) > PTRACERS_names(1)='salt_mimic',
(PID.TID 0000.0001) > PTRACERS_advScheme(1)=4,
(PID.TID 0000.0001) > /
(PID.TID 0000.0001) 
(PID.TID 0000.0001)  PTRACERS_READPARMS: finished reading data.ptracers
(PID.TID 0000.0001) // ===================================
(PID.TID 0000.0001) // PTRACERS parameters
(PID.TID 0000.0001) // ===================================
(PID.TID 0000.0001) PTRACERS_numInUse = /* number of tracers */
(PID.TID 0000.0001)                       1
(PID.TID 0000.0001)     ;
(PID.TID 0000.0001) PTRACERS_Iter0 = /* timestep number when tracers are initialized */
(PID.TID 0000.0001)                       0
(PID.TID 0000.0001)     ;
(PID.TID 0000.0001) PTRACERS_addSrelax2EmP =/* add Salt relaxation to EmP */
(PID.TID 0000.0001)                   F
(PID.TID 0000.0001)     ;
(PID.TID 0000.0001) PTRACERS_dTLev =   /* Ptracer timestep ( s ) */
(PID.TID 0000.0001)     8 @  6.000000000000000E+02              /* K =  1:  8 */
(PID.TID 0000.0001)     ;
(PID.TID 0000.0001) PTRACERS_dumpFreq = /* Frequency^-1 for snapshot output (s) */
(PID.TID 0000.0001)                 1.080000000000000E+04
(PID.TID 0000.0001)     ;
(PID.TID 0000.0001) PTRACERS_taveFreq = /* Frequency^-1 for time-Aver. output (s) */
(PID.TID 0000.0001)                 0.000000000000000E+00
(PID.TID 0000.0001)     ;
(PID.TID 0000.0001) PTRACERS_useRecords = /* all tracers in 1 file */
(PID.TID 0000.0001)                   F
(PID.TID 0000.0001)     ;
(PID.TID 0000.0001) PTRACERS_timeave_mnc = /* use MNC for Tave output */
(PID.TID 0000.0001)                   F
(PID.TID 0000.0001)     ;
(PID.TID 0000.0001) PTRACERS_snapshot_mnc = /* use MNC for snapshot output */
(PID.TID 0000.0001)                   F
(PID.TID 0000.0001)     ;
(PID.TID 0000.0001) PTRACERS_pickup_write_mnc = /* use MNC for writing pickups */
(PID.TID 0000.0001)                   F
(PID.TID 0000.0001)     ;
(PID.TID 0000.0001) PTRACERS_pickup_read_mnc = /* use MNC for reading pickups */
(PID.TID 0000.0001)                   F
(PID.TID 0000.0001)     ;
(PID.TID 0000.0001)  -----------------------------------
(PID.TID 0000.0001)  tracer number :    1
(PID.TID 0000.0001) PTRACERS_ioLabel = /* tracer IO Label */
(PID.TID 0000.0001)               '01'
(PID.TID 0000.0001)     ;
(PID.TID 0000.0001) PTRACERS_advScheme = /* Advection Scheme */
(PID.TID 0000.0001)                       4
(PID.TID 0000.0001)     ;
(PID.TID 0000.0001) PTRACERS_ImplVertAdv = /* implicit vert. advection flag */
(PID.TID 0000.0001)                   F
(PID.TID 0000.0001)     ;
(PID.TID 0000.0001) PTRACERS_diffKh = /* Laplacian Diffusivity */
(PID.TID 0000.0001)                 1.000000000000000E+03
(PID.TID 0000.0001)     ;
(PID.TID 0000.0001) PTRACERS_diffK4 = /* Biharmonic Diffusivity */
(PID.TID 0000.0001)                 0.000000000000000E+00
(PID.TID 0000.0001)     ;
(PID.TID 0000.0001) PTRACERS_diffKrNr = /* Vertical Diffusivity */
(PID.TID 0000.0001)     8 @  1.000000000000000E-05              /* K =  1:  8 */
(PID.TID 0000.0001)     ;
(PID.TID 0000.0001) PTRACERS_useGMRedi = /* apply GM-Redi */
(PID.TID 0000.0001)                   F
(PID.TID 0000.0001)     ;
(PID.TID 0000.0001) PTRACERS_useDWNSLP = /* apply DOWN-SLOPE Flow */
(PID.TID 0000.0001)                   F
(PID.TID 0000.0001)     ;
(PID.TID 0000.0001) PTRACERS_useKPP = /* apply KPP scheme */
(PID.TID 0000.0001)                   F
(PID.TID 0000.0001)     ;
(PID.TID 0000.0001) PTRACERS_ref = /* Reference vertical profile */
(PID.TID 0000.0001)     8 @  3.500000000000000E+01              /* K =  1:  8 */
(PID.TID 0000.0001)     ;
(PID.TID 0000.0001) PTRACERS_EvPrRn =/* tracer conc. in Evap. & Rain */
(PID.TID 0000.0001)                 1.234567000000000E+05
(PID.TID 0000.0001)     ;
(PID.TID 0000.0001)  -----------------------------------
(PID.TID 0000.0001)  RBCS_READPARMS: opening data.rbcs
(PID.TID 0000.0001)  OPEN_COPY_DATA_FILE: opening file data.rbcs
(PID.TID 0000.0001) // =======================================================
(PID.TID 0000.0001) // Parameter file "data.rbcs"
(PID.TID 0000.0001) // =======================================================
(PID.TID 0000.0001) ># RBCS package parameters:
(PID.TID 0000.0001) > &RBCS_PARM01
(PID.TID 0000.0001) >#   tauRelaxT=864000.,
(PID.TID 0000.0001) >    tauRelaxS=864000.,
(PID.TID 0000.0001) >#   relaxMaskFile='rbcs_mask_T.bin','rbcs_mask_S.bin',
(PID.TID 0000.0001) >    relaxMaskFile(3)='rbcs_mask.bin',
(PID.TID 0000.0001) >#   relaxTFile='sponge_temp.bin',
(PID.TID 0000.0001) >#   relaxSFile='rbcs_Tr1_fld.bin',
(PID.TID 0000.0001) >#   useRBCtemp=.TRUE.,
(PID.TID 0000.0001) >#   useRBCsalt=.TRUE.,
(PID.TID 0000.0001) >#   rbcsIniter=100,
(PID.TID 0000.0001) >#   rbcsForcingPeriod=2592000.,
(PID.TID 0000.0001) >#   rbcsForcingCycle=31104000.,
(PID.TID 0000.0001) > /
(PID.TID 0000.0001) >
(PID.TID 0000.0001) ># RBCS for pTracers (read this namelist only when ptracers pkg is compiled)
(PID.TID 0000.0001) > &RBCS_PARM02
(PID.TID 0000.0001) >  useRBCptrnum(1)    = .TRUE.,
(PID.TID 0000.0001) >  tauRelaxPTR(1)     = 21600.,
(PID.TID 0000.0001) >  relaxPtracerFile(1)='rbcs_Tr1_fld.bin',
(PID.TID 0000.0001) > /
(PID.TID 0000.0001) 
(PID.TID 0000.0001)  RBCS_READPARMS: finished reading data.rbcs
(PID.TID 0000.0001) SET_PARMS: done
(PID.TID 0000.0001) Enter INI_VERTICAL_GRID: setInterFDr=    T ; setCenterDr=    F
(PID.TID 0000.0001) %MON XC_max                       =   3.9750000000000E+05
(PID.TID 0000.0001) %MON XC_min                       =   2.5000000000000E+03
(PID.TID 0000.0001) %MON XC_mean                      =   2.0000000000000E+05
(PID.TID 0000.0001) %MON XC_sd                        =   1.1546103238755E+05
(PID.TID 0000.0001) %MON XG_max                       =   3.9500000000000E+05
(PID.TID 0000.0001) %MON XG_min                       =   0.0000000000000E+00
(PID.TID 0000.0001) %MON XG_mean                      =   1.9750000000000E+05
(PID.TID 0000.0001) %MON XG_sd                        =   1.1546103238755E+05
(PID.TID 0000.0001) %MON DXC_max                      =   5.0000000000000E+03
(PID.TID 0000.0001) %MON DXC_min                      =   5.0000000000000E+03
(PID.TID 0000.0001) %MON DXC_mean                     =   5.0000000000000E+03
(PID.TID 0000.0001) %MON DXC_sd                       =   0.0000000000000E+00
(PID.TID 0000.0001) %MON DXF_max                      =   5.0000000000000E+03
(PID.TID 0000.0001) %MON DXF_min                      =   5.0000000000000E+03
(PID.TID 0000.0001) %MON DXF_mean                     =   5.0000000000000E+03
(PID.TID 0000.0001) %MON DXF_sd                       =   0.0000000000000E+00
(PID.TID 0000.0001) %MON DXG_max                      =   5.0000000000000E+03
(PID.TID 0000.0001) %MON DXG_min                      =   5.0000000000000E+03
(PID.TID 0000.0001) %MON DXG_mean                     =   5.0000000000000E+03
(PID.TID 0000.0001) %MON DXG_sd                       =   0.0000000000000E+00
(PID.TID 0000.0001) %MON DXV_max                      =   5.0000000000000E+03
(PID.TID 0000.0001) %MON DXV_min                      =   5.0000000000000E+03
(PID.TID 0000.0001) %MON DXV_mean                     =   5.0000000000000E+03
(PID.TID 0000.0001) %MON DXV_sd                       =   0.0000000000000E+00
(PID.TID 0000.0001) %MON YC_max                       =   2.0750000000000E+05
(PID.TID 0000.0001) %MON YC_min                       =   2.5000000000000E+03
(PID.TID 0000.0001) %MON YC_mean                      =   1.0500000000000E+05
(PID.TID 0000.0001) %MON YC_sd                        =   6.0604592785256E+04
(PID.TID 0000.0001) %MON YG_max                       =   2.0500000000000E+05
(PID.TID 0000.0001) %MON YG_min                       =   0.0000000000000E+00
(PID.TID 0000.0001) %MON YG_mean                      =   1.0250000000000E+05
(PID.TID 0000.0001) %MON YG_sd                        =   6.0604592785256E+04
(PID.TID 0000.0001) %MON DYC_max                      =   5.0000000000000E+03
(PID.TID 0000.0001) %MON DYC_min                      =   5.0000000000000E+03
(PID.TID 0000.0001) %MON DYC_mean                     =   5.0000000000000E+03
(PID.TID 0000.0001) %MON DYC_sd                       =   0.0000000000000E+00
(PID.TID 0000.0001) %MON DYF_max                      =   5.0000000000000E+03
(PID.TID 0000.0001) %MON DYF_min                      =   5.0000000000000E+03
(PID.TID 0000.0001) %MON DYF_mean                     =   5.0000000000000E+03
(PID.TID 0000.0001) %MON DYF_sd                       =   0.0000000000000E+00
(PID.TID 0000.0001) %MON DYG_max                      =   5.0000000000000E+03
(PID.TID 0000.0001) %MON DYG_min                      =   5.0000000000000E+03
(PID.TID 0000.0001) %MON DYG_mean                     =   5.0000000000000E+03
(PID.TID 0000.0001) %MON DYG_sd                       =   0.0000000000000E+00
(PID.TID 0000.0001) %MON DYU_max                      =   5.0000000000000E+03
(PID.TID 0000.0001) %MON DYU_min                      =   5.0000000000000E+03
(PID.TID 0000.0001) %MON DYU_mean                     =   5.0000000000000E+03
(PID.TID 0000.0001) %MON DYU_sd                       =   0.0000000000000E+00
(PID.TID 0000.0001) %MON RA_max                       =   2.5000000000000E+07
(PID.TID 0000.0001) %MON RA_min                       =   2.5000000000000E+07
(PID.TID 0000.0001) %MON RA_mean                      =   2.5000000000000E+07
(PID.TID 0000.0001) %MON RA_sd                        =   3.7252902984619E-09
(PID.TID 0000.0001) %MON RAW_max                      =   2.5000000000000E+07
(PID.TID 0000.0001) %MON RAW_min                      =   2.5000000000000E+07
(PID.TID 0000.0001) %MON RAW_mean                     =   2.5000000000000E+07
(PID.TID 0000.0001) %MON RAW_sd                       =   3.7252902984619E-09
(PID.TID 0000.0001) %MON RAS_max                      =   2.5000000000000E+07
(PID.TID 0000.0001) %MON RAS_min                      =   2.5000000000000E+07
(PID.TID 0000.0001) %MON RAS_mean                     =   2.5000000000000E+07
(PID.TID 0000.0001) %MON RAS_sd                       =   3.7252902984619E-09
(PID.TID 0000.0001) %MON RAZ_max                      =   2.5000000000000E+07
(PID.TID 0000.0001) %MON RAZ_min                      =   2.5000000000000E+07
(PID.TID 0000.0001) %MON RAZ_mean                     =   2.5000000000000E+07
(PID.TID 0000.0001) %MON RAZ_sd                       =   3.7252902984619E-09
(PID.TID 0000.0001) %MON AngleCS_max                  =   1.0000000000000E+00
(PID.TID 0000.0001) %MON AngleCS_min                  =   1.0000000000000E+00
(PID.TID 0000.0001) %MON AngleCS_mean                 =   1.0000000000000E+00
(PID.TID 0000.0001) %MON AngleCS_sd                   =   0.0000000000000E+00
(PID.TID 0000.0001) %MON AngleSN_max                  =   0.0000000000000E+00
(PID.TID 0000.0001) %MON AngleSN_min                  =   0.0000000000000E+00
(PID.TID 0000.0001) %MON AngleSN_mean                 =   0.0000000000000E+00
(PID.TID 0000.0001) %MON AngleSN_sd                   =   0.0000000000000E+00
(PID.TID 0000.0001)  MDS_READ_FIELD: opening global file: topog.bump
(PID.TID 0000.0001) // =======================================================
(PID.TID 0000.0001) // Field Model R_low (ini_masks_etc) at iteration          1
(PID.TID 0000.0001) // CMIN =         -4.500000000000000E+03
(PID.TID 0000.0001) // CMAX =         -4.902981733158691E+02
(PID.TID 0000.0001) // CINT =          1.485074750623752E+02
(PID.TID 0000.0001) // SYMBOLS (CMIN->CMAX): -abcdefghijklmnopqrstuvwxyz+
(PID.TID 0000.0001) //                  0.0: .
(PID.TID 0000.0001) // RANGE I (Lo:Hi:Step):(    -1:    82:     1)
(PID.TID 0000.0001) // RANGE J (Lo:Hi:Step):(    44:    -1:    -1)
(PID.TID 0000.0001) // RANGE K (Lo:Hi:Step):(   1:   1:   1)
(PID.TID 0000.0001) // =======================================================
(PID.TID 0000.0001) K =   1
(PID.TID 0000.0001) //                I=8       I=18      I=28      I=38      I=44      I=54      I=64      I=74
(PID.TID 0000.0001) // |--J--|101234567|901234567|901234567|901234567|901290123|567890123|567890123|567890123|56789012
(PID.TID 0000.0001) //     44 ----------------------------------------------------------------------------------------
(PID.TID 0000.0001) //     43 ----------------------------------------------------------------------------------------
(PID.TID 0000.0001) //     42 ----------------------------------------------------------------------------------------
(PID.TID 0000.0001) //     41 ----------------------------------------------------------------------------------------
(PID.TID 0000.0001) //     40 ----------------------------------------------------------------------------------------
(PID.TID 0000.0001) //     39 ----------------------------------------------------------------------------------------
(PID.TID 0000.0001) //     38 ----------------------------------------------------------------------------------------
(PID.TID 0000.0001) //     37 ----------------------------------------------------------------------------------------
(PID.TID 0000.0001) //     36 ----------------------------------------------------------------------------------------
(PID.TID 0000.0001) //     35 --------------------------------------aaaaaaaaaaaa--------------------------------------
(PID.TID 0000.0001) //     34 -----------------------------------aaaaaaaaaaaaaaaaaa-----------------------------------
(PID.TID 0000.0001) //     33 ----------------------------------aaaabbbbbbbbbbbbaaaa----------------------------------
(PID.TID 0000.0001) //     32 ---------------------------------aaabbbccccccccccbbbaaa---------------------------------
(PID.TID 0000.0001) //     31 --------------------------------aaabbcddddddddddddcbbaaa--------------------------------
(PID.TID 0000.0001) //     30 -------------------------------aabbcddeffffffffffeddcbbaa-------------------------------
(PID.TID 0000.0001) //     29 ------------------------------aaabcdefghhiihhiihhgfedcbaaa------------------------------
(PID.TID 0000.0001) //     28 -----------------------------aaabcdefhijkllkkllkjihfedcbaaa-----------------------------
(PID.TID 0000.0001) //     27 -----------------------------aabbdefhjlmnoonnoonmljhfedbbaa-----------------------------
(PID.TID 0000.0001) //     26 -----------------------------aabcdfhjlnpqrrqqrrqpnljhfdcbaa-----------------------------
(PID.TID 0000.0001) //     25 ----------------------------aabbdegilnqstuuttuutsqnligedbbaa----------------------------
(PID.TID 0000.0001) //     24 ----------------------------aabcdfhjmpsuwxxwwxxwuspmjhfdcbaa----------------------------
(PID.TID 0000.0001) //     23 ----------------------------aabcdfhknqtwyzzyyzzywtqnkhfdcbaa----------------------------
(PID.TID 0000.0001) //     22 ----------------------------aabcdfiloruxz++zz++zxurolifdcbaa----------------------------
(PID.TID 0000.0001) //     21 ----------------------------aabcdfiloruxz++zz++zxurolifdcbaa----------------------------
(PID.TID 0000.0001) //     20 ----------------------------aabcdfhknqtwyzzyyzzywtqnkhfdcbaa----------------------------
(PID.TID 0000.0001) //     23 ----------------------------aabcdfhknqtwyzzyyzzywtqnkhfdcbaa----------------------------
(PID.TID 0000.0001) //     22 ----------------------------aabcdfiloruxz++zz++zxurolifdcbaa----------------------------
(PID.TID 0000.0001) //     21 ----------------------------aabcdfiloruxz++zz++zxurolifdcbaa----------------------------
(PID.TID 0000.0001) //     20 ----------------------------aabcdfhknqtwyzzyyzzywtqnkhfdcbaa----------------------------
(PID.TID 0000.0001) //     19 ----------------------------aabcdfhjmpsuwxxwwxxwuspmjhfdcbaa----------------------------
(PID.TID 0000.0001) //     18 ----------------------------aabbdegilnqstuuttuutsqnligedbbaa----------------------------
(PID.TID 0000.0001) //     17 -----------------------------aabcdfhjlnpqrrqqrrqpnljhfdcbaa-----------------------------
(PID.TID 0000.0001) //     16 -----------------------------aabbdefhjlmnoonnoonmljhfedbbaa-----------------------------
(PID.TID 0000.0001) //     15 -----------------------------aaabcdefhijkllkkllkjihfedcbaaa-----------------------------
(PID.TID 0000.0001) //     14 ------------------------------aaabcdefghhiihhiihhgfedcbaaa------------------------------
(PID.TID 0000.0001) //     13 -------------------------------aabbcddeffffffffffeddcbbaa-------------------------------
(PID.TID 0000.0001) //     12 --------------------------------aaabbcddddddddddddcbbaaa--------------------------------
(PID.TID 0000.0001) //     11 ---------------------------------aaabbbccccccccccbbbaaa---------------------------------
(PID.TID 0000.0001) //     10 ----------------------------------aaaabbbbbbbbbbbbaaaa----------------------------------
(PID.TID 0000.0001) //      9 -----------------------------------aaaaaaaaaaaaaaaaaa-----------------------------------
(PID.TID 0000.0001) //      8 --------------------------------------aaaaaaaaaaaa--------------------------------------
(PID.TID 0000.0001) //      7 ----------------------------------------------------------------------------------------
(PID.TID 0000.0001) //      6 ----------------------------------------------------------------------------------------
(PID.TID 0000.0001) //      5 ----------------------------------------------------------------------------------------
(PID.TID 0000.0001) //      4 ----------------------------------------------------------------------------------------
(PID.TID 0000.0001) //      3 ----------------------------------------------------------------------------------------
(PID.TID 0000.0001) //      2 ----------------------------------------------------------------------------------------
(PID.TID 0000.0001) //      1 ----------------------------------------------------------------------------------------
(PID.TID 0000.0001) //      0 ----------------------------------------------------------------------------------------
(PID.TID 0000.0001) //     -1 ----------------------------------------------------------------------------------------
(PID.TID 0000.0001) // =======================================================
(PID.TID 0000.0001) // END OF FIELD                                          =
(PID.TID 0000.0001) // =======================================================
(PID.TID 0000.0001) 
(PID.TID 0000.0001) // =======================================================
(PID.TID 0000.0001) // Field Model Ro_surf (ini_masks_etc) at iteration          1
(PID.TID 0000.0001) // CMIN =          1.000000000000000E+32
(PID.TID 0000.0001) // CMAX =         -1.000000000000000E+32
(PID.TID 0000.0001) // CINT =          0.000000000000000E+00
(PID.TID 0000.0001) // SYMBOLS (CMIN->CMAX): -abcdefghijklmnopqrstuvwxyz+
(PID.TID 0000.0001) //                  0.0: .
(PID.TID 0000.0001) // RANGE I (Lo:Hi:Step):(    -1:    82:     1)
(PID.TID 0000.0001) // RANGE J (Lo:Hi:Step):(    44:    -1:    -1)
(PID.TID 0000.0001) // RANGE K (Lo:Hi:Step):(   1:   1:   1)
(PID.TID 0000.0001) // =======================================================
(PID.TID 0000.0001) // =======================================================
(PID.TID 0000.0001) // END OF FIELD                                          =
(PID.TID 0000.0001) // =======================================================
(PID.TID 0000.0001) 
(PID.TID 0000.0001) // =======================================================
(PID.TID 0000.0001) // Field hFacC at iteration          1
(PID.TID 0000.0001) // CMIN =          8.716411970059894E-01
(PID.TID 0000.0001) // CMAX =          1.000000000000000E+00
(PID.TID 0000.0001) // CINT =          4.754029740518911E-03
(PID.TID 0000.0001) // SYMBOLS (CMIN->CMAX): -abcdefghijklmnopqrstuvwxyz+
(PID.TID 0000.0001) //                  0.0: .
(PID.TID 0000.0001) // RANGE I (Lo:Hi:Step):(    -1:    82:     1)
(PID.TID 0000.0001) // RANGE J (Lo:Hi:Step):(    44:    -1:    -1)
(PID.TID 0000.0001) // RANGE K (Lo:Hi:Step):(   1:   1:   1)
(PID.TID 0000.0001) // =======================================================
(PID.TID 0000.0001) K =   1
(PID.TID 0000.0001) //                I=8       I=18      I=28      I=38      I=44      I=54      I=64      I=74
(PID.TID 0000.0001) // |--J--|101234567|901234567|901234567|901234567|901290123|567890123|567890123|567890123|56789012
(PID.TID 0000.0001) //     44 ++++++++++++++++++++++++++++++++++++++++++++++++++++++++++++++++++++++++++++++++++++++++
(PID.TID 0000.0001) //     43 ++++++++++++++++++++++++++++++++++++++++++++++++++++++++++++++++++++++++++++++++++++++++
(PID.TID 0000.0001) //     42 ++++++++++++++++++++++++++++++++++++++++++++++++++++++++++++++++++++++++++++++++++++++++
(PID.TID 0000.0001) //     41 ++++++++++++++++++++++++++++++++++++++++++++++++++++++++++++++++++++++++++++++++++++++++
(PID.TID 0000.0001) //     40 ++++++++++++++++++++++++++++++++++++++++++++++++++++++++++++++++++++++++++++++++++++++++
(PID.TID 0000.0001) //     39 ++++++++++++++++++++++++++++++++++++++++++++++++++++++++++++++++++++++++++++++++++++++++
(PID.TID 0000.0001) //     38 ++++++++++++++++++++++++++++++++++++++++++++++++++++++++++++++++++++++++++++++++++++++++
(PID.TID 0000.0001) //     37 ++++++++++++++++++++++++++++++++++++++++++++++++++++++++++++++++++++++++++++++++++++++++
(PID.TID 0000.0001) //     36 ++++++++++++++++++++++++++++++++++++++++++++++++++++++++++++++++++++++++++++++++++++++++
(PID.TID 0000.0001) //     35 ++++++++++++++++++++++++++++++++++++++++++++++++++++++++++++++++++++++++++++++++++++++++
(PID.TID 0000.0001) //     34 ++++++++++++++++++++++++++++++++++++++++++++++++++++++++++++++++++++++++++++++++++++++++
(PID.TID 0000.0001) //     33 ++++++++++++++++++++++++++++++++++++++++++++++++++++++++++++++++++++++++++++++++++++++++
(PID.TID 0000.0001) //     32 ++++++++++++++++++++++++++++++++++++++++++++++++++++++++++++++++++++++++++++++++++++++++
(PID.TID 0000.0001) //     31 ++++++++++++++++++++++++++++++++++++++++++++++++++++++++++++++++++++++++++++++++++++++++
(PID.TID 0000.0001) //     30 ++++++++++++++++++++++++++++++++++++++++++++++++++++++++++++++++++++++++++++++++++++++++
(PID.TID 0000.0001) //     29 ++++++++++++++++++++++++++++++++++++++++++++++++++++++++++++++++++++++++++++++++++++++++
(PID.TID 0000.0001) //     28 ++++++++++++++++++++++++++++++++++++++++++++++++++++++++++++++++++++++++++++++++++++++++
(PID.TID 0000.0001) //     27 ++++++++++++++++++++++++++++++++++++++++++++++++++++++++++++++++++++++++++++++++++++++++
(PID.TID 0000.0001) //     26 ++++++++++++++++++++++++++++++++++++++++++++++++++++++++++++++++++++++++++++++++++++++++
(PID.TID 0000.0001) //     25 ++++++++++++++++++++++++++++++++++++++++++++++++++++++++++++++++++++++++++++++++++++++++
(PID.TID 0000.0001) //     24 ++++++++++++++++++++++++++++++++++++++++++++++++++++++++++++++++++++++++++++++++++++++++
(PID.TID 0000.0001) //     23 ++++++++++++++++++++++++++++++++++++++++++++++++++++++++++++++++++++++++++++++++++++++++
(PID.TID 0000.0001) //     22 +++++++++++++++++++++++++++++++++++++++++--++--+++++++++++++++++++++++++++++++++++++++++
(PID.TID 0000.0001) //     21 +++++++++++++++++++++++++++++++++++++++++--++--+++++++++++++++++++++++++++++++++++++++++
(PID.TID 0000.0001) //     20 ++++++++++++++++++++++++++++++++++++++++++++++++++++++++++++++++++++++++++++++++++++++++
(PID.TID 0000.0001) //     23 ++++++++++++++++++++++++++++++++++++++++++++++++++++++++++++++++++++++++++++++++++++++++
(PID.TID 0000.0001) //     22 +++++++++++++++++++++++++++++++++++++++++--++--+++++++++++++++++++++++++++++++++++++++++
(PID.TID 0000.0001) //     21 +++++++++++++++++++++++++++++++++++++++++--++--+++++++++++++++++++++++++++++++++++++++++
(PID.TID 0000.0001) //     20 ++++++++++++++++++++++++++++++++++++++++++++++++++++++++++++++++++++++++++++++++++++++++
(PID.TID 0000.0001) //     19 ++++++++++++++++++++++++++++++++++++++++++++++++++++++++++++++++++++++++++++++++++++++++
(PID.TID 0000.0001) //     18 ++++++++++++++++++++++++++++++++++++++++++++++++++++++++++++++++++++++++++++++++++++++++
(PID.TID 0000.0001) //     17 ++++++++++++++++++++++++++++++++++++++++++++++++++++++++++++++++++++++++++++++++++++++++
(PID.TID 0000.0001) //     16 ++++++++++++++++++++++++++++++++++++++++++++++++++++++++++++++++++++++++++++++++++++++++
(PID.TID 0000.0001) //     15 ++++++++++++++++++++++++++++++++++++++++++++++++++++++++++++++++++++++++++++++++++++++++
(PID.TID 0000.0001) //     14 ++++++++++++++++++++++++++++++++++++++++++++++++++++++++++++++++++++++++++++++++++++++++
(PID.TID 0000.0001) //     13 ++++++++++++++++++++++++++++++++++++++++++++++++++++++++++++++++++++++++++++++++++++++++
(PID.TID 0000.0001) //     12 ++++++++++++++++++++++++++++++++++++++++++++++++++++++++++++++++++++++++++++++++++++++++
(PID.TID 0000.0001) //     11 ++++++++++++++++++++++++++++++++++++++++++++++++++++++++++++++++++++++++++++++++++++++++
(PID.TID 0000.0001) //     10 ++++++++++++++++++++++++++++++++++++++++++++++++++++++++++++++++++++++++++++++++++++++++
(PID.TID 0000.0001) //      9 ++++++++++++++++++++++++++++++++++++++++++++++++++++++++++++++++++++++++++++++++++++++++
(PID.TID 0000.0001) //      8 ++++++++++++++++++++++++++++++++++++++++++++++++++++++++++++++++++++++++++++++++++++++++
(PID.TID 0000.0001) //      7 ++++++++++++++++++++++++++++++++++++++++++++++++++++++++++++++++++++++++++++++++++++++++
(PID.TID 0000.0001) //      6 ++++++++++++++++++++++++++++++++++++++++++++++++++++++++++++++++++++++++++++++++++++++++
(PID.TID 0000.0001) //      5 ++++++++++++++++++++++++++++++++++++++++++++++++++++++++++++++++++++++++++++++++++++++++
(PID.TID 0000.0001) //      4 ++++++++++++++++++++++++++++++++++++++++++++++++++++++++++++++++++++++++++++++++++++++++
(PID.TID 0000.0001) //      3 ++++++++++++++++++++++++++++++++++++++++++++++++++++++++++++++++++++++++++++++++++++++++
(PID.TID 0000.0001) //      2 ++++++++++++++++++++++++++++++++++++++++++++++++++++++++++++++++++++++++++++++++++++++++
(PID.TID 0000.0001) //      1 ++++++++++++++++++++++++++++++++++++++++++++++++++++++++++++++++++++++++++++++++++++++++
(PID.TID 0000.0001) //      0 ++++++++++++++++++++++++++++++++++++++++++++++++++++++++++++++++++++++++++++++++++++++++
(PID.TID 0000.0001) //     -1 ++++++++++++++++++++++++++++++++++++++++++++++++++++++++++++++++++++++++++++++++++++++++
(PID.TID 0000.0001) // =======================================================
(PID.TID 0000.0001) // END OF FIELD                                          =
(PID.TID 0000.0001) // =======================================================
(PID.TID 0000.0001) 
(PID.TID 0000.0001) // =======================================================
(PID.TID 0000.0001) // Field hFacW at iteration          1
(PID.TID 0000.0001) // CMIN =          8.716411970059894E-01
(PID.TID 0000.0001) // CMAX =          1.000000000000000E+00
(PID.TID 0000.0001) // CINT =          4.754029740518911E-03
(PID.TID 0000.0001) // SYMBOLS (CMIN->CMAX): -abcdefghijklmnopqrstuvwxyz+
(PID.TID 0000.0001) //                  0.0: .
(PID.TID 0000.0001) // RANGE I (Lo:Hi:Step):(    -1:    82:     1)
(PID.TID 0000.0001) // RANGE J (Lo:Hi:Step):(    44:    -1:    -1)
(PID.TID 0000.0001) // RANGE K (Lo:Hi:Step):(   1:   1:   1)
(PID.TID 0000.0001) // =======================================================
(PID.TID 0000.0001) K =   1
(PID.TID 0000.0001) //                I=8       I=18      I=28      I=38      I=44      I=54      I=64      I=74
(PID.TID 0000.0001) // |--J--|101234567|901234567|901234567|901234567|901290123|567890123|567890123|567890123|56789012
(PID.TID 0000.0001) //     44 ++++++++++++++++++++++++++++++++++++++++++++++++++++++++++++++++++++++++++++++++++++++++
(PID.TID 0000.0001) //     43 ++++++++++++++++++++++++++++++++++++++++++++++++++++++++++++++++++++++++++++++++++++++++
(PID.TID 0000.0001) //     42 ++++++++++++++++++++++++++++++++++++++++++++++++++++++++++++++++++++++++++++++++++++++++
(PID.TID 0000.0001) //     41 ++++++++++++++++++++++++++++++++++++++++++++++++++++++++++++++++++++++++++++++++++++++++
(PID.TID 0000.0001) //     40 ++++++++++++++++++++++++++++++++++++++++++++++++++++++++++++++++++++++++++++++++++++++++
(PID.TID 0000.0001) //     39 ++++++++++++++++++++++++++++++++++++++++++++++++++++++++++++++++++++++++++++++++++++++++
(PID.TID 0000.0001) //     38 ++++++++++++++++++++++++++++++++++++++++++++++++++++++++++++++++++++++++++++++++++++++++
(PID.TID 0000.0001) //     37 ++++++++++++++++++++++++++++++++++++++++++++++++++++++++++++++++++++++++++++++++++++++++
(PID.TID 0000.0001) //     36 ++++++++++++++++++++++++++++++++++++++++++++++++++++++++++++++++++++++++++++++++++++++++
(PID.TID 0000.0001) //     35 ++++++++++++++++++++++++++++++++++++++++++++++++++++++++++++++++++++++++++++++++++++++++
(PID.TID 0000.0001) //     34 ++++++++++++++++++++++++++++++++++++++++++++++++++++++++++++++++++++++++++++++++++++++++
(PID.TID 0000.0001) //     33 ++++++++++++++++++++++++++++++++++++++++++++++++++++++++++++++++++++++++++++++++++++++++
(PID.TID 0000.0001) //     32 ++++++++++++++++++++++++++++++++++++++++++++++++++++++++++++++++++++++++++++++++++++++++
(PID.TID 0000.0001) //     31 ++++++++++++++++++++++++++++++++++++++++++++++++++++++++++++++++++++++++++++++++++++++++
(PID.TID 0000.0001) //     30 ++++++++++++++++++++++++++++++++++++++++++++++++++++++++++++++++++++++++++++++++++++++++
(PID.TID 0000.0001) //     29 ++++++++++++++++++++++++++++++++++++++++++++++++++++++++++++++++++++++++++++++++++++++++
(PID.TID 0000.0001) //     28 ++++++++++++++++++++++++++++++++++++++++++++++++++++++++++++++++++++++++++++++++++++++++
(PID.TID 0000.0001) //     27 ++++++++++++++++++++++++++++++++++++++++++++++++++++++++++++++++++++++++++++++++++++++++
(PID.TID 0000.0001) //     26 ++++++++++++++++++++++++++++++++++++++++++++++++++++++++++++++++++++++++++++++++++++++++
(PID.TID 0000.0001) //     25 ++++++++++++++++++++++++++++++++++++++++++++++++++++++++++++++++++++++++++++++++++++++++
(PID.TID 0000.0001) //     24 ++++++++++++++++++++++++++++++++++++++++++++++++++++++++++++++++++++++++++++++++++++++++
(PID.TID 0000.0001) //     23 ++++++++++++++++++++++++++++++++++++++++++++++++++++++++++++++++++++++++++++++++++++++++
(PID.TID 0000.0001) //     22 +++++++++++++++++++++++++++++++++++++++++---+---++++++++++++++++++++++++++++++++++++++++
(PID.TID 0000.0001) //     21 +++++++++++++++++++++++++++++++++++++++++---+---++++++++++++++++++++++++++++++++++++++++
(PID.TID 0000.0001) //     20 ++++++++++++++++++++++++++++++++++++++++++++++++++++++++++++++++++++++++++++++++++++++++
(PID.TID 0000.0001) //     23 ++++++++++++++++++++++++++++++++++++++++++++++++++++++++++++++++++++++++++++++++++++++++
(PID.TID 0000.0001) //     22 +++++++++++++++++++++++++++++++++++++++++---+---++++++++++++++++++++++++++++++++++++++++
(PID.TID 0000.0001) //     21 +++++++++++++++++++++++++++++++++++++++++---+---++++++++++++++++++++++++++++++++++++++++
(PID.TID 0000.0001) //     20 ++++++++++++++++++++++++++++++++++++++++++++++++++++++++++++++++++++++++++++++++++++++++
(PID.TID 0000.0001) //     19 ++++++++++++++++++++++++++++++++++++++++++++++++++++++++++++++++++++++++++++++++++++++++
(PID.TID 0000.0001) //     18 ++++++++++++++++++++++++++++++++++++++++++++++++++++++++++++++++++++++++++++++++++++++++
(PID.TID 0000.0001) //     17 ++++++++++++++++++++++++++++++++++++++++++++++++++++++++++++++++++++++++++++++++++++++++
(PID.TID 0000.0001) //     16 ++++++++++++++++++++++++++++++++++++++++++++++++++++++++++++++++++++++++++++++++++++++++
(PID.TID 0000.0001) //     15 ++++++++++++++++++++++++++++++++++++++++++++++++++++++++++++++++++++++++++++++++++++++++
(PID.TID 0000.0001) //     14 ++++++++++++++++++++++++++++++++++++++++++++++++++++++++++++++++++++++++++++++++++++++++
(PID.TID 0000.0001) //     13 ++++++++++++++++++++++++++++++++++++++++++++++++++++++++++++++++++++++++++++++++++++++++
(PID.TID 0000.0001) //     12 ++++++++++++++++++++++++++++++++++++++++++++++++++++++++++++++++++++++++++++++++++++++++
(PID.TID 0000.0001) //     11 ++++++++++++++++++++++++++++++++++++++++++++++++++++++++++++++++++++++++++++++++++++++++
(PID.TID 0000.0001) //     10 ++++++++++++++++++++++++++++++++++++++++++++++++++++++++++++++++++++++++++++++++++++++++
(PID.TID 0000.0001) //      9 ++++++++++++++++++++++++++++++++++++++++++++++++++++++++++++++++++++++++++++++++++++++++
(PID.TID 0000.0001) //      8 ++++++++++++++++++++++++++++++++++++++++++++++++++++++++++++++++++++++++++++++++++++++++
(PID.TID 0000.0001) //      7 ++++++++++++++++++++++++++++++++++++++++++++++++++++++++++++++++++++++++++++++++++++++++
(PID.TID 0000.0001) //      6 ++++++++++++++++++++++++++++++++++++++++++++++++++++++++++++++++++++++++++++++++++++++++
(PID.TID 0000.0001) //      5 ++++++++++++++++++++++++++++++++++++++++++++++++++++++++++++++++++++++++++++++++++++++++
(PID.TID 0000.0001) //      4 ++++++++++++++++++++++++++++++++++++++++++++++++++++++++++++++++++++++++++++++++++++++++
(PID.TID 0000.0001) //      3 ++++++++++++++++++++++++++++++++++++++++++++++++++++++++++++++++++++++++++++++++++++++++
(PID.TID 0000.0001) //      2 ++++++++++++++++++++++++++++++++++++++++++++++++++++++++++++++++++++++++++++++++++++++++
(PID.TID 0000.0001) //      1 ++++++++++++++++++++++++++++++++++++++++++++++++++++++++++++++++++++++++++++++++++++++++
(PID.TID 0000.0001) //      0 ++++++++++++++++++++++++++++++++++++++++++++++++++++++++++++++++++++++++++++++++++++++++
(PID.TID 0000.0001) //     -1 ++++++++++++++++++++++++++++++++++++++++++++++++++++++++++++++++++++++++++++++++++++++++
(PID.TID 0000.0001) // =======================================================
(PID.TID 0000.0001) // END OF FIELD                                          =
(PID.TID 0000.0001) // =======================================================
(PID.TID 0000.0001) 
(PID.TID 0000.0001) // =======================================================
(PID.TID 0000.0001) // Field hFacS at iteration          1
(PID.TID 0000.0001) // CMIN =          8.716411970059894E-01
(PID.TID 0000.0001) // CMAX =          1.000000000000000E+00
(PID.TID 0000.0001) // CINT =          4.754029740518911E-03
(PID.TID 0000.0001) // SYMBOLS (CMIN->CMAX): -abcdefghijklmnopqrstuvwxyz+
(PID.TID 0000.0001) //                  0.0: .
(PID.TID 0000.0001) // RANGE I (Lo:Hi:Step):(    -1:    82:     1)
(PID.TID 0000.0001) // RANGE J (Lo:Hi:Step):(    44:    -1:    -1)
(PID.TID 0000.0001) // RANGE K (Lo:Hi:Step):(   1:   1:   1)
(PID.TID 0000.0001) // =======================================================
(PID.TID 0000.0001) K =   1
(PID.TID 0000.0001) //                I=8       I=18      I=28      I=38      I=44      I=54      I=64      I=74
(PID.TID 0000.0001) // |--J--|101234567|901234567|901234567|901234567|901290123|567890123|567890123|567890123|56789012
(PID.TID 0000.0001) //     44 ++++++++++++++++++++++++++++++++++++++++++++++++++++++++++++++++++++++++++++++++++++++++
(PID.TID 0000.0001) //     43 ++++++++++++++++++++++++++++++++++++++++++++++++++++++++++++++++++++++++++++++++++++++++
(PID.TID 0000.0001) //     42 ++++++++++++++++++++++++++++++++++++++++++++++++++++++++++++++++++++++++++++++++++++++++
(PID.TID 0000.0001) //     41 ++++++++++++++++++++++++++++++++++++++++++++++++++++++++++++++++++++++++++++++++++++++++
(PID.TID 0000.0001) //     40 ++++++++++++++++++++++++++++++++++++++++++++++++++++++++++++++++++++++++++++++++++++++++
(PID.TID 0000.0001) //     39 ++++++++++++++++++++++++++++++++++++++++++++++++++++++++++++++++++++++++++++++++++++++++
(PID.TID 0000.0001) //     38 ++++++++++++++++++++++++++++++++++++++++++++++++++++++++++++++++++++++++++++++++++++++++
(PID.TID 0000.0001) //     37 ++++++++++++++++++++++++++++++++++++++++++++++++++++++++++++++++++++++++++++++++++++++++
(PID.TID 0000.0001) //     36 ++++++++++++++++++++++++++++++++++++++++++++++++++++++++++++++++++++++++++++++++++++++++
(PID.TID 0000.0001) //     35 ++++++++++++++++++++++++++++++++++++++++++++++++++++++++++++++++++++++++++++++++++++++++
(PID.TID 0000.0001) //     34 ++++++++++++++++++++++++++++++++++++++++++++++++++++++++++++++++++++++++++++++++++++++++
(PID.TID 0000.0001) //     33 ++++++++++++++++++++++++++++++++++++++++++++++++++++++++++++++++++++++++++++++++++++++++
(PID.TID 0000.0001) //     32 ++++++++++++++++++++++++++++++++++++++++++++++++++++++++++++++++++++++++++++++++++++++++
(PID.TID 0000.0001) //     31 ++++++++++++++++++++++++++++++++++++++++++++++++++++++++++++++++++++++++++++++++++++++++
(PID.TID 0000.0001) //     30 ++++++++++++++++++++++++++++++++++++++++++++++++++++++++++++++++++++++++++++++++++++++++
(PID.TID 0000.0001) //     29 ++++++++++++++++++++++++++++++++++++++++++++++++++++++++++++++++++++++++++++++++++++++++
(PID.TID 0000.0001) //     28 ++++++++++++++++++++++++++++++++++++++++++++++++++++++++++++++++++++++++++++++++++++++++
(PID.TID 0000.0001) //     27 ++++++++++++++++++++++++++++++++++++++++++++++++++++++++++++++++++++++++++++++++++++++++
(PID.TID 0000.0001) //     26 ++++++++++++++++++++++++++++++++++++++++++++++++++++++++++++++++++++++++++++++++++++++++
(PID.TID 0000.0001) //     25 ++++++++++++++++++++++++++++++++++++++++++++++++++++++++++++++++++++++++++++++++++++++++
(PID.TID 0000.0001) //     24 ++++++++++++++++++++++++++++++++++++++++++++++++++++++++++++++++++++++++++++++++++++++++
(PID.TID 0000.0001) //     23 +++++++++++++++++++++++++++++++++++++++++--++--+++++++++++++++++++++++++++++++++++++++++
(PID.TID 0000.0001) //     22 +++++++++++++++++++++++++++++++++++++++++--++--+++++++++++++++++++++++++++++++++++++++++
(PID.TID 0000.0001) //     21 +++++++++++++++++++++++++++++++++++++++++--++--+++++++++++++++++++++++++++++++++++++++++
(PID.TID 0000.0001) //     20 ++++++++++++++++++++++++++++++++++++++++++++++++++++++++++++++++++++++++++++++++++++++++
(PID.TID 0000.0001) //     23 +++++++++++++++++++++++++++++++++++++++++--++--+++++++++++++++++++++++++++++++++++++++++
(PID.TID 0000.0001) //     22 +++++++++++++++++++++++++++++++++++++++++--++--+++++++++++++++++++++++++++++++++++++++++
(PID.TID 0000.0001) //     21 +++++++++++++++++++++++++++++++++++++++++--++--+++++++++++++++++++++++++++++++++++++++++
(PID.TID 0000.0001) //     20 ++++++++++++++++++++++++++++++++++++++++++++++++++++++++++++++++++++++++++++++++++++++++
(PID.TID 0000.0001) //     19 ++++++++++++++++++++++++++++++++++++++++++++++++++++++++++++++++++++++++++++++++++++++++
(PID.TID 0000.0001) //     18 ++++++++++++++++++++++++++++++++++++++++++++++++++++++++++++++++++++++++++++++++++++++++
(PID.TID 0000.0001) //     17 ++++++++++++++++++++++++++++++++++++++++++++++++++++++++++++++++++++++++++++++++++++++++
(PID.TID 0000.0001) //     16 ++++++++++++++++++++++++++++++++++++++++++++++++++++++++++++++++++++++++++++++++++++++++
(PID.TID 0000.0001) //     15 ++++++++++++++++++++++++++++++++++++++++++++++++++++++++++++++++++++++++++++++++++++++++
(PID.TID 0000.0001) //     14 ++++++++++++++++++++++++++++++++++++++++++++++++++++++++++++++++++++++++++++++++++++++++
(PID.TID 0000.0001) //     13 ++++++++++++++++++++++++++++++++++++++++++++++++++++++++++++++++++++++++++++++++++++++++
(PID.TID 0000.0001) //     12 ++++++++++++++++++++++++++++++++++++++++++++++++++++++++++++++++++++++++++++++++++++++++
(PID.TID 0000.0001) //     11 ++++++++++++++++++++++++++++++++++++++++++++++++++++++++++++++++++++++++++++++++++++++++
(PID.TID 0000.0001) //     10 ++++++++++++++++++++++++++++++++++++++++++++++++++++++++++++++++++++++++++++++++++++++++
(PID.TID 0000.0001) //      9 ++++++++++++++++++++++++++++++++++++++++++++++++++++++++++++++++++++++++++++++++++++++++
(PID.TID 0000.0001) //      8 ++++++++++++++++++++++++++++++++++++++++++++++++++++++++++++++++++++++++++++++++++++++++
(PID.TID 0000.0001) //      7 ++++++++++++++++++++++++++++++++++++++++++++++++++++++++++++++++++++++++++++++++++++++++
(PID.TID 0000.0001) //      6 ++++++++++++++++++++++++++++++++++++++++++++++++++++++++++++++++++++++++++++++++++++++++
(PID.TID 0000.0001) //      5 ++++++++++++++++++++++++++++++++++++++++++++++++++++++++++++++++++++++++++++++++++++++++
(PID.TID 0000.0001) //      4 ++++++++++++++++++++++++++++++++++++++++++++++++++++++++++++++++++++++++++++++++++++++++
(PID.TID 0000.0001) //      3 ++++++++++++++++++++++++++++++++++++++++++++++++++++++++++++++++++++++++++++++++++++++++
(PID.TID 0000.0001) //      2 ++++++++++++++++++++++++++++++++++++++++++++++++++++++++++++++++++++++++++++++++++++++++
(PID.TID 0000.0001) //      1 ++++++++++++++++++++++++++++++++++++++++++++++++++++++++++++++++++++++++++++++++++++++++
(PID.TID 0000.0001) //      0 ++++++++++++++++++++++++++++++++++++++++++++++++++++++++++++++++++++++++++++++++++++++++
(PID.TID 0000.0001) //     -1 ++++++++++++++++++++++++++++++++++++++++++++++++++++++++++++++++++++++++++++++++++++++++
(PID.TID 0000.0001) // =======================================================
(PID.TID 0000.0001) // END OF FIELD                                          =
(PID.TID 0000.0001) // =======================================================
(PID.TID 0000.0001) 
(PID.TID 0000.0001) 
(PID.TID 0000.0001) // ===================================
(PID.TID 0000.0001) // GAD parameters :
(PID.TID 0000.0001) // ===================================
(PID.TID 0000.0001) tempAdvScheme =   /* Temp. Horiz.Advection scheme selector */
(PID.TID 0000.0001)                       2
(PID.TID 0000.0001)     ;
(PID.TID 0000.0001) tempVertAdvScheme =   /* Temp. Vert. Advection scheme selector */
(PID.TID 0000.0001)                       2
(PID.TID 0000.0001)     ;
(PID.TID 0000.0001) tempMultiDimAdvec =   /* use Muti-Dim Advec method for Temp */
(PID.TID 0000.0001)                   F
(PID.TID 0000.0001)     ;
(PID.TID 0000.0001) tempSOM_Advection = /* use 2nd Order Moment Advection for Temp */
(PID.TID 0000.0001)                   F
(PID.TID 0000.0001)     ;
(PID.TID 0000.0001) AdamsBashforthGt = /* apply Adams-Bashforth extrapolation on Gt */
(PID.TID 0000.0001)                   T
(PID.TID 0000.0001)     ;
(PID.TID 0000.0001) AdamsBashforth_T = /* apply Adams-Bashforth extrapolation on Temp */
(PID.TID 0000.0001)                   F
(PID.TID 0000.0001)     ;
(PID.TID 0000.0001) saltAdvScheme =   /* Salt. Horiz.advection scheme selector */
(PID.TID 0000.0001)                       4
(PID.TID 0000.0001)     ;
(PID.TID 0000.0001) saltVertAdvScheme =   /* Salt. Vert. Advection scheme selector */
(PID.TID 0000.0001)                       4
(PID.TID 0000.0001)     ;
(PID.TID 0000.0001) saltMultiDimAdvec =   /* use Muti-Dim Advec method for Salt */
(PID.TID 0000.0001)                   F
(PID.TID 0000.0001)     ;
(PID.TID 0000.0001) saltSOM_Advection = /* use 2nd Order Moment Advection for Salt */
(PID.TID 0000.0001)                   F
(PID.TID 0000.0001)     ;
(PID.TID 0000.0001) AdamsBashforthGs = /* apply Adams-Bashforth extrapolation on Gs */
(PID.TID 0000.0001)                   T
(PID.TID 0000.0001)     ;
(PID.TID 0000.0001) AdamsBashforth_S = /* apply Adams-Bashforth extrapolation on Salt */
(PID.TID 0000.0001)                   F
(PID.TID 0000.0001)     ;
(PID.TID 0000.0001) // ===================================
(PID.TID 0000.0001) PTRACERS_INIT_FIXED: PTRACERS_SOM_Advection(   1) =     F
(PID.TID 0000.0001)  MDS_READ_FIELD: opening global file: rbcs_mask.bin
(PID.TID 0000.0001) %MON fCori_max                    =   1.0000000000000E-04
(PID.TID 0000.0001) %MON fCori_min                    =   1.0000000000000E-04
(PID.TID 0000.0001) %MON fCori_mean                   =   1.0000000000000E-04
(PID.TID 0000.0001) %MON fCori_sd                     =   1.6398557858843E-18
(PID.TID 0000.0001) %MON fCoriG_max                   =   1.0000000000000E-04
(PID.TID 0000.0001) %MON fCoriG_min                   =   1.0000000000000E-04
(PID.TID 0000.0001) %MON fCoriG_mean                  =   1.0000000000000E-04
(PID.TID 0000.0001) %MON fCoriG_sd                    =   1.6398557858843E-18
(PID.TID 0000.0001) %MON fCoriCos_max                 =   0.0000000000000E+00
(PID.TID 0000.0001) %MON fCoriCos_min                 =   0.0000000000000E+00
(PID.TID 0000.0001) %MON fCoriCos_mean                =   0.0000000000000E+00
(PID.TID 0000.0001) %MON fCoriCos_sd                  =   0.0000000000000E+00
(PID.TID 0000.0001) INI_CG2D: CG2D normalisation factor =  2.2222222222222223E-04
(PID.TID 0000.0001) 
(PID.TID 0000.0001) // =======================================================
(PID.TID 0000.0001) // Model configuration
(PID.TID 0000.0001) // =======================================================
(PID.TID 0000.0001) //
(PID.TID 0000.0001) // "Physical" paramters ( PARM01 in namelist )
(PID.TID 0000.0001) //
(PID.TID 0000.0001) buoyancyRelation = /* Type of relation to get Buoyancy */
(PID.TID 0000.0001)               'OCEANIC'
(PID.TID 0000.0001)     ;
(PID.TID 0000.0001) fluidIsAir   =  /* fluid major constituent is Air */
(PID.TID 0000.0001)                   F
(PID.TID 0000.0001)     ;
(PID.TID 0000.0001) fluidIsWater =  /* fluid major constituent is Water */
(PID.TID 0000.0001)                   T
(PID.TID 0000.0001)     ;
(PID.TID 0000.0001) usingPCoords =  /* use p (or p*) vertical coordinate */
(PID.TID 0000.0001)                   F
(PID.TID 0000.0001)     ;
(PID.TID 0000.0001) usingZCoords =  /* use z (or z*) vertical coordinate */
(PID.TID 0000.0001)                   T
(PID.TID 0000.0001)     ;
(PID.TID 0000.0001) tRef =   /* Reference temperature profile ( oC or K ) */
(PID.TID 0000.0001)                 6.968340000000000E-01,      /* K =  1 */
(PID.TID 0000.0001)                 4.977380000000000E-01,      /* K =  2 */
(PID.TID 0000.0001)                 2.986430000000000E-01,      /* K =  3 */
(PID.TID 0000.0001)                 9.954770000000000E-02,      /* K =  4 */
(PID.TID 0000.0001)                -9.954770000000000E-02,      /* K =  5 */
(PID.TID 0000.0001)                -2.986430000000000E-01,      /* K =  6 */
(PID.TID 0000.0001)                -4.977380000000000E-01,      /* K =  7 */
(PID.TID 0000.0001)                -6.968340000000000E-01       /* K =  8 */
(PID.TID 0000.0001)     ;
(PID.TID 0000.0001) sRef =   /* Reference salinity profile ( psu ) */
(PID.TID 0000.0001)     8 @  3.500000000000000E+01              /* K =  1:  8 */
(PID.TID 0000.0001)     ;
(PID.TID 0000.0001) viscAh  =   /* Lateral eddy viscosity ( m^2/s ) */
(PID.TID 0000.0001)                 1.000000000000000E+03
(PID.TID 0000.0001)     ;
(PID.TID 0000.0001) viscAhMax = /* Maximum lateral eddy viscosity ( m^2/s ) */
(PID.TID 0000.0001)                 1.000000000000000E+21
(PID.TID 0000.0001)     ;
(PID.TID 0000.0001) viscAhGrid = /* Grid dependent lateral eddy viscosity ( non-dim. ) */
(PID.TID 0000.0001)                 0.000000000000000E+00
(PID.TID 0000.0001)     ;
(PID.TID 0000.0001) useFullLeith = /* Use Full Form of Leith Viscosity on/off flag*/
(PID.TID 0000.0001)                   F
(PID.TID 0000.0001)     ;
(PID.TID 0000.0001) useStrainTensionVisc= /* Use StrainTension Form of Viscous Operator flag*/
(PID.TID 0000.0001)                   F
(PID.TID 0000.0001)     ;
(PID.TID 0000.0001) useAreaViscLength = /* Use area for visc length instead of geom. mean*/
(PID.TID 0000.0001)                   F
(PID.TID 0000.0001)     ;
(PID.TID 0000.0001) viscC2leith = /* Leith harmonic visc. factor (on grad(vort),non-dim.) */
(PID.TID 0000.0001)                 0.000000000000000E+00
(PID.TID 0000.0001)     ;
(PID.TID 0000.0001) viscC2leithD = /* Leith harmonic viscosity factor (on grad(div),non-dim.)*/
(PID.TID 0000.0001)                 0.000000000000000E+00
(PID.TID 0000.0001)     ;
(PID.TID 0000.0001) viscC2smag = /* Smagorinsky harmonic viscosity factor (non-dim.) */
(PID.TID 0000.0001)                 0.000000000000000E+00
(PID.TID 0000.0001)     ;
(PID.TID 0000.0001) viscA4  =   /* Lateral biharmonic viscosity ( m^4/s ) */
(PID.TID 0000.0001)                 0.000000000000000E+00
(PID.TID 0000.0001)     ;
(PID.TID 0000.0001) viscA4Max = /* Maximum biharmonic viscosity ( m^2/s ) */
(PID.TID 0000.0001)                 1.000000000000000E+21
(PID.TID 0000.0001)     ;
(PID.TID 0000.0001) viscA4Grid = /* Grid dependent biharmonic viscosity ( non-dim. ) */
(PID.TID 0000.0001)                 0.000000000000000E+00
(PID.TID 0000.0001)     ;
(PID.TID 0000.0001) viscC4leith = /* Leith biharm viscosity factor (on grad(vort), non-dim.)*/
(PID.TID 0000.0001)                 0.000000000000000E+00
(PID.TID 0000.0001)     ;
(PID.TID 0000.0001) viscC4leithD = /* Leith biharm viscosity factor (on grad(div), non-dim.) */
(PID.TID 0000.0001)                 0.000000000000000E+00
(PID.TID 0000.0001)     ;
(PID.TID 0000.0001) viscC4Smag = /* Smagorinsky biharm viscosity factor (non-dim) */
(PID.TID 0000.0001)                 0.000000000000000E+00
(PID.TID 0000.0001)     ;
(PID.TID 0000.0001) no_slip_sides =  /* Viscous BCs: No-slip sides */
(PID.TID 0000.0001)                   F
(PID.TID 0000.0001)     ;
(PID.TID 0000.0001) sideDragFactor = /* side-drag scaling factor (non-dim) */
(PID.TID 0000.0001)                 2.000000000000000E+00
(PID.TID 0000.0001)     ;
(PID.TID 0000.0001) viscArNr = /* vertical profile of vertical viscosity ( m^2/s )*/
(PID.TID 0000.0001)     8 @  1.000000000000000E-03              /* K =  1:  8 */
(PID.TID 0000.0001)     ;
(PID.TID 0000.0001) no_slip_bottom =  /* Viscous BCs: No-slip bottom */
(PID.TID 0000.0001)                   F
(PID.TID 0000.0001)     ;
(PID.TID 0000.0001) bottomDragLinear = /* linear bottom-drag coefficient ( m/s ) */
(PID.TID 0000.0001)                 0.000000000000000E+00
(PID.TID 0000.0001)     ;
(PID.TID 0000.0001) bottomDragQuadratic = /* quadratic bottom-drag coefficient (-) */
(PID.TID 0000.0001)                 0.000000000000000E+00
(PID.TID 0000.0001)     ;
(PID.TID 0000.0001) diffKhT =   /* Laplacian diffusion of heat laterally ( m^2/s ) */
(PID.TID 0000.0001)                 1.000000000000000E+03
(PID.TID 0000.0001)     ;
(PID.TID 0000.0001) diffK4T =   /* Biharmonic diffusion of heat laterally ( m^4/s ) */
(PID.TID 0000.0001)                 0.000000000000000E+00
(PID.TID 0000.0001)     ;
(PID.TID 0000.0001) diffKhS =   /* Laplacian diffusion of salt laterally ( m^2/s ) */
(PID.TID 0000.0001)                 1.000000000000000E+03
(PID.TID 0000.0001)     ;
(PID.TID 0000.0001) diffK4S =   /* Biharmonic diffusion of salt laterally ( m^4/s ) */
(PID.TID 0000.0001)                 0.000000000000000E+00
(PID.TID 0000.0001)     ;
(PID.TID 0000.0001) diffKrNrT = /* vertical profile of vertical diffusion of Temp ( m^2/s )*/
(PID.TID 0000.0001)     8 @  1.000000000000000E-05              /* K =  1:  8 */
(PID.TID 0000.0001)     ;
(PID.TID 0000.0001) diffKrNrS = /* vertical profile of vertical diffusion of Salt ( m^2/s )*/
(PID.TID 0000.0001)     8 @  1.000000000000000E-05              /* K =  1:  8 */
(PID.TID 0000.0001)     ;
(PID.TID 0000.0001) diffKrBL79surf = /* Surface diffusion for Bryan and Lewis 79 ( m^2/s ) */
(PID.TID 0000.0001)                 0.000000000000000E+00
(PID.TID 0000.0001)     ;
(PID.TID 0000.0001) diffKrBL79deep = /* Deep diffusion for Bryan and Lewis 1979 ( m^2/s ) */
(PID.TID 0000.0001)                 0.000000000000000E+00
(PID.TID 0000.0001)     ;
(PID.TID 0000.0001) diffKrBL79scl = /* Depth scale for Bryan and Lewis 1979 ( m ) */
(PID.TID 0000.0001)                 2.000000000000000E+02
(PID.TID 0000.0001)     ;
(PID.TID 0000.0001) diffKrBL79Ho = /* Turning depth for Bryan and Lewis 1979 ( m ) */
(PID.TID 0000.0001)                -2.000000000000000E+03
(PID.TID 0000.0001)     ;
(PID.TID 0000.0001) ivdc_kappa = /* Implicit Vertical Diffusivity for Convection ( m^2/s) */
(PID.TID 0000.0001)                 0.000000000000000E+00
(PID.TID 0000.0001)     ;
(PID.TID 0000.0001) hMixCriteria=  /* Criteria for mixed-layer diagnostic */
(PID.TID 0000.0001)                -8.000000000000000E-01
(PID.TID 0000.0001)     ;
(PID.TID 0000.0001) dRhoSmall =  /* Parameter for mixed-layer diagnostic */
(PID.TID 0000.0001)                 1.000000000000000E-06
(PID.TID 0000.0001)     ;
(PID.TID 0000.0001) hMixSmooth=  /* Smoothing parameter for mixed-layer diagnostic */
(PID.TID 0000.0001)                 0.000000000000000E+00
(PID.TID 0000.0001)     ;
(PID.TID 0000.0001) eosType =  /* Type of Equation of State */
(PID.TID 0000.0001)               'LINEAR'
(PID.TID 0000.0001)     ;
(PID.TID 0000.0001) tAlpha =   /* Linear EOS thermal expansion coefficient ( 1/oC ) */
(PID.TID 0000.0001)                 2.000000000000000E-04
(PID.TID 0000.0001)     ;
(PID.TID 0000.0001) sBeta =   /* Linear EOS haline contraction coefficient ( 1/psu ) */
(PID.TID 0000.0001)                 0.000000000000000E+00
(PID.TID 0000.0001)     ;
(PID.TID 0000.0001) rhonil =   /* Reference density ( kg/m^3 ) */
(PID.TID 0000.0001)                 9.998000000000000E+02
(PID.TID 0000.0001)     ;
(PID.TID 0000.0001) rhoConst =   /* Reference density ( kg/m^3 ) */
(PID.TID 0000.0001)                 9.998000000000000E+02
(PID.TID 0000.0001)     ;
(PID.TID 0000.0001) rhoFacC = /* normalized Reference density @ cell-Center (-) */
(PID.TID 0000.0001)     8 @  1.000000000000000E+00              /* K =  1:  8 */
(PID.TID 0000.0001)     ;
(PID.TID 0000.0001) rhoFacF = /* normalized Reference density @ W-Interface (-) */
(PID.TID 0000.0001)     9 @  1.000000000000000E+00              /* K =  1:  9 */
(PID.TID 0000.0001)     ;
(PID.TID 0000.0001) rhoConstFresh =   /* Reference density ( kg/m^3 ) */
(PID.TID 0000.0001)                 9.998000000000000E+02
(PID.TID 0000.0001)     ;
(PID.TID 0000.0001) gravity =   /* Gravitational acceleration ( m/s^2 ) */
(PID.TID 0000.0001)                 9.810000000000000E+00
(PID.TID 0000.0001)     ;
(PID.TID 0000.0001) gBaro =   /* Barotropic gravity ( m/s^2 ) */
(PID.TID 0000.0001)                 9.810000000000000E+00
(PID.TID 0000.0001)     ;
(PID.TID 0000.0001) rotationPeriod =   /* Rotation Period ( s ) */
(PID.TID 0000.0001)                 8.616400000000000E+04
(PID.TID 0000.0001)     ;
(PID.TID 0000.0001) omega =   /* Angular velocity ( rad/s ) */
(PID.TID 0000.0001)                 7.292123516990375E-05
(PID.TID 0000.0001)     ;
(PID.TID 0000.0001) f0 =   /* Reference coriolis parameter ( 1/s ) */
(PID.TID 0000.0001)                 1.000000000000000E-04
(PID.TID 0000.0001)     ;
(PID.TID 0000.0001) beta =   /* Beta ( 1/(m.s) ) */
(PID.TID 0000.0001)                 0.000000000000000E+00
(PID.TID 0000.0001)     ;
(PID.TID 0000.0001) rigidLid =   /* Rigid lid on/off flag */
(PID.TID 0000.0001)                   F
(PID.TID 0000.0001)     ;
(PID.TID 0000.0001) implicitFreeSurface =   /* Implicit free surface on/off flag */
(PID.TID 0000.0001)                   T
(PID.TID 0000.0001)     ;
(PID.TID 0000.0001) freeSurfFac =   /* Implicit free surface factor */
(PID.TID 0000.0001)                 1.000000000000000E+00
(PID.TID 0000.0001)     ;
(PID.TID 0000.0001) implicSurfPress =  /* Surface Pressure implicit factor (0-1)*/
(PID.TID 0000.0001)                 1.000000000000000E+00
(PID.TID 0000.0001)     ;
(PID.TID 0000.0001) implicDiv2Dflow =  /* Barot. Flow Div. implicit factor (0-1)*/
(PID.TID 0000.0001)                 1.000000000000000E+00
(PID.TID 0000.0001)     ;
(PID.TID 0000.0001) exactConserv =  /* Exact Volume Conservation on/off flag*/
(PID.TID 0000.0001)                   F
(PID.TID 0000.0001)     ;
(PID.TID 0000.0001) linFSConserveTr = /* Tracer correction for Lin Free Surface on/off flag*/
(PID.TID 0000.0001)                   F
(PID.TID 0000.0001)     ;
(PID.TID 0000.0001) uniformLin_PhiSurf = /* use uniform Bo_surf on/off flag*/
(PID.TID 0000.0001)                   T
(PID.TID 0000.0001)     ;
(PID.TID 0000.0001) hFacMin =   /* minimum partial cell factor (hFac) */
(PID.TID 0000.0001)                 2.000000000000000E-01
(PID.TID 0000.0001)     ;
(PID.TID 0000.0001) hFacMinDr = /* minimum partial cell thickness ( m) */
(PID.TID 0000.0001)                 2.000000000000000E-01
(PID.TID 0000.0001)     ;
(PID.TID 0000.0001) nonlinFreeSurf =  /* Non-linear Free Surf. options (-1,0,1,2,3)*/
(PID.TID 0000.0001)                       0
(PID.TID 0000.0001)     ;
(PID.TID 0000.0001)      -1,0= Off ; 1,2,3= On, 2=+rescale gU,gV, 3=+update cg2d solv.
(PID.TID 0000.0001) hFacInf =   /* lower threshold for hFac (nonlinFreeSurf only)*/
(PID.TID 0000.0001)                 2.000000000000000E-01
(PID.TID 0000.0001)     ;
(PID.TID 0000.0001) hFacSup =   /* upper threshold for hFac (nonlinFreeSurf only)*/
(PID.TID 0000.0001)                 2.000000000000000E+00
(PID.TID 0000.0001)     ;
(PID.TID 0000.0001) select_rStar = /* r* Vertical coord. options (=0 r coord.; >0 uses r*)*/
(PID.TID 0000.0001)                       0
(PID.TID 0000.0001)     ;
(PID.TID 0000.0001) selectAddFluid = /* option for mass source/sink of fluid (=0: off) */
(PID.TID 0000.0001)                       0
(PID.TID 0000.0001)     ;
(PID.TID 0000.0001) useRealFreshWaterFlux = /* Real Fresh Water Flux on/off flag*/
(PID.TID 0000.0001)                   F
(PID.TID 0000.0001)     ;
(PID.TID 0000.0001) temp_EvPrRn = /* Temp. of Evap/Prec/R (UNSET=use local T)(oC)*/
(PID.TID 0000.0001)                 1.234567000000000E+05
(PID.TID 0000.0001)     ;
(PID.TID 0000.0001) salt_EvPrRn = /* Salin. of Evap/Prec/R (UNSET=use local S)(psu)*/
(PID.TID 0000.0001)                 0.000000000000000E+00
(PID.TID 0000.0001)     ;
(PID.TID 0000.0001) temp_addMass = /* Temp. of addMass array (UNSET=use local T)(oC)*/
(PID.TID 0000.0001)                 1.234567000000000E+05
(PID.TID 0000.0001)     ;
(PID.TID 0000.0001) salt_addMass = /* Salin. of addMass array (UNSET=use local S)(psu)*/
(PID.TID 0000.0001)                 0.000000000000000E+00
(PID.TID 0000.0001)     ;
(PID.TID 0000.0001) convertFW2Salt = /* convert F.W. Flux to Salt Flux (-1=use local S)(psu)*/
(PID.TID 0000.0001)                 3.500000000000000E+01
(PID.TID 0000.0001)     ;
(PID.TID 0000.0001) use3Dsolver = /* use 3-D pressure solver on/off flag */
(PID.TID 0000.0001)                   F
(PID.TID 0000.0001)     ;
(PID.TID 0000.0001) nonHydrostatic =  /* Non-Hydrostatic on/off flag */
(PID.TID 0000.0001)                   F
(PID.TID 0000.0001)     ;
(PID.TID 0000.0001) nh_Am2 = /* Non-Hydrostatic terms scaling factor */
(PID.TID 0000.0001)                 1.000000000000000E+00
(PID.TID 0000.0001)     ;
(PID.TID 0000.0001) implicitNHPress = /* Non-Hyd Pressure implicit factor (0-1)*/
(PID.TID 0000.0001)                 1.000000000000000E+00
(PID.TID 0000.0001)     ;
(PID.TID 0000.0001) selectNHfreeSurf = /* Non-Hyd (free-)Surface option */
(PID.TID 0000.0001)                       0
(PID.TID 0000.0001)     ;
(PID.TID 0000.0001) quasiHydrostatic = /* Quasi-Hydrostatic on/off flag */
(PID.TID 0000.0001)                   F
(PID.TID 0000.0001)     ;
(PID.TID 0000.0001) momStepping =  /* Momentum equation on/off flag */
(PID.TID 0000.0001)                   T
(PID.TID 0000.0001)     ;
(PID.TID 0000.0001) vectorInvariantMomentum= /* Vector-Invariant Momentum on/off */
(PID.TID 0000.0001)                   F
(PID.TID 0000.0001)     ;
(PID.TID 0000.0001) momAdvection =  /* Momentum advection on/off flag */
(PID.TID 0000.0001)                   T
(PID.TID 0000.0001)     ;
(PID.TID 0000.0001) momViscosity =  /* Momentum viscosity on/off flag */
(PID.TID 0000.0001)                   T
(PID.TID 0000.0001)     ;
(PID.TID 0000.0001) momImplVertAdv= /* Momentum implicit vert. advection on/off*/
(PID.TID 0000.0001)                   F
(PID.TID 0000.0001)     ;
(PID.TID 0000.0001) implicitViscosity = /* Implicit viscosity on/off flag */
(PID.TID 0000.0001)                   F
(PID.TID 0000.0001)     ;
(PID.TID 0000.0001) metricTerms =  /* metric-Terms on/off flag */
(PID.TID 0000.0001)                   F
(PID.TID 0000.0001)     ;
(PID.TID 0000.0001) useNHMTerms = /* Non-Hydrostatic Metric-Terms on/off */
(PID.TID 0000.0001)                   F
(PID.TID 0000.0001)     ;
(PID.TID 0000.0001) useConstantF =  /* use Constant f0 Coriolis flag */
(PID.TID 0000.0001)                   F
(PID.TID 0000.0001)     ;
(PID.TID 0000.0001) useBetaPlaneF = /* use Beta-Plane Coriolis flag */
(PID.TID 0000.0001)                   T
(PID.TID 0000.0001)     ;
(PID.TID 0000.0001) useSphereF  =   /* use Spherical Coriolis flag */
(PID.TID 0000.0001)                   F
(PID.TID 0000.0001)     ;
(PID.TID 0000.0001) use3dCoriolis = /* 3-D Coriolis on/off flag */
(PID.TID 0000.0001)                   F
(PID.TID 0000.0001)     ;
(PID.TID 0000.0001) useCoriolis =  /* Coriolis on/off flag */
(PID.TID 0000.0001)                   T
(PID.TID 0000.0001)     ;
(PID.TID 0000.0001) useCDscheme =  /* CD scheme on/off flag */
(PID.TID 0000.0001)                   F
(PID.TID 0000.0001)     ;
(PID.TID 0000.0001) useJamartWetPoints= /* Coriolis WetPoints method flag */
(PID.TID 0000.0001)                   F
(PID.TID 0000.0001)     ;
(PID.TID 0000.0001) useJamartMomAdv= /* V.I. Non-linear terms Jamart flag */
(PID.TID 0000.0001)                   F
(PID.TID 0000.0001)     ;
(PID.TID 0000.0001) useAbsVorticity= /* Work with f+zeta in Coriolis */
(PID.TID 0000.0001)                   F
(PID.TID 0000.0001)     ;
(PID.TID 0000.0001) selectVortScheme= /* Scheme selector for Vorticity-Term */
(PID.TID 0000.0001)               123456789
(PID.TID 0000.0001)    = 0 : enstrophy (Shallow-Water Eq.) conserving scheme by Sadourny, JAS 75
(PID.TID 0000.0001)    = 1 : same as 0 with modified hFac
(PID.TID 0000.0001)    = 2 : energy conserving scheme (used by Sadourny in JAS 75 paper)
(PID.TID 0000.0001)    = 3 : energy (general) and enstrophy (2D, nonDiv.) conserving scheme
(PID.TID 0000.0001)          from Sadourny (Burridge & Haseler, ECMWF Rep.4, 1977)
(PID.TID 0000.0001)     ;
(PID.TID 0000.0001) upwindVorticity= /* Upwind bias vorticity flag */
(PID.TID 0000.0001)                   F
(PID.TID 0000.0001)     ;
(PID.TID 0000.0001) highOrderVorticity= /* High order interp. of vort. flag */
(PID.TID 0000.0001)                   F
(PID.TID 0000.0001)     ;
(PID.TID 0000.0001) upwindShear= /* Upwind vertical Shear advection flag */
(PID.TID 0000.0001)                   F
(PID.TID 0000.0001)     ;
(PID.TID 0000.0001) selectKEscheme= /* Kinetic Energy scheme selector */
(PID.TID 0000.0001)                       0
(PID.TID 0000.0001)     ;
(PID.TID 0000.0001) momForcing =  /* Momentum forcing on/off flag */
(PID.TID 0000.0001)                   T
(PID.TID 0000.0001)     ;
(PID.TID 0000.0001) momPressureForcing =  /* Momentum pressure term on/off flag */
(PID.TID 0000.0001)                   T
(PID.TID 0000.0001)     ;
(PID.TID 0000.0001) implicitIntGravWave= /* Implicit Internal Gravity Wave flag */
(PID.TID 0000.0001)                   F
(PID.TID 0000.0001)     ;
(PID.TID 0000.0001) staggerTimeStep =   /* Stagger time stepping on/off flag */
(PID.TID 0000.0001)                   F
(PID.TID 0000.0001)     ;
(PID.TID 0000.0001) multiDimAdvection =   /* enable/disable Multi-Dim Advection */
(PID.TID 0000.0001)                   T
(PID.TID 0000.0001)     ;
(PID.TID 0000.0001) useMultiDimAdvec =   /* Multi-Dim Advection is/is-not used */
(PID.TID 0000.0001)                   F
(PID.TID 0000.0001)     ;
(PID.TID 0000.0001) implicitDiffusion = /* Implicit Diffusion on/off flag */
(PID.TID 0000.0001)                   F
(PID.TID 0000.0001)     ;
(PID.TID 0000.0001) tempStepping =  /* Temperature equation on/off flag */
(PID.TID 0000.0001)                   T
(PID.TID 0000.0001)     ;
(PID.TID 0000.0001) tempAdvection=  /* Temperature advection on/off flag */
(PID.TID 0000.0001)                   T
(PID.TID 0000.0001)     ;
(PID.TID 0000.0001) tempImplVertAdv = /* Temp. implicit vert. advection on/off */
(PID.TID 0000.0001)                   F
(PID.TID 0000.0001)     ;
(PID.TID 0000.0001) tempForcing  =  /* Temperature forcing on/off flag */
(PID.TID 0000.0001)                   T
(PID.TID 0000.0001)     ;
(PID.TID 0000.0001) tempIsActiveTr = /* Temp. is a dynamically Active Tracer */
(PID.TID 0000.0001)                   T
(PID.TID 0000.0001)     ;
(PID.TID 0000.0001) saltStepping =  /* Salinity equation on/off flag */
(PID.TID 0000.0001)                   T
(PID.TID 0000.0001)     ;
(PID.TID 0000.0001) saltAdvection=  /* Salinity advection on/off flag */
(PID.TID 0000.0001)                   T
(PID.TID 0000.0001)     ;
(PID.TID 0000.0001) saltImplVertAdv = /* Sali. implicit vert. advection on/off */
(PID.TID 0000.0001)                   F
(PID.TID 0000.0001)     ;
(PID.TID 0000.0001) saltForcing  =  /* Salinity forcing on/off flag */
(PID.TID 0000.0001)                   T
(PID.TID 0000.0001)     ;
(PID.TID 0000.0001) saltIsActiveTr = /* Salt  is a dynamically Active Tracer */
(PID.TID 0000.0001)                   F
(PID.TID 0000.0001)     ;
(PID.TID 0000.0001)  readBinaryPrec = /* Precision used for reading binary files */
(PID.TID 0000.0001)                      64
(PID.TID 0000.0001)     ;
(PID.TID 0000.0001) writeBinaryPrec = /* Precision used for writing binary files */
(PID.TID 0000.0001)                      32
(PID.TID 0000.0001)     ;
(PID.TID 0000.0001)  globalFiles = /* write "global" (=not per tile) files */
(PID.TID 0000.0001)                   F
(PID.TID 0000.0001)     ;
(PID.TID 0000.0001)  useSingleCpuIO = /* only master MPI process does I/O */
(PID.TID 0000.0001)                   F
(PID.TID 0000.0001)     ;
(PID.TID 0000.0001)  debugMode  =  /* Debug Mode on/off flag */
(PID.TID 0000.0001)                   F
(PID.TID 0000.0001)     ;
(PID.TID 0000.0001)    debLevA  =  /* 1rst level of debugging */
(PID.TID 0000.0001)                       1
(PID.TID 0000.0001)     ;
(PID.TID 0000.0001)    debLevB  =  /* 2nd  level of debugging */
(PID.TID 0000.0001)                       2
(PID.TID 0000.0001)     ;
(PID.TID 0000.0001)  debugLevel =  /* select debugging level */
(PID.TID 0000.0001)                       1
(PID.TID 0000.0001)     ;
(PID.TID 0000.0001) //
(PID.TID 0000.0001) // Elliptic solver(s) paramters ( PARM02 in namelist )
(PID.TID 0000.0001) //
(PID.TID 0000.0001) cg2dMaxIters =   /* Upper limit on 2d con. grad iterations  */
(PID.TID 0000.0001)                    1000
(PID.TID 0000.0001)     ;
(PID.TID 0000.0001) cg2dChkResFreq =   /* 2d con. grad convergence test frequency */
(PID.TID 0000.0001)                       1
(PID.TID 0000.0001)     ;
(PID.TID 0000.0001) cg2dTargetResidual =   /* 2d con. grad target residual  */
(PID.TID 0000.0001)                 1.000000000000000E-13
(PID.TID 0000.0001)     ;
(PID.TID 0000.0001) cg2dTargetResWunit =   /* CG2d target residual [W units] */
(PID.TID 0000.0001)                -1.000000000000000E+00
(PID.TID 0000.0001)     ;
(PID.TID 0000.0001) cg2dPreCondFreq =   /* Freq. for updating cg2d preconditioner */
(PID.TID 0000.0001)                       1
(PID.TID 0000.0001)     ;
(PID.TID 0000.0001) useSRCGSolver =  /* use single reduction CG solver(s) */
(PID.TID 0000.0001)                   F
(PID.TID 0000.0001)     ;
(PID.TID 0000.0001) //
(PID.TID 0000.0001) // Time stepping paramters ( PARM03 in namelist )
(PID.TID 0000.0001) //
(PID.TID 0000.0001) deltaTmom =   /* Momentum equation timestep ( s ) */
(PID.TID 0000.0001)                 6.000000000000000E+02
(PID.TID 0000.0001)     ;
(PID.TID 0000.0001) deltaTfreesurf = /* FreeSurface equation timestep ( s ) */
(PID.TID 0000.0001)                 6.000000000000000E+02
(PID.TID 0000.0001)     ;
(PID.TID 0000.0001) dTtracerLev =  /* Tracer equation timestep ( s ) */
(PID.TID 0000.0001)     8 @  6.000000000000000E+02              /* K =  1:  8 */
(PID.TID 0000.0001)     ;
(PID.TID 0000.0001) deltaTClock  =   /* Model clock timestep ( s ) */
(PID.TID 0000.0001)                 6.000000000000000E+02
(PID.TID 0000.0001)     ;
(PID.TID 0000.0001) cAdjFreq =   /* Convective adjustment interval ( s ) */
(PID.TID 0000.0001)                 0.000000000000000E+00
(PID.TID 0000.0001)     ;
(PID.TID 0000.0001) momForcingOutAB = /* =1: take Momentum Forcing out of Adams-Bash. stepping */
(PID.TID 0000.0001)                       0
(PID.TID 0000.0001)     ;
(PID.TID 0000.0001) tracForcingOutAB = /* =1: take T,S,pTr Forcing out of Adams-Bash. stepping */
(PID.TID 0000.0001)                       0
(PID.TID 0000.0001)     ;
(PID.TID 0000.0001) momDissip_In_AB = /* put Dissipation Tendency in Adams-Bash. stepping */
(PID.TID 0000.0001)                   T
(PID.TID 0000.0001)     ;
(PID.TID 0000.0001) doAB_onGtGs = /* apply AB on Tendencies (rather than on T,S)*/
(PID.TID 0000.0001)                   T
(PID.TID 0000.0001)     ;
(PID.TID 0000.0001) abEps =   /* Adams-Bashforth-2 stabilizing weight */
(PID.TID 0000.0001)                 1.000000000000000E-01
(PID.TID 0000.0001)     ;
(PID.TID 0000.0001) pickupStrictlyMatch= /* stop if pickup do not strictly match */
(PID.TID 0000.0001)                   T
(PID.TID 0000.0001)     ;
(PID.TID 0000.0001) nIter0 =   /* Run starting timestep number  */
(PID.TID 0000.0001)                       0
(PID.TID 0000.0001)     ;
(PID.TID 0000.0001) nTimeSteps =   /* Number of timesteps */
(PID.TID 0000.0001)                      10
(PID.TID 0000.0001)     ;
(PID.TID 0000.0001) baseTime =   /* Model base time ( s ). */
(PID.TID 0000.0001)                 0.000000000000000E+00
(PID.TID 0000.0001)     ;
(PID.TID 0000.0001) startTime =   /* Run start time ( s ). */
(PID.TID 0000.0001)                 0.000000000000000E+00
(PID.TID 0000.0001)     ;
(PID.TID 0000.0001) endTime =   /* Integration ending time ( s ). */
(PID.TID 0000.0001)                 6.000000000000000E+03
(PID.TID 0000.0001)     ;
(PID.TID 0000.0001) pChkPtFreq =   /* Permanent restart/checkpoint file interval ( s ). */
(PID.TID 0000.0001)                 0.000000000000000E+00
(PID.TID 0000.0001)     ;
(PID.TID 0000.0001) chkPtFreq =   /* Rolling restart/checkpoint file interval ( s ). */
(PID.TID 0000.0001)                 0.000000000000000E+00
(PID.TID 0000.0001)     ;
(PID.TID 0000.0001) pickup_write_mdsio =   /* Model IO flag. */
(PID.TID 0000.0001)                   T
(PID.TID 0000.0001)     ;
(PID.TID 0000.0001) pickup_read_mdsio =   /* Model IO flag. */
(PID.TID 0000.0001)                   T
(PID.TID 0000.0001)     ;
(PID.TID 0000.0001) pickup_write_immed =   /* Model IO flag. */
(PID.TID 0000.0001)                   F
(PID.TID 0000.0001)     ;
(PID.TID 0000.0001) writePickupAtEnd =   /* Model IO flag. */
(PID.TID 0000.0001)                   T
(PID.TID 0000.0001)     ;
(PID.TID 0000.0001) dumpFreq =   /* Model state write out interval ( s ). */
(PID.TID 0000.0001)                 1.080000000000000E+04
(PID.TID 0000.0001)     ;
(PID.TID 0000.0001) dumpInitAndLast= /* write out Initial & Last iter. model state */
(PID.TID 0000.0001)                   T
(PID.TID 0000.0001)     ;
(PID.TID 0000.0001) snapshot_mdsio =   /* Model IO flag. */
(PID.TID 0000.0001)                   T
(PID.TID 0000.0001)     ;
(PID.TID 0000.0001) monitorFreq =   /* Monitor output interval ( s ). */
(PID.TID 0000.0001)                 1.000000000000000E+00
(PID.TID 0000.0001)     ;
(PID.TID 0000.0001) monitorSelect = /* select group of variables to monitor */
(PID.TID 0000.0001)                       2
(PID.TID 0000.0001)     ;
(PID.TID 0000.0001) monitor_stdio =   /* Model IO flag. */
(PID.TID 0000.0001)                   T
(PID.TID 0000.0001)     ;
(PID.TID 0000.0001) externForcingPeriod =   /* forcing period (s) */
(PID.TID 0000.0001)                 0.000000000000000E+00
(PID.TID 0000.0001)     ;
(PID.TID 0000.0001) externForcingCycle =   /* period of the cyle (s). */
(PID.TID 0000.0001)                 0.000000000000000E+00
(PID.TID 0000.0001)     ;
(PID.TID 0000.0001) tauThetaClimRelax =   /* relaxation time scale (s) */
(PID.TID 0000.0001)                 0.000000000000000E+00
(PID.TID 0000.0001)     ;
(PID.TID 0000.0001) tauSaltClimRelax =   /* relaxation time scale (s) */
(PID.TID 0000.0001)                 0.000000000000000E+00
(PID.TID 0000.0001)     ;
(PID.TID 0000.0001) latBandClimRelax =   /* max. Lat. where relaxation */
(PID.TID 0000.0001)                 6.300000000000000E+05
(PID.TID 0000.0001)     ;
(PID.TID 0000.0001) //
(PID.TID 0000.0001) // Gridding paramters ( PARM04 in namelist )
(PID.TID 0000.0001) //
(PID.TID 0000.0001) usingCartesianGrid = /* Cartesian coordinates flag ( True/False ) */
(PID.TID 0000.0001)                   T
(PID.TID 0000.0001)     ;
(PID.TID 0000.0001) usingCylindricalGrid = /* Cylindrical coordinates flag ( True/False ) */
(PID.TID 0000.0001)                   F
(PID.TID 0000.0001)     ;
(PID.TID 0000.0001) usingSphericalPolarGrid = /* Spherical coordinates flag ( True/False ) */
(PID.TID 0000.0001)                   F
(PID.TID 0000.0001)     ;
(PID.TID 0000.0001) usingCurvilinearGrid = /* Curvilinear coordinates flag ( True/False ) */
(PID.TID 0000.0001)                   F
(PID.TID 0000.0001)     ;
(PID.TID 0000.0001) selectSigmaCoord = /* Hybrid-Sigma Vert. Coordinate option */
(PID.TID 0000.0001)                       0
(PID.TID 0000.0001)     ;
(PID.TID 0000.0001) Ro_SeaLevel = /* r(1) ( units of r ==  m ) */
(PID.TID 0000.0001)                 0.000000000000000E+00
(PID.TID 0000.0001)     ;
(PID.TID 0000.0001) rSigmaBnd = /* r/sigma transition ( units of r ==  m ) */
(PID.TID 0000.0001)                 1.234567000000000E+05
(PID.TID 0000.0001)     ;
(PID.TID 0000.0001) rkSign =   /* index orientation relative to vertical coordinate */
(PID.TID 0000.0001)                -1.000000000000000E+00
(PID.TID 0000.0001)     ;
(PID.TID 0000.0001) gravitySign = /* gravity orientation relative to vertical coordinate */
(PID.TID 0000.0001)                -1.000000000000000E+00
(PID.TID 0000.0001)     ;
(PID.TID 0000.0001) mass2rUnit = /* convert mass per unit area [kg/m2] to r-units [m] */
(PID.TID 0000.0001)                 1.000200040008002E-03
(PID.TID 0000.0001)     ;
(PID.TID 0000.0001) rUnit2mass = /* convert r-units [m] to mass per unit area [kg/m2] */
(PID.TID 0000.0001)                 9.998000000000000E+02
(PID.TID 0000.0001)     ;
(PID.TID 0000.0001) drC =   /* C spacing ( units of r ) */
(PID.TID 0000.0001)                 2.812500000000000E+02,      /* K =  1 */
(PID.TID 0000.0001)     7 @  5.625000000000000E+02              /* K =  2:  8 */
(PID.TID 0000.0001)     ;
(PID.TID 0000.0001) drF =   /* W spacing ( units of r ) */
(PID.TID 0000.0001)     8 @  5.625000000000000E+02              /* K =  1:  8 */
(PID.TID 0000.0001)     ;
(PID.TID 0000.0001) delX = /* U spacing ( m - cartesian, degrees - spherical ) */
(PID.TID 0000.0001)    80 @  5.000000000000000E+03              /* I =  1: 80 */
(PID.TID 0000.0001)     ;
(PID.TID 0000.0001) delY = /* V spacing ( m - cartesian, degrees - spherical ) */
(PID.TID 0000.0001)    42 @  5.000000000000000E+03              /* J =  1: 42 */
(PID.TID 0000.0001)     ;
(PID.TID 0000.0001) xgOrigin = /* X-axis origin of West  edge (cartesian: m, lat-lon: deg.) */
(PID.TID 0000.0001)                 0.000000000000000E+00
(PID.TID 0000.0001)     ;
(PID.TID 0000.0001) ygOrigin = /* Y-axis origin of South edge (cartesian: m, lat-lon: deg.) */
(PID.TID 0000.0001)                 0.000000000000000E+00
(PID.TID 0000.0001)     ;
(PID.TID 0000.0001) rSphere =  /* Radius ( ignored - cartesian, m - spherical ) */
(PID.TID 0000.0001)                 6.370000000000000E+06
(PID.TID 0000.0001)     ;
(PID.TID 0000.0001) deepAtmosphere = /* Deep/Shallow Atmosphere flag (True/False) */
(PID.TID 0000.0001)                   F
(PID.TID 0000.0001)     ;
(PID.TID 0000.0001) xC =  /* xC(:,1,:,1) : P-point X coord ( deg. or m if cartesian) */
(PID.TID 0000.0001)                 2.500000000000000E+03,      /* I =  1 */
(PID.TID 0000.0001)                 7.500000000000000E+03,      /* I =  2 */
(PID.TID 0000.0001)                 1.250000000000000E+04,      /* I =  3 */
(PID.TID 0000.0001)      . . .
(PID.TID 0000.0001)                 8.750000000000000E+04,      /* I = 18 */
(PID.TID 0000.0001)                 9.250000000000000E+04,      /* I = 19 */
(PID.TID 0000.0001)                 9.750000000000000E+04,      /* I = 20 */
(PID.TID 0000.0001)                 1.025000000000000E+05,      /* I = 21 */
(PID.TID 0000.0001)                 1.075000000000000E+05,      /* I = 22 */
(PID.TID 0000.0001)                 1.125000000000000E+05,      /* I = 23 */
(PID.TID 0000.0001)      . . .
(PID.TID 0000.0001)                 1.875000000000000E+05,      /* I = 38 */
(PID.TID 0000.0001)                 1.925000000000000E+05,      /* I = 39 */
(PID.TID 0000.0001)                 1.975000000000000E+05,      /* I = 40 */
(PID.TID 0000.0001)                 2.025000000000000E+05,      /* I = 41 */
(PID.TID 0000.0001)                 2.075000000000000E+05,      /* I = 42 */
(PID.TID 0000.0001)                 2.125000000000000E+05,      /* I = 43 */
(PID.TID 0000.0001)      . . .
(PID.TID 0000.0001)                 2.875000000000000E+05,      /* I = 58 */
(PID.TID 0000.0001)                 2.925000000000000E+05,      /* I = 59 */
(PID.TID 0000.0001)                 2.975000000000000E+05,      /* I = 60 */
(PID.TID 0000.0001)                 3.025000000000000E+05,      /* I = 61 */
(PID.TID 0000.0001)                 3.075000000000000E+05,      /* I = 62 */
(PID.TID 0000.0001)                 3.125000000000000E+05,      /* I = 63 */
(PID.TID 0000.0001)      . . .
(PID.TID 0000.0001)                 3.875000000000000E+05,      /* I = 78 */
(PID.TID 0000.0001)                 3.925000000000000E+05,      /* I = 79 */
(PID.TID 0000.0001)                 3.975000000000000E+05       /* I = 80 */
(PID.TID 0000.0001)     ;
(PID.TID 0000.0001) yC =  /* yC(1,:,1,:) : P-point Y coord ( deg. or m if cartesian) */
(PID.TID 0000.0001)                 2.500000000000000E+03,      /* J =  1 */
(PID.TID 0000.0001)                 7.500000000000000E+03,      /* J =  2 */
(PID.TID 0000.0001)                 1.250000000000000E+04,      /* J =  3 */
(PID.TID 0000.0001)                 1.750000000000000E+04,      /* J =  4 */
(PID.TID 0000.0001)                 2.250000000000000E+04,      /* J =  5 */
(PID.TID 0000.0001)                 2.750000000000000E+04,      /* J =  6 */
(PID.TID 0000.0001)                 3.250000000000000E+04,      /* J =  7 */
(PID.TID 0000.0001)                 3.750000000000000E+04,      /* J =  8 */
(PID.TID 0000.0001)                 4.250000000000000E+04,      /* J =  9 */
(PID.TID 0000.0001)                 4.750000000000000E+04,      /* J = 10 */
(PID.TID 0000.0001)                 5.250000000000000E+04,      /* J = 11 */
(PID.TID 0000.0001)                 5.750000000000000E+04,      /* J = 12 */
(PID.TID 0000.0001)                 6.250000000000000E+04,      /* J = 13 */
(PID.TID 0000.0001)                 6.750000000000000E+04,      /* J = 14 */
(PID.TID 0000.0001)                 7.250000000000000E+04,      /* J = 15 */
(PID.TID 0000.0001)                 7.750000000000000E+04,      /* J = 16 */
(PID.TID 0000.0001)                 8.250000000000000E+04,      /* J = 17 */
(PID.TID 0000.0001)                 8.750000000000000E+04,      /* J = 18 */
(PID.TID 0000.0001)                 9.250000000000000E+04,      /* J = 19 */
(PID.TID 0000.0001)                 9.750000000000000E+04,      /* J = 20 */
(PID.TID 0000.0001)                 1.025000000000000E+05,      /* J = 21 */
(PID.TID 0000.0001)                 1.075000000000000E+05,      /* J = 22 */
(PID.TID 0000.0001)                 1.125000000000000E+05,      /* J = 23 */
(PID.TID 0000.0001)                 1.175000000000000E+05,      /* J = 24 */
(PID.TID 0000.0001)                 1.225000000000000E+05,      /* J = 25 */
(PID.TID 0000.0001)                 1.275000000000000E+05,      /* J = 26 */
(PID.TID 0000.0001)                 1.325000000000000E+05,      /* J = 27 */
(PID.TID 0000.0001)                 1.375000000000000E+05,      /* J = 28 */
(PID.TID 0000.0001)                 1.425000000000000E+05,      /* J = 29 */
(PID.TID 0000.0001)                 1.475000000000000E+05,      /* J = 30 */
(PID.TID 0000.0001)                 1.525000000000000E+05,      /* J = 31 */
(PID.TID 0000.0001)                 1.575000000000000E+05,      /* J = 32 */
(PID.TID 0000.0001)                 1.625000000000000E+05,      /* J = 33 */
(PID.TID 0000.0001)                 1.675000000000000E+05,      /* J = 34 */
(PID.TID 0000.0001)                 1.725000000000000E+05,      /* J = 35 */
(PID.TID 0000.0001)                 1.775000000000000E+05,      /* J = 36 */
(PID.TID 0000.0001)                 1.825000000000000E+05,      /* J = 37 */
(PID.TID 0000.0001)                 1.875000000000000E+05,      /* J = 38 */
(PID.TID 0000.0001)                 1.925000000000000E+05,      /* J = 39 */
(PID.TID 0000.0001)                 1.975000000000000E+05,      /* J = 40 */
(PID.TID 0000.0001)                 2.025000000000000E+05,      /* J = 41 */
(PID.TID 0000.0001)                 2.075000000000000E+05       /* J = 42 */
(PID.TID 0000.0001)     ;
(PID.TID 0000.0001) rcoord = /* P-point R coordinate (  units of r ) */
(PID.TID 0000.0001)                -2.812500000000000E+02,      /* K =  1 */
(PID.TID 0000.0001)                -8.437500000000000E+02,      /* K =  2 */
(PID.TID 0000.0001)                -1.406250000000000E+03,      /* K =  3 */
(PID.TID 0000.0001)                -1.968750000000000E+03,      /* K =  4 */
(PID.TID 0000.0001)                -2.531250000000000E+03,      /* K =  5 */
(PID.TID 0000.0001)                -3.093750000000000E+03,      /* K =  6 */
(PID.TID 0000.0001)                -3.656250000000000E+03,      /* K =  7 */
(PID.TID 0000.0001)                -4.218750000000000E+03       /* K =  8 */
(PID.TID 0000.0001)     ;
(PID.TID 0000.0001) rF =   /* W-Interf. R coordinate (  units of r ) */
(PID.TID 0000.0001)                 0.000000000000000E+00,      /* K =  1 */
(PID.TID 0000.0001)                -5.625000000000000E+02,      /* K =  2 */
(PID.TID 0000.0001)                -1.125000000000000E+03,      /* K =  3 */
(PID.TID 0000.0001)                -1.687500000000000E+03,      /* K =  4 */
(PID.TID 0000.0001)                -2.250000000000000E+03,      /* K =  5 */
(PID.TID 0000.0001)                -2.812500000000000E+03,      /* K =  6 */
(PID.TID 0000.0001)                -3.375000000000000E+03,      /* K =  7 */
(PID.TID 0000.0001)                -3.937500000000000E+03,      /* K =  8 */
(PID.TID 0000.0001)                -4.500000000000000E+03       /* K =  9 */
(PID.TID 0000.0001)     ;
(PID.TID 0000.0001) deepFacC = /* deep-model grid factor @ cell-Center (-) */
(PID.TID 0000.0001)     8 @  1.000000000000000E+00              /* K =  1:  8 */
(PID.TID 0000.0001)     ;
(PID.TID 0000.0001) deepFacF = /* deep-model grid factor @ W-Interface (-) */
(PID.TID 0000.0001)     9 @  1.000000000000000E+00              /* K =  1:  9 */
(PID.TID 0000.0001)     ;
(PID.TID 0000.0001) rVel2wUnit = /* convert units: rVel -> wSpeed (=1 if z-coord)*/
(PID.TID 0000.0001)     9 @  1.000000000000000E+00              /* K =  1:  9 */
(PID.TID 0000.0001)     ;
(PID.TID 0000.0001) wUnit2rVel = /* convert units: wSpeed -> rVel (=1 if z-coord)*/
(PID.TID 0000.0001)     9 @  1.000000000000000E+00              /* K =  1:  9 */
(PID.TID 0000.0001)     ;
(PID.TID 0000.0001) dBdrRef = /* Vertical gradient of reference boyancy [(m/s/r)^2)] */
(PID.TID 0000.0001)                 0.000000000000000E+00,      /* K =  1 */
(PID.TID 0000.0001)                 6.944468479999999E-07,      /* K =  2 */
(PID.TID 0000.0001)                 6.944433600000000E-07,      /* K =  3 */
(PID.TID 0000.0001)                 6.944444064000000E-07,      /* K =  4 */
(PID.TID 0000.0001)                 6.944447552000002E-07,      /* K =  5 */
(PID.TID 0000.0001)                 6.944444064000000E-07,      /* K =  6 */
(PID.TID 0000.0001)                 6.944433600000000E-07,      /* K =  7 */
(PID.TID 0000.0001)                 6.944468479999999E-07       /* K =  8 */
(PID.TID 0000.0001)     ;
(PID.TID 0000.0001) rotateGrid = /* use rotated grid ( True/False ) */
(PID.TID 0000.0001)                   F
(PID.TID 0000.0001)     ;
(PID.TID 0000.0001) phiEuler = /* Euler angle, rotation about original z-coordinate [rad] */
(PID.TID 0000.0001)                 0.000000000000000E+00
(PID.TID 0000.0001)     ;
(PID.TID 0000.0001) thetaEuler = /* Euler angle, rotation about new x-coordinate [rad] */
(PID.TID 0000.0001)                 0.000000000000000E+00
(PID.TID 0000.0001)     ;
(PID.TID 0000.0001) psiEuler = /* Euler angle, rotation about new z-coordinate [rad] */
(PID.TID 0000.0001)                 0.000000000000000E+00
(PID.TID 0000.0001)     ;
(PID.TID 0000.0001) dxF =  /* dxF(:,1,:,1) ( units: m ) */
(PID.TID 0000.0001)    80 @  5.000000000000000E+03              /* I =  1: 80 */
(PID.TID 0000.0001)     ;
(PID.TID 0000.0001) dxF =  /* dxF(1,:,1,:) ( units: m ) */
(PID.TID 0000.0001)    42 @  5.000000000000000E+03              /* J =  1: 42 */
(PID.TID 0000.0001)     ;
(PID.TID 0000.0001) dyF =  /* dyF(:,1,:,1) ( units: m ) */
(PID.TID 0000.0001)    80 @  5.000000000000000E+03              /* I =  1: 80 */
(PID.TID 0000.0001)     ;
(PID.TID 0000.0001) dyF =  /* dyF(1,:,1,:) ( units: m ) */
(PID.TID 0000.0001)    42 @  5.000000000000000E+03              /* J =  1: 42 */
(PID.TID 0000.0001)     ;
(PID.TID 0000.0001) dxG =  /* dxG(:,1,:,1) ( units: m ) */
(PID.TID 0000.0001)    80 @  5.000000000000000E+03              /* I =  1: 80 */
(PID.TID 0000.0001)     ;
(PID.TID 0000.0001) dxG =  /* dxG(1,:,1,:) ( units: m ) */
(PID.TID 0000.0001)    42 @  5.000000000000000E+03              /* J =  1: 42 */
(PID.TID 0000.0001)     ;
(PID.TID 0000.0001) dyG =  /* dyG(:,1,:,1) ( units: m ) */
(PID.TID 0000.0001)    80 @  5.000000000000000E+03              /* I =  1: 80 */
(PID.TID 0000.0001)     ;
(PID.TID 0000.0001) dyG =  /* dyG(1,:,1,:) ( units: m ) */
(PID.TID 0000.0001)    42 @  5.000000000000000E+03              /* J =  1: 42 */
(PID.TID 0000.0001)     ;
(PID.TID 0000.0001) dxC =  /* dxC(:,1,:,1) ( units: m ) */
(PID.TID 0000.0001)    80 @  5.000000000000000E+03              /* I =  1: 80 */
(PID.TID 0000.0001)     ;
(PID.TID 0000.0001) dxC =  /* dxC(1,:,1,:) ( units: m ) */
(PID.TID 0000.0001)    42 @  5.000000000000000E+03              /* J =  1: 42 */
(PID.TID 0000.0001)     ;
(PID.TID 0000.0001) dyC =  /* dyC(:,1,:,1) ( units: m ) */
(PID.TID 0000.0001)    80 @  5.000000000000000E+03              /* I =  1: 80 */
(PID.TID 0000.0001)     ;
(PID.TID 0000.0001) dyC =  /* dyC(1,:,1,:) ( units: m ) */
(PID.TID 0000.0001)    42 @  5.000000000000000E+03              /* J =  1: 42 */
(PID.TID 0000.0001)     ;
(PID.TID 0000.0001) dxV =  /* dxV(:,1,:,1) ( units: m ) */
(PID.TID 0000.0001)    80 @  5.000000000000000E+03              /* I =  1: 80 */
(PID.TID 0000.0001)     ;
(PID.TID 0000.0001) dxV =  /* dxV(1,:,1,:) ( units: m ) */
(PID.TID 0000.0001)    42 @  5.000000000000000E+03              /* J =  1: 42 */
(PID.TID 0000.0001)     ;
(PID.TID 0000.0001) dyU =  /* dyU(:,1,:,1) ( units: m ) */
(PID.TID 0000.0001)    80 @  5.000000000000000E+03              /* I =  1: 80 */
(PID.TID 0000.0001)     ;
(PID.TID 0000.0001) dyU =  /* dyU(1,:,1,:) ( units: m ) */
(PID.TID 0000.0001)    42 @  5.000000000000000E+03              /* J =  1: 42 */
(PID.TID 0000.0001)     ;
(PID.TID 0000.0001) rA  =  /* rA (:,1,:,1) ( units: m^2 ) */
(PID.TID 0000.0001)    80 @  2.500000000000000E+07              /* I =  1: 80 */
(PID.TID 0000.0001)     ;
(PID.TID 0000.0001) rA  =  /* rA (1,:,1,:) ( units: m^2 ) */
(PID.TID 0000.0001)    42 @  2.500000000000000E+07              /* J =  1: 42 */
(PID.TID 0000.0001)     ;
(PID.TID 0000.0001) rAw =  /* rAw(:,1,:,1) ( units: m^2 ) */
(PID.TID 0000.0001)    80 @  2.500000000000000E+07              /* I =  1: 80 */
(PID.TID 0000.0001)     ;
(PID.TID 0000.0001) rAw =  /* rAw(1,:,1,:) ( units: m^2 ) */
(PID.TID 0000.0001)    42 @  2.500000000000000E+07              /* J =  1: 42 */
(PID.TID 0000.0001)     ;
(PID.TID 0000.0001) rAs =  /* rAs(:,1,:,1) ( units: m^2 ) */
(PID.TID 0000.0001)    80 @  2.500000000000000E+07              /* I =  1: 80 */
(PID.TID 0000.0001)     ;
(PID.TID 0000.0001) rAs =  /* rAs(1,:,1,:) ( units: m^2 ) */
(PID.TID 0000.0001)    42 @  2.500000000000000E+07              /* J =  1: 42 */
(PID.TID 0000.0001)     ;
(PID.TID 0000.0001) globalArea = /* Integrated horizontal Area (m^2) */
(PID.TID 0000.0001)                 7.800000000000000E+10
(PID.TID 0000.0001)     ;
(PID.TID 0000.0001) // =======================================================
(PID.TID 0000.0001) // End of Model config. summary
(PID.TID 0000.0001) // =======================================================
(PID.TID 0000.0001) 
(PID.TID 0000.0001) == Packages configuration : Check & print summary ==
(PID.TID 0000.0001) 
(PID.TID 0000.0001) GAD_CHECK: #define ALLOW_GENERIC_ADVDIFF
(PID.TID 0000.0001) OBCS_CHECK: #define ALLOW_OBCS
(PID.TID 0000.0001) OBCS_CHECK: #define ALLOW_ORLANSKI
(PID.TID 0000.0001) OBCS_CHECK: OK
(PID.TID 0000.0001) // =======================================================
(PID.TID 0000.0001) // CONFIG_CHECK : Normal End
(PID.TID 0000.0001) // =======================================================
(PID.TID 0000.0001) 
(PID.TID 0000.0001) Start initial hydrostatic pressure computation
(PID.TID 0000.0001) Pressure is predetermined for buoyancyRelation OCEANIC
(PID.TID 0000.0001) 
(PID.TID 0000.0001)  OBCS_EXTERNAL_FIELDS_LOAD: Reading initial data:         0  0.000000000000E+00
(PID.TID 0000.0001)  MDS_READ_SEC_YZ: opening global file: OBzonalU.bin
(PID.TID 0000.0001)  MDS_READ_SEC_YZ: opening global file: OBzonalU.bin
(PID.TID 0000.0001)  MDS_READ_SEC_YZ: opening global file: OBzonalS.bin
(PID.TID 0000.0001)  MDS_READ_SEC_XZ: opening global file: OBmeridU.bin
(PID.TID 0000.0001)  MDS_READ_SEC_XZ: opening global file: OBmeridU.bin
(PID.TID 0000.0001)  MDS_READ_SEC_YZ: opening global file: OBzonalS.bin
(PID.TID 0000.0001) // =======================================================
(PID.TID 0000.0001) // Model current state
(PID.TID 0000.0001) // =======================================================
(PID.TID 0000.0001) 
(PID.TID 0000.0001) // =======================================================
(PID.TID 0000.0001) // Begin MONITOR dynamic field statistics
(PID.TID 0000.0001) // =======================================================
(PID.TID 0000.0001) %MON time_tsnumber                =                     0
(PID.TID 0000.0001) %MON time_secondsf                =   0.0000000000000E+00
(PID.TID 0000.0001) %MON dynstat_eta_max              =   0.0000000000000E+00
(PID.TID 0000.0001) %MON dynstat_eta_min              =   0.0000000000000E+00
(PID.TID 0000.0001) %MON dynstat_eta_mean             =   0.0000000000000E+00
(PID.TID 0000.0001) %MON dynstat_eta_sd               =   0.0000000000000E+00
(PID.TID 0000.0001) %MON dynstat_eta_del2             =   0.0000000000000E+00
(PID.TID 0000.0001) %MON dynstat_uvel_max             =   0.0000000000000E+00
(PID.TID 0000.0001) %MON dynstat_uvel_min             =   0.0000000000000E+00
(PID.TID 0000.0001) %MON dynstat_uvel_mean            =   0.0000000000000E+00
(PID.TID 0000.0001) %MON dynstat_uvel_sd              =   0.0000000000000E+00
(PID.TID 0000.0001) %MON dynstat_uvel_del2            =   4.5674579116595E-04
(PID.TID 0000.0001) %MON dynstat_vvel_max             =   0.0000000000000E+00
(PID.TID 0000.0001) %MON dynstat_vvel_min             =   0.0000000000000E+00
(PID.TID 0000.0001) %MON dynstat_vvel_mean            =   0.0000000000000E+00
(PID.TID 0000.0001) %MON dynstat_vvel_sd              =   0.0000000000000E+00
(PID.TID 0000.0001) %MON dynstat_vvel_del2            =   0.0000000000000E+00
(PID.TID 0000.0001) %MON dynstat_wvel_max             =   2.2500000000000E-01
(PID.TID 0000.0001) %MON dynstat_wvel_min             =  -2.2500000000000E-01
(PID.TID 0000.0001) %MON dynstat_wvel_mean            =   0.0000000000000E+00
(PID.TID 0000.0001) %MON dynstat_wvel_sd              =   2.1984548707734E-02
(PID.TID 0000.0001) %MON dynstat_wvel_del2            =   3.3530637830975E-04
(PID.TID 0000.0001) %MON dynstat_theta_max            =   6.9683400000000E-01
(PID.TID 0000.0001) %MON dynstat_theta_min            =  -6.9683400000000E-01
(PID.TID 0000.0001) %MON dynstat_theta_mean           =   2.0290053818661E-02
(PID.TID 0000.0001) %MON dynstat_theta_sd             =   4.5211958569214E-01
(PID.TID 0000.0001) %MON dynstat_theta_del2           =   0.0000000000000E+00
(PID.TID 0000.0001) %MON dynstat_salt_max             =   3.5000000000000E+01
(PID.TID 0000.0001) %MON dynstat_salt_min             =   3.5000000000000E+01
(PID.TID 0000.0001) %MON dynstat_salt_mean            =   3.5000000000000E+01
(PID.TID 0000.0001) %MON dynstat_salt_sd              =   1.1368683772162E-13
(PID.TID 0000.0001) %MON dynstat_salt_del2            =   7.4287972674412E-04
(PID.TID 0000.0001) %MON advcfl_uvel_max              =   3.0000000000000E-02
(PID.TID 0000.0001) %MON advcfl_vvel_max              =   0.0000000000000E+00
(PID.TID 0000.0001) %MON advcfl_wvel_max              =   4.8000000000000E-01
(PID.TID 0000.0001) %MON advcfl_W_hf_max              =   2.1000000000000E-01
(PID.TID 0000.0001) %MON pe_b_mean                    =   0.0000000000000E+00
(PID.TID 0000.0001) %MON ke_max                       =   3.1250000000000E-02
(PID.TID 0000.0001) %MON ke_mean                      =   2.7186839835992E-03
(PID.TID 0000.0001) %MON ke_vol                       =   3.6207071198500E+14
(PID.TID 0000.0001) %MON vort_r_min                   =  -5.0000000000000E-05
(PID.TID 0000.0001) %MON vort_r_max                   =   5.0000000000000E-05
(PID.TID 0000.0001) %MON vort_a_mean                  =   1.0000000000000E-04
(PID.TID 0000.0001) %MON vort_a_sd                    =   1.0868756421277E-05
(PID.TID 0000.0001) %MON vort_p_mean                  =   1.0161982423688E-04
(PID.TID 0000.0001) %MON vort_p_sd                    =   3.1004324650514E-05
(PID.TID 0000.0001) %MON surfExpan_theta_mean         =   0.0000000000000E+00
(PID.TID 0000.0001) %MON surfExpan_salt_mean          =   0.0000000000000E+00
(PID.TID 0000.0001) // =======================================================
(PID.TID 0000.0001) // End MONITOR dynamic field statistics
(PID.TID 0000.0001) // =======================================================
(PID.TID 0000.0001) // =======================================================
(PID.TID 0000.0001) // Begin MONITOR ptracer field statistics
(PID.TID 0000.0001) // =======================================================
(PID.TID 0000.0001) %MON trcstat_ptracer01_max        =   3.5000000000000E+01
(PID.TID 0000.0001) %MON trcstat_ptracer01_min        =   3.5000000000000E+01
(PID.TID 0000.0001) %MON trcstat_ptracer01_mean       =   3.5000000000000E+01
(PID.TID 0000.0001) %MON trcstat_ptracer01_sd         =   1.1368683772162E-13
(PID.TID 0000.0001) %MON trcstat_ptracer01_del2       =   7.4287972674412E-04
(PID.TID 0000.0001) // =======================================================
(PID.TID 0000.0001) // End MONITOR ptracers field statistics
(PID.TID 0000.0001) // =======================================================
S/R RBCS_FIELDS_LOAD: Reading new data:    1    1         0  0.000000000000E+00
(PID.TID 0000.0001)  MDS_READ_FIELD: opening global file: rbcs_Tr1_fld.bin
(PID.TID 0000.0001)  MDS_READ_FIELD: opening global file: rbcs_Tr1_fld.bin
(PID.TID 0000.0001) SOLVE_FOR_PRESSURE: putPmEinXvector =    F
(PID.TID 0000.0001) SOLVE_FOR_PRESSURE: zeroPsNH=    F , zeroMeanPnh=    F
(PID.TID 0000.0001) SOLVE_FOR_PRESSURE: oldFreeSurfTerm =    F
 cg2d: Sum(rhs),rhsMax =   1.77635683940025E-14  2.06145833333333E+00
(PID.TID 0000.0001)                    cg2d_init_res =    8.81492288299896E+00
(PID.TID 0000.0001)                       cg2d_iters =   176
(PID.TID 0000.0001)                         cg2d_res =    7.21819886263536E-14
(PID.TID 0000.0001) // =======================================================
(PID.TID 0000.0001) // Begin MONITOR dynamic field statistics
(PID.TID 0000.0001) // =======================================================
(PID.TID 0000.0001) %MON time_tsnumber                =                     1
(PID.TID 0000.0001) %MON time_secondsf                =   6.0000000000000E+02
(PID.TID 0000.0001) %MON dynstat_eta_max              =   4.8714038386277E+00
(PID.TID 0000.0001) %MON dynstat_eta_min              =  -4.8744533900603E+00
(PID.TID 0000.0001) %MON dynstat_eta_mean             =  -3.0270655270655E-15
(PID.TID 0000.0001) %MON dynstat_eta_sd               =   2.5556207671837E+00
(PID.TID 0000.0001) %MON dynstat_eta_del2             =   9.1018317912418E-05
(PID.TID 0000.0001) %MON dynstat_uvel_max             =   2.4777173279442E-01
(PID.TID 0000.0001) %MON dynstat_uvel_min             =   9.2586296842773E-02
(PID.TID 0000.0001) %MON dynstat_uvel_mean            =   1.4979148266478E-01
(PID.TID 0000.0001) %MON dynstat_uvel_sd              =   3.9772780193155E-02
(PID.TID 0000.0001) %MON dynstat_uvel_del2            =   1.4440521475433E-04
(PID.TID 0000.0001) %MON dynstat_vvel_max             =   3.1998870575201E-02
(PID.TID 0000.0001) %MON dynstat_vvel_min             =  -3.1867303003545E-02
(PID.TID 0000.0001) %MON dynstat_vvel_mean            =  -3.5544258642569E-05
(PID.TID 0000.0001) %MON dynstat_vvel_sd              =   7.1359985081408E-03
(PID.TID 0000.0001) %MON dynstat_vvel_del2            =   1.7870409405896E-05
(PID.TID 0000.0001) %MON dynstat_wvel_max             =   8.9597599102234E-03
(PID.TID 0000.0001) %MON dynstat_wvel_min             =  -8.9596601246243E-03
(PID.TID 0000.0001) %MON dynstat_wvel_mean            =  -2.4091239885534E-18
(PID.TID 0000.0001) %MON dynstat_wvel_sd              =   2.7617521125729E-03
(PID.TID 0000.0001) %MON dynstat_wvel_del2            =   7.2443003991874E-06
(PID.TID 0000.0001) %MON dynstat_theta_max            =   7.1773907622455E-01
(PID.TID 0000.0001) %MON dynstat_theta_min            =  -6.9982043622455E-01
(PID.TID 0000.0001) %MON dynstat_theta_mean           =   2.0290053818663E-02
(PID.TID 0000.0001) %MON dynstat_theta_sd             =   4.5213627435388E-01
(PID.TID 0000.0001) %MON dynstat_theta_del2           =   5.5963129338954E-05
(PID.TID 0000.0001) %MON dynstat_salt_max             =   3.5039000000000E+01
(PID.TID 0000.0001) %MON dynstat_salt_min             =   3.5000000000000E+01
(PID.TID 0000.0001) %MON dynstat_salt_mean            =   3.5000523769152E+01
(PID.TID 0000.0001) %MON dynstat_salt_sd              =   4.4891717266940E-03
(PID.TID 0000.0001) %MON dynstat_salt_del2            =   6.8557819881807E-04
(PID.TID 0000.0001) %MON advcfl_uvel_max              =   3.0000000000000E-02
(PID.TID 0000.0001) %MON advcfl_vvel_max              =   3.8398644690242E-03
(PID.TID 0000.0001) %MON advcfl_wvel_max              =   1.7331389831308E-02
(PID.TID 0000.0001) %MON advcfl_W_hf_max              =   1.9934313991467E-02
(PID.TID 0000.0001) %MON pe_b_mean                    =   6.9013338305977E-03
(PID.TID 0000.0001) %MON ke_max                       =   3.1250000000000E-02
(PID.TID 0000.0001) %MON ke_mean                      =   1.3664488823087E-02
(PID.TID 0000.0001) %MON ke_vol                       =   3.6207071198500E+14
(PID.TID 0000.0001) %MON vort_r_min                   =  -4.5844783447767E-05
(PID.TID 0000.0001) %MON vort_r_max                   =   4.5844735570114E-05
(PID.TID 0000.0001) %MON vort_a_mean                  =   1.0000000000000E-04
(PID.TID 0000.0001) %MON vort_a_sd                    =   5.1000172208486E-06
(PID.TID 0000.0001) %MON vort_p_mean                  =   1.0161982423688E-04
(PID.TID 0000.0001) %MON vort_p_sd                    =   3.0227297891745E-05
(PID.TID 0000.0001) %MON surfExpan_theta_mean         =  -4.0384695593871E-06
(PID.TID 0000.0001) %MON surfExpan_salt_mean          =   3.7658545603525E-06
(PID.TID 0000.0001) // =======================================================
(PID.TID 0000.0001) // End MONITOR dynamic field statistics
(PID.TID 0000.0001) // =======================================================
(PID.TID 0000.0001) // =======================================================
(PID.TID 0000.0001) // Begin MONITOR ptracer field statistics
(PID.TID 0000.0001) // =======================================================
(PID.TID 0000.0001) %MON trcstat_ptracer01_max        =   3.5039000000000E+01
(PID.TID 0000.0001) %MON trcstat_ptracer01_min        =   3.5000000000000E+01
(PID.TID 0000.0001) %MON trcstat_ptracer01_mean       =   3.5000718732554E+01
(PID.TID 0000.0001) %MON trcstat_ptracer01_sd         =   4.5648297949379E-03
(PID.TID 0000.0001) %MON trcstat_ptracer01_del2       =   6.8562637701077E-04
(PID.TID 0000.0001) // =======================================================
(PID.TID 0000.0001) // End MONITOR ptracers field statistics
(PID.TID 0000.0001) // =======================================================
 cg2d: Sum(rhs),rhsMax =   1.42108547152020E-13  4.95862020595888E-01
(PID.TID 0000.0001)                    cg2d_init_res =    3.79130624036454E+01
(PID.TID 0000.0001)                       cg2d_iters =   199
(PID.TID 0000.0001)                         cg2d_res =    8.11821874645104E-14
(PID.TID 0000.0001) // =======================================================
(PID.TID 0000.0001) // Begin MONITOR dynamic field statistics
(PID.TID 0000.0001) // =======================================================
(PID.TID 0000.0001) %MON time_tsnumber                =                     2
(PID.TID 0000.0001) %MON time_secondsf                =   1.2000000000000E+03
(PID.TID 0000.0001) %MON dynstat_eta_max              =   4.0124934188892E+00
(PID.TID 0000.0001) %MON dynstat_eta_min              =  -4.0168011873290E+00
(PID.TID 0000.0001) %MON dynstat_eta_mean             =  -4.6296296296296E-15
(PID.TID 0000.0001) %MON dynstat_eta_sd               =   2.6244968863067E+00
(PID.TID 0000.0001) %MON dynstat_eta_del2             =   1.4686599616423E-04
(PID.TID 0000.0001) %MON dynstat_uvel_max             =   5.7313017917131E-01
(PID.TID 0000.0001) %MON dynstat_uvel_min             =   2.0735309651536E-01
(PID.TID 0000.0001) %MON dynstat_uvel_mean            =   2.6058859715845E-01
(PID.TID 0000.0001) %MON dynstat_uvel_sd              =   2.5536344513111E-02
(PID.TID 0000.0001) %MON dynstat_uvel_del2            =   5.5570754957280E-05
(PID.TID 0000.0001) %MON dynstat_vvel_max             =   8.0321727366123E-02
(PID.TID 0000.0001) %MON dynstat_vvel_min             =  -9.0851222666961E-02
(PID.TID 0000.0001) %MON dynstat_vvel_mean            =  -2.4905254442443E-03
(PID.TID 0000.0001) %MON dynstat_vvel_sd              =   1.8453387932700E-02
(PID.TID 0000.0001) %MON dynstat_vvel_del2            =   2.0207597115188E-05
(PID.TID 0000.0001) %MON dynstat_wvel_max             =   2.0822644441620E-02
(PID.TID 0000.0001) %MON dynstat_wvel_min             =  -2.0792617324282E-02
(PID.TID 0000.0001) %MON dynstat_wvel_mean            =  -1.2286532341622E-18
(PID.TID 0000.0001) %MON dynstat_wvel_sd              =   2.1946981339988E-03
(PID.TID 0000.0001) %MON dynstat_wvel_del2            =   1.6662823529284E-05
(PID.TID 0000.0001) %MON dynstat_theta_max            =   7.0470803591881E-01
(PID.TID 0000.0001) %MON dynstat_theta_min            =  -6.9887711116000E-01
(PID.TID 0000.0001) %MON dynstat_theta_mean           =   2.0277549547520E-02
(PID.TID 0000.0001) %MON dynstat_theta_sd             =   4.5211692491711E-01
(PID.TID 0000.0001) %MON dynstat_theta_del2           =   1.7872531711692E-05
(PID.TID 0000.0001) %MON dynstat_salt_max             =   3.5078835739533E+01
(PID.TID 0000.0001) %MON dynstat_salt_min             =   3.4998764571526E+01
(PID.TID 0000.0001) %MON dynstat_salt_mean            =   3.5001040179157E+01
(PID.TID 0000.0001) %MON dynstat_salt_sd              =   9.0686633244906E-03
(PID.TID 0000.0001) %MON dynstat_salt_del2            =   6.2801541657643E-04
(PID.TID 0000.0001) %MON advcfl_uvel_max              =   6.8775621500557E-02
(PID.TID 0000.0001) %MON advcfl_vvel_max              =   1.0902146720035E-02
(PID.TID 0000.0001) %MON advcfl_wvel_max              =   2.2210820737728E-02
(PID.TID 0000.0001) %MON advcfl_W_hf_max              =   4.9699796569110E-02
(PID.TID 0000.0001) %MON pe_b_mean                    =   7.2783400464470E-03
(PID.TID 0000.0001) %MON ke_max                       =   1.6012182768343E-01
(PID.TID 0000.0001) %MON ke_mean                      =   3.4051709798157E-02
(PID.TID 0000.0001) %MON ke_vol                       =   3.6207071198500E+14
(PID.TID 0000.0001) %MON vort_r_min                   =  -1.1974353156538E-04
(PID.TID 0000.0001) %MON vort_r_max                   =   1.1965913460378E-04
(PID.TID 0000.0001) %MON vort_a_mean                  =   1.0000000000000E-04
(PID.TID 0000.0001) %MON vort_a_sd                    =   6.1520800764062E-06
(PID.TID 0000.0001) %MON vort_p_mean                  =   1.0161982423688E-04
(PID.TID 0000.0001) %MON vort_p_sd                    =   3.4135645811732E-05
(PID.TID 0000.0001) %MON surfExpan_theta_mean         =   2.8816030077866E-07
(PID.TID 0000.0001) %MON surfExpan_salt_mean          =  -1.7038451980324E-06
(PID.TID 0000.0001) // =======================================================
(PID.TID 0000.0001) // End MONITOR dynamic field statistics
(PID.TID 0000.0001) // =======================================================
(PID.TID 0000.0001) // =======================================================
(PID.TID 0000.0001) // Begin MONITOR ptracer field statistics
(PID.TID 0000.0001) // =======================================================
(PID.TID 0000.0001) %MON trcstat_ptracer01_max        =   3.5078835739533E+01
(PID.TID 0000.0001) %MON trcstat_ptracer01_min        =   3.4998764571526E+01
(PID.TID 0000.0001) %MON trcstat_ptracer01_mean       =   3.5001420926311E+01
(PID.TID 0000.0001) %MON trcstat_ptracer01_sd         =   9.2087547246208E-03
(PID.TID 0000.0001) %MON trcstat_ptracer01_del2       =   6.2800327407788E-04
(PID.TID 0000.0001) // =======================================================
(PID.TID 0000.0001) // End MONITOR ptracers field statistics
(PID.TID 0000.0001) // =======================================================
 cg2d: Sum(rhs),rhsMax =   1.30739863379858E-12  2.26311399847359E-01
(PID.TID 0000.0001)                    cg2d_init_res =    1.45124280389601E+01
(PID.TID 0000.0001)                       cg2d_iters =   202
(PID.TID 0000.0001)                         cg2d_res =    7.25531553209312E-14
(PID.TID 0000.0001) // =======================================================
(PID.TID 0000.0001) // Begin MONITOR dynamic field statistics
(PID.TID 0000.0001) // =======================================================
(PID.TID 0000.0001) %MON time_tsnumber                =                     3
(PID.TID 0000.0001) %MON time_secondsf                =   1.8000000000000E+03
(PID.TID 0000.0001) %MON dynstat_eta_max              =   2.2437871914519E+00
(PID.TID 0000.0001) %MON dynstat_eta_min              =  -2.2413534500603E+00
(PID.TID 0000.0001) %MON dynstat_eta_mean             =   8.3689458689459E-15
(PID.TID 0000.0001) %MON dynstat_eta_sd               =   1.4603662392568E+00
(PID.TID 0000.0001) %MON dynstat_eta_del2             =   8.9036241984559E-05
(PID.TID 0000.0001) %MON dynstat_uvel_max             =   7.9934615405353E-01
(PID.TID 0000.0001) %MON dynstat_uvel_min             =   2.3509710360651E-01
(PID.TID 0000.0001) %MON dynstat_uvel_mean            =   3.1549081429013E-01
(PID.TID 0000.0001) %MON dynstat_uvel_sd              =   5.4856631468912E-02
(PID.TID 0000.0001) %MON dynstat_uvel_del2            =   1.4116722630137E-04
(PID.TID 0000.0001) %MON dynstat_vvel_max             =   1.1181784340726E-01
(PID.TID 0000.0001) %MON dynstat_vvel_min             =  -1.4228891775795E-01
(PID.TID 0000.0001) %MON dynstat_vvel_mean            =  -1.9368546838547E-03
(PID.TID 0000.0001) %MON dynstat_vvel_sd              =   2.5883826407605E-02
(PID.TID 0000.0001) %MON dynstat_vvel_del2            =   2.3131010693358E-05
(PID.TID 0000.0001) %MON dynstat_wvel_max             =   2.7759805619860E-02
(PID.TID 0000.0001) %MON dynstat_wvel_min             =  -2.7525820126287E-02
(PID.TID 0000.0001) %MON dynstat_wvel_mean            =  -1.7466148917012E-19
(PID.TID 0000.0001) %MON dynstat_wvel_sd              =   2.8551823870578E-03
(PID.TID 0000.0001) %MON dynstat_wvel_del2            =   1.5081482740409E-05
(PID.TID 0000.0001) %MON dynstat_theta_max            =   7.0380587454096E-01
(PID.TID 0000.0001) %MON dynstat_theta_min            =  -7.0294286478423E-01
(PID.TID 0000.0001) %MON dynstat_theta_mean           =   2.0277067720951E-02
(PID.TID 0000.0001) %MON dynstat_theta_sd             =   4.5211670969973E-01
(PID.TID 0000.0001) %MON dynstat_theta_del2           =   1.4000041970630E-05
(PID.TID 0000.0001) %MON dynstat_salt_max             =   3.5115817358344E+01
(PID.TID 0000.0001) %MON dynstat_salt_min             =   3.4999514238206E+01
(PID.TID 0000.0001) %MON dynstat_salt_mean            =   3.5001554219081E+01
(PID.TID 0000.0001) %MON dynstat_salt_sd              =   1.3273708032182E-02
(PID.TID 0000.0001) %MON dynstat_salt_del2            =   5.7863026053992E-04
(PID.TID 0000.0001) %MON advcfl_uvel_max              =   9.5921538486423E-02
(PID.TID 0000.0001) %MON advcfl_vvel_max              =   1.7074670130954E-02
(PID.TID 0000.0001) %MON advcfl_wvel_max              =   2.9610459327851E-02
(PID.TID 0000.0001) %MON advcfl_W_hf_max              =   6.8669696608564E-02
(PID.TID 0000.0001) %MON pe_b_mean                    =   2.2535322995819E-03
(PID.TID 0000.0001) %MON ke_max                       =   3.1320174675861E-01
(PID.TID 0000.0001) %MON ke_mean                      =   4.9653445369278E-02
(PID.TID 0000.0001) %MON ke_vol                       =   3.6207071198500E+14
(PID.TID 0000.0001) %MON vort_r_min                   =  -1.7127566352581E-04
(PID.TID 0000.0001) %MON vort_r_max                   =   1.7053225926168E-04
(PID.TID 0000.0001) %MON vort_a_mean                  =   1.0000000000000E-04
(PID.TID 0000.0001) %MON vort_a_sd                    =   9.1633203141914E-06
(PID.TID 0000.0001) %MON vort_p_mean                  =   1.0161982423688E-04
(PID.TID 0000.0001) %MON vort_p_sd                    =   3.8288966393149E-05
(PID.TID 0000.0001) %MON surfExpan_theta_mean         =   1.3379877442682E-06
(PID.TID 0000.0001) %MON surfExpan_salt_mean          =  -4.1913363397178E-06
(PID.TID 0000.0001) // =======================================================
(PID.TID 0000.0001) // End MONITOR dynamic field statistics
(PID.TID 0000.0001) // =======================================================
(PID.TID 0000.0001) // =======================================================
(PID.TID 0000.0001) // Begin MONITOR ptracer field statistics
(PID.TID 0000.0001) // =======================================================
(PID.TID 0000.0001) %MON trcstat_ptracer01_max        =   3.5115817358344E+01
(PID.TID 0000.0001) %MON trcstat_ptracer01_min        =   3.4999514238206E+01
(PID.TID 0000.0001) %MON trcstat_ptracer01_mean       =   3.5002117615753E+01
(PID.TID 0000.0001) %MON trcstat_ptracer01_sd         =   1.3488597845013E-02
(PID.TID 0000.0001) %MON trcstat_ptracer01_del2       =   5.7841454139127E-04
(PID.TID 0000.0001) // =======================================================
(PID.TID 0000.0001) // End MONITOR ptracers field statistics
(PID.TID 0000.0001) // =======================================================
 cg2d: Sum(rhs),rhsMax =  -1.74793512996985E-12  2.39601045148707E-01
(PID.TID 0000.0001)                    cg2d_init_res =    9.18633293231293E+00
(PID.TID 0000.0001)                       cg2d_iters =   199
(PID.TID 0000.0001)                         cg2d_res =    9.64339018589270E-14
(PID.TID 0000.0001) // =======================================================
(PID.TID 0000.0001) // Begin MONITOR dynamic field statistics
(PID.TID 0000.0001) // =======================================================
(PID.TID 0000.0001) %MON time_tsnumber                =                     4
(PID.TID 0000.0001) %MON time_secondsf                =   2.4000000000000E+03
(PID.TID 0000.0001) %MON dynstat_eta_max              =   5.3296066014220E-01
(PID.TID 0000.0001) %MON dynstat_eta_min              =  -5.3202361345851E-01
(PID.TID 0000.0001) %MON dynstat_eta_mean             =   4.8633368945869E-15
(PID.TID 0000.0001) %MON dynstat_eta_sd               =   2.6304587413313E-01
(PID.TID 0000.0001) %MON dynstat_eta_del2             =   2.3852129630917E-05
(PID.TID 0000.0001) %MON dynstat_uvel_max             =   8.2457373750112E-01
(PID.TID 0000.0001) %MON dynstat_uvel_min             =   2.3412796919473E-01
(PID.TID 0000.0001) %MON dynstat_uvel_mean            =   3.1997887966180E-01
(PID.TID 0000.0001) %MON dynstat_uvel_sd              =   5.9712123046508E-02
(PID.TID 0000.0001) %MON dynstat_uvel_del2            =   1.4344753513700E-04
(PID.TID 0000.0001) %MON dynstat_vvel_max             =   1.1536574093547E-01
(PID.TID 0000.0001) %MON dynstat_vvel_min             =  -1.7543113700359E-01
(PID.TID 0000.0001) %MON dynstat_vvel_mean            =  -5.2559337667872E-04
(PID.TID 0000.0001) %MON dynstat_vvel_sd              =   2.7296835209465E-02
(PID.TID 0000.0001) %MON dynstat_vvel_del2            =   2.5477023673298E-05
(PID.TID 0000.0001) %MON dynstat_wvel_max             =   2.8425544923292E-02
(PID.TID 0000.0001) %MON dynstat_wvel_min             =  -2.7841694912293E-02
(PID.TID 0000.0001) %MON dynstat_wvel_mean            =   8.3114777605092E-19
(PID.TID 0000.0001) %MON dynstat_wvel_sd              =   2.9346552616385E-03
(PID.TID 0000.0001) %MON dynstat_wvel_del2            =   1.5284689621941E-05
(PID.TID 0000.0001) %MON dynstat_theta_max            =   7.0301612999403E-01
(PID.TID 0000.0001) %MON dynstat_theta_min            =  -7.0750050688966E-01
(PID.TID 0000.0001) %MON dynstat_theta_mean           =   2.0274624920522E-02
(PID.TID 0000.0001) %MON dynstat_theta_sd             =   4.5211524156918E-01
(PID.TID 0000.0001) %MON dynstat_theta_del2           =   1.2487448931953E-05
(PID.TID 0000.0001) %MON dynstat_salt_max             =   3.5150930277596E+01
(PID.TID 0000.0001) %MON dynstat_salt_min             =   3.4999274727912E+01
(PID.TID 0000.0001) %MON dynstat_salt_mean            =   3.5002064633476E+01
(PID.TID 0000.0001) %MON dynstat_salt_sd              =   1.7284984490935E-02
(PID.TID 0000.0001) %MON dynstat_salt_del2            =   5.3389204600495E-04
(PID.TID 0000.0001) %MON advcfl_uvel_max              =   9.8948848500135E-02
(PID.TID 0000.0001) %MON advcfl_vvel_max              =   2.1051736440431E-02
(PID.TID 0000.0001) %MON advcfl_wvel_max              =   3.0320581251512E-02
(PID.TID 0000.0001) %MON advcfl_W_hf_max              =   7.1015188944376E-02
(PID.TID 0000.0001) %MON pe_b_mean                    =   7.3114448246591E-05
(PID.TID 0000.0001) %MON ke_max                       =   3.3712770307363E-01
(PID.TID 0000.0001) %MON ke_mean                      =   5.1235566995894E-02
(PID.TID 0000.0001) %MON ke_vol                       =   3.6207071198500E+14
(PID.TID 0000.0001) %MON vort_r_min                   =  -1.8290848722213E-04
(PID.TID 0000.0001) %MON vort_r_max                   =   1.8084035911939E-04
(PID.TID 0000.0001) %MON vort_a_mean                  =   1.0000000000000E-04
(PID.TID 0000.0001) %MON vort_a_sd                    =   9.4391898183299E-06
(PID.TID 0000.0001) %MON vort_p_mean                  =   1.0161982423688E-04
(PID.TID 0000.0001) %MON vort_p_sd                    =   3.8739205963371E-05
(PID.TID 0000.0001) %MON surfExpan_theta_mean         =   8.6087421906518E-07
(PID.TID 0000.0001) %MON surfExpan_salt_mean          =  -5.3359943479924E-06
(PID.TID 0000.0001) // =======================================================
(PID.TID 0000.0001) // End MONITOR dynamic field statistics
(PID.TID 0000.0001) // =======================================================
(PID.TID 0000.0001) // =======================================================
(PID.TID 0000.0001) // Begin MONITOR ptracer field statistics
(PID.TID 0000.0001) // =======================================================
(PID.TID 0000.0001) %MON trcstat_ptracer01_max        =   3.5150930491120E+01
(PID.TID 0000.0001) %MON trcstat_ptracer01_min        =   3.4999274714913E+01
(PID.TID 0000.0001) %MON trcstat_ptracer01_mean       =   3.5002806772825E+01
(PID.TID 0000.0001) %MON trcstat_ptracer01_sd         =   1.7577256643106E-02
(PID.TID 0000.0001) %MON trcstat_ptracer01_del2       =   5.3338911191486E-04
(PID.TID 0000.0001) // =======================================================
(PID.TID 0000.0001) // End MONITOR ptracers field statistics
(PID.TID 0000.0001) // =======================================================
 cg2d: Sum(rhs),rhsMax =  -1.07291953099775E-12  2.16717165067268E-01
(PID.TID 0000.0001)                    cg2d_init_res =    5.79689670930594E+00
(PID.TID 0000.0001)                       cg2d_iters =   197
(PID.TID 0000.0001)                         cg2d_res =    7.52297849919366E-14
(PID.TID 0000.0001) // =======================================================
(PID.TID 0000.0001) // Begin MONITOR dynamic field statistics
(PID.TID 0000.0001) // =======================================================
(PID.TID 0000.0001) %MON time_tsnumber                =                     5
(PID.TID 0000.0001) %MON time_secondsf                =   3.0000000000000E+03
(PID.TID 0000.0001) %MON dynstat_eta_max              =   1.1289495638914E+00
(PID.TID 0000.0001) %MON dynstat_eta_min              =  -1.1221344649265E+00
(PID.TID 0000.0001) %MON dynstat_eta_mean             =   2.1256232193732E-15
(PID.TID 0000.0001) %MON dynstat_eta_sd               =   6.3360853044000E-01
(PID.TID 0000.0001) %MON dynstat_eta_del2             =   3.5274144983365E-05
(PID.TID 0000.0001) %MON dynstat_uvel_max             =   7.2650295692742E-01
(PID.TID 0000.0001) %MON dynstat_uvel_min             =   2.2654489795694E-01
(PID.TID 0000.0001) %MON dynstat_uvel_mean            =   2.9585451532594E-01
(PID.TID 0000.0001) %MON dynstat_uvel_sd              =   4.7357582499152E-02
(PID.TID 0000.0001) %MON dynstat_uvel_del2            =   9.8234564393431E-05
(PID.TID 0000.0001) %MON dynstat_vvel_max             =   1.0317663604179E-01
(PID.TID 0000.0001) %MON dynstat_vvel_min             =  -1.9754846105373E-01
(PID.TID 0000.0001) %MON dynstat_vvel_mean            =   4.5070324144531E-04
(PID.TID 0000.0001) %MON dynstat_vvel_sd              =   2.5165433107149E-02
(PID.TID 0000.0001) %MON dynstat_vvel_del2            =   2.7016301912089E-05
(PID.TID 0000.0001) %MON dynstat_wvel_max             =   2.5228579034950E-02
(PID.TID 0000.0001) %MON dynstat_wvel_min             =  -2.5338244080839E-02
(PID.TID 0000.0001) %MON dynstat_wvel_mean            =  -8.7330744585060E-20
(PID.TID 0000.0001) %MON dynstat_wvel_sd              =   2.5122176276846E-03
(PID.TID 0000.0001) %MON dynstat_wvel_del2            =   1.4212565996234E-05
(PID.TID 0000.0001) %MON dynstat_theta_max            =   7.0475574916752E-01
(PID.TID 0000.0001) %MON dynstat_theta_min            =  -7.1137836267284E-01
(PID.TID 0000.0001) %MON dynstat_theta_mean           =   2.0272658298878E-02
(PID.TID 0000.0001) %MON dynstat_theta_sd             =   4.5211393775354E-01
(PID.TID 0000.0001) %MON dynstat_theta_del2           =   1.1462664038225E-05
(PID.TID 0000.0001) %MON dynstat_salt_max             =   3.5184449298870E+01
(PID.TID 0000.0001) %MON dynstat_salt_min             =   3.4999155586769E+01
(PID.TID 0000.0001) %MON dynstat_salt_mean            =   3.5002571449506E+01
(PID.TID 0000.0001) %MON dynstat_salt_sd              =   2.1115827005696E-02
(PID.TID 0000.0001) %MON dynstat_salt_del2            =   4.9345972256401E-04
(PID.TID 0000.0001) %MON advcfl_uvel_max              =   8.7180354831291E-02
(PID.TID 0000.0001) %MON advcfl_vvel_max              =   2.3705815326448E-02
(PID.TID 0000.0001) %MON advcfl_wvel_max              =   2.7027460352895E-02
(PID.TID 0000.0001) %MON advcfl_W_hf_max              =   6.2914516944484E-02
(PID.TID 0000.0001) %MON pe_b_mean                    =   4.2421131635711E-04
(PID.TID 0000.0001) %MON ke_max                       =   2.6867454902064E-01
(PID.TID 0000.0001) %MON ke_mean                      =   4.3827672268362E-02
(PID.TID 0000.0001) %MON ke_vol                       =   3.6207071198500E+14
(PID.TID 0000.0001) %MON vort_r_min                   =  -1.6914919060400E-04
(PID.TID 0000.0001) %MON vort_r_max                   =   1.6568483147299E-04
(PID.TID 0000.0001) %MON vort_a_mean                  =   1.0000000000000E-04
(PID.TID 0000.0001) %MON vort_a_sd                    =   8.0383911779677E-06
(PID.TID 0000.0001) %MON vort_p_mean                  =   1.0161982423688E-04
(PID.TID 0000.0001) %MON vort_p_sd                    =   3.6780499891490E-05
(PID.TID 0000.0001) %MON surfExpan_theta_mean         =   2.7462347030425E-07
(PID.TID 0000.0001) %MON surfExpan_salt_mean          =  -3.7967622537045E-06
(PID.TID 0000.0001) // =======================================================
(PID.TID 0000.0001) // End MONITOR dynamic field statistics
(PID.TID 0000.0001) // =======================================================
(PID.TID 0000.0001) // =======================================================
(PID.TID 0000.0001) // Begin MONITOR ptracer field statistics
(PID.TID 0000.0001) // =======================================================
(PID.TID 0000.0001) %MON trcstat_ptracer01_max        =   3.5184451028758E+01
(PID.TID 0000.0001) %MON trcstat_ptracer01_min        =   3.4999154865805E+01
(PID.TID 0000.0001) %MON trcstat_ptracer01_mean       =   3.5003488724120E+01
(PID.TID 0000.0001) %MON trcstat_ptracer01_sd         =   2.1487541944603E-02
(PID.TID 0000.0001) %MON trcstat_ptracer01_del2       =   4.9260209980106E-04
(PID.TID 0000.0001) // =======================================================
(PID.TID 0000.0001) // End MONITOR ptracers field statistics
(PID.TID 0000.0001) // =======================================================
 cg2d: Sum(rhs),rhsMax =  -5.25801624462474E-13  1.77357071655575E-01
(PID.TID 0000.0001)                    cg2d_init_res =    2.22943447342815E+00
(PID.TID 0000.0001)                       cg2d_iters =   197
(PID.TID 0000.0001)                         cg2d_res =    7.82274566681020E-14
(PID.TID 0000.0001) // =======================================================
(PID.TID 0000.0001) // Begin MONITOR dynamic field statistics
(PID.TID 0000.0001) // =======================================================
(PID.TID 0000.0001) %MON time_tsnumber                =                     6
(PID.TID 0000.0001) %MON time_secondsf                =   3.6000000000000E+03
(PID.TID 0000.0001) %MON dynstat_eta_max              =   1.2400185979192E+00
(PID.TID 0000.0001) %MON dynstat_eta_min              =  -1.2366601388294E+00
(PID.TID 0000.0001) %MON dynstat_eta_mean             =   3.6725427350427E-15
(PID.TID 0000.0001) %MON dynstat_eta_sd               =   7.2737616861295E-01
(PID.TID 0000.0001) %MON dynstat_eta_del2             =   4.0010422399454E-05
(PID.TID 0000.0001) %MON dynstat_uvel_max             =   6.0945380527480E-01
(PID.TID 0000.0001) %MON dynstat_uvel_min             =   1.8921613690619E-01
(PID.TID 0000.0001) %MON dynstat_uvel_mean            =   2.6770161008120E-01
(PID.TID 0000.0001) %MON dynstat_uvel_sd              =   3.3863737347701E-02
(PID.TID 0000.0001) %MON dynstat_uvel_del2            =   5.5188631587324E-05
(PID.TID 0000.0001) %MON dynstat_vvel_max             =   9.8995200391282E-02
(PID.TID 0000.0001) %MON dynstat_vvel_min             =  -2.1980681949758E-01
(PID.TID 0000.0001) %MON dynstat_vvel_mean            =   7.3156505021325E-04
(PID.TID 0000.0001) %MON dynstat_vvel_sd              =   2.2715516210509E-02
(PID.TID 0000.0001) %MON dynstat_vvel_del2            =   2.8099362116549E-05
(PID.TID 0000.0001) %MON dynstat_wvel_max             =   2.1503954486397E-02
(PID.TID 0000.0001) %MON dynstat_wvel_min             =  -2.3402275828548E-02
(PID.TID 0000.0001) %MON dynstat_wvel_mean            =   2.4091239885534E-19
(PID.TID 0000.0001) %MON dynstat_wvel_sd              =   2.1290402928153E-03
(PID.TID 0000.0001) %MON dynstat_wvel_del2            =   1.2582079212520E-05
(PID.TID 0000.0001) %MON dynstat_theta_max            =   7.0645217682794E-01
(PID.TID 0000.0001) %MON dynstat_theta_min            =  -7.1426439348319E-01
(PID.TID 0000.0001) %MON dynstat_theta_mean           =   2.0271194199811E-02
(PID.TID 0000.0001) %MON dynstat_theta_sd             =   4.5211278603500E-01
(PID.TID 0000.0001) %MON dynstat_theta_del2           =   1.1069615045904E-05
(PID.TID 0000.0001) %MON dynstat_salt_max             =   3.5216400821106E+01
(PID.TID 0000.0001) %MON dynstat_salt_min             =   3.4999207837871E+01
(PID.TID 0000.0001) %MON dynstat_salt_mean            =   3.5003074256282E+01
(PID.TID 0000.0001) %MON dynstat_salt_sd              =   2.4776719960387E-02
(PID.TID 0000.0001) %MON dynstat_salt_del2            =   4.5700579083804E-04
(PID.TID 0000.0001) %MON advcfl_uvel_max              =   7.3134456632976E-02
(PID.TID 0000.0001) %MON advcfl_vvel_max              =   2.6376818339710E-02
(PID.TID 0000.0001) %MON advcfl_wvel_max              =   2.4962427550451E-02
(PID.TID 0000.0001) %MON advcfl_W_hf_max              =   5.2998987897861E-02
(PID.TID 0000.0001) %MON pe_b_mean                    =   5.5905991517014E-04
(PID.TID 0000.0001) %MON ke_max                       =   1.9867502704300E-01
(PID.TID 0000.0001) %MON ke_mean                      =   3.6061721387639E-02
(PID.TID 0000.0001) %MON ke_vol                       =   3.6207071198500E+14
(PID.TID 0000.0001) %MON vort_r_min                   =  -1.5083216909234E-04
(PID.TID 0000.0001) %MON vort_r_max                   =   1.4624357774251E-04
(PID.TID 0000.0001) %MON vort_a_mean                  =   1.0000000000000E-04
(PID.TID 0000.0001) %MON vort_a_sd                    =   6.5818065499412E-06
(PID.TID 0000.0001) %MON vort_p_mean                  =   1.0161982423688E-04
(PID.TID 0000.0001) %MON vort_p_sd                    =   3.4761600746195E-05
(PID.TID 0000.0001) %MON surfExpan_theta_mean         =   3.1875335456765E-08
(PID.TID 0000.0001) %MON surfExpan_salt_mean          =  -6.5453777573577E-07
(PID.TID 0000.0001) // =======================================================
(PID.TID 0000.0001) // End MONITOR dynamic field statistics
(PID.TID 0000.0001) // =======================================================
(PID.TID 0000.0001) // =======================================================
(PID.TID 0000.0001) // Begin MONITOR ptracer field statistics
(PID.TID 0000.0001) // =======================================================
(PID.TID 0000.0001) %MON trcstat_ptracer01_max        =   3.5216400936434E+01
(PID.TID 0000.0001) %MON trcstat_ptracer01_min        =   3.4999190890253E+01
(PID.TID 0000.0001) %MON trcstat_ptracer01_mean       =   3.5004163322661E+01
(PID.TID 0000.0001) %MON trcstat_ptracer01_sd         =   2.5229670817406E-02
(PID.TID 0000.0001) %MON trcstat_ptracer01_del2       =   4.5573565702616E-04
(PID.TID 0000.0001) // =======================================================
(PID.TID 0000.0001) // End MONITOR ptracers field statistics
(PID.TID 0000.0001) // =======================================================
 cg2d: Sum(rhs),rhsMax =  -9.37916411203332E-13  1.50104519136009E-01
(PID.TID 0000.0001)                    cg2d_init_res =    3.53144424416941E+00
(PID.TID 0000.0001)                       cg2d_iters =   197
(PID.TID 0000.0001)                         cg2d_res =    7.97406602528700E-14
(PID.TID 0000.0001) // =======================================================
(PID.TID 0000.0001) // Begin MONITOR dynamic field statistics
(PID.TID 0000.0001) // =======================================================
(PID.TID 0000.0001) %MON time_tsnumber                =                     7
(PID.TID 0000.0001) %MON time_secondsf                =   4.2000000000000E+03
(PID.TID 0000.0001) %MON dynstat_eta_max              =   8.3139774343939E-01
(PID.TID 0000.0001) %MON dynstat_eta_min              =  -8.3116010793403E-01
(PID.TID 0000.0001) %MON dynstat_eta_mean             =   5.8426816239316E-15
(PID.TID 0000.0001) %MON dynstat_eta_sd               =   4.4904430500089E-01
(PID.TID 0000.0001) %MON dynstat_eta_del2             =   2.4484601965997E-05
(PID.TID 0000.0001) %MON dynstat_uvel_max             =   5.3526235288589E-01
(PID.TID 0000.0001) %MON dynstat_uvel_min             =   1.6576161276854E-01
(PID.TID 0000.0001) %MON dynstat_uvel_mean            =   2.5067152436755E-01
(PID.TID 0000.0001) %MON dynstat_uvel_sd              =   2.7239089784224E-02
(PID.TID 0000.0001) %MON dynstat_uvel_del2            =   4.0969418336660E-05
(PID.TID 0000.0001) %MON dynstat_vvel_max             =   9.7873055302937E-02
(PID.TID 0000.0001) %MON dynstat_vvel_min             =  -2.4026581438926E-01
(PID.TID 0000.0001) %MON dynstat_vvel_mean            =   5.3329792917710E-04
(PID.TID 0000.0001) %MON dynstat_vvel_sd              =   2.1660838143234E-02
(PID.TID 0000.0001) %MON dynstat_vvel_del2            =   2.9208757639655E-05
(PID.TID 0000.0001) %MON dynstat_wvel_max             =   2.0264986457708E-02
(PID.TID 0000.0001) %MON dynstat_wvel_min             =  -2.2132891144744E-02
(PID.TID 0000.0001) %MON dynstat_wvel_mean            =   7.9501091622262E-19
(PID.TID 0000.0001) %MON dynstat_wvel_sd              =   1.9734515589056E-03
(PID.TID 0000.0001) %MON dynstat_wvel_del2            =   1.1107333807217E-05
(PID.TID 0000.0001) %MON dynstat_theta_max            =   7.0777464857284E-01
(PID.TID 0000.0001) %MON dynstat_theta_min            =  -7.1642380067656E-01
(PID.TID 0000.0001) %MON dynstat_theta_mean           =   2.0269994130031E-02
(PID.TID 0000.0001) %MON dynstat_theta_sd             =   4.5211177921114E-01
(PID.TID 0000.0001) %MON dynstat_theta_del2           =   1.1022006355704E-05
(PID.TID 0000.0001) %MON dynstat_salt_max             =   3.5246850066462E+01
(PID.TID 0000.0001) %MON dynstat_salt_min             =   3.4999470712202E+01
(PID.TID 0000.0001) %MON dynstat_salt_mean            =   3.5003573026048E+01
(PID.TID 0000.0001) %MON dynstat_salt_sd              =   2.8280249839031E-02
(PID.TID 0000.0001) %MON dynstat_salt_del2            =   4.2419826706071E-04
(PID.TID 0000.0001) %MON advcfl_uvel_max              =   6.4231482346306E-02
(PID.TID 0000.0001) %MON advcfl_vvel_max              =   2.8831897726711E-02
(PID.TID 0000.0001) %MON advcfl_wvel_max              =   2.3608417221061E-02
(PID.TID 0000.0001) %MON advcfl_W_hf_max              =   4.6611685553684E-02
(PID.TID 0000.0001) %MON pe_b_mean                    =   2.1306818384182E-04
(PID.TID 0000.0001) %MON ke_max                       =   1.6290455443222E-01
(PID.TID 0000.0001) %MON ke_mean                      =   3.1841965378657E-02
(PID.TID 0000.0001) %MON ke_vol                       =   3.6207071198500E+14
(PID.TID 0000.0001) %MON vort_r_min                   =  -1.4061454891850E-04
(PID.TID 0000.0001) %MON vort_r_max                   =   1.3510090776864E-04
(PID.TID 0000.0001) %MON vort_a_mean                  =   1.0000000000000E-04
(PID.TID 0000.0001) %MON vort_a_sd                    =   5.8365788932495E-06
(PID.TID 0000.0001) %MON vort_p_mean                  =   1.0161982423688E-04
(PID.TID 0000.0001) %MON vort_p_sd                    =   3.3700459164278E-05
(PID.TID 0000.0001) %MON surfExpan_theta_mean         =  -1.0596311339818E-07
(PID.TID 0000.0001) %MON surfExpan_salt_mean          =   2.0127920763166E-06
(PID.TID 0000.0001) // =======================================================
(PID.TID 0000.0001) // End MONITOR dynamic field statistics
(PID.TID 0000.0001) // =======================================================
(PID.TID 0000.0001) // =======================================================
(PID.TID 0000.0001) // Begin MONITOR ptracer field statistics
(PID.TID 0000.0001) // =======================================================
(PID.TID 0000.0001) %MON trcstat_ptracer01_max        =   3.5246850452502E+01
(PID.TID 0000.0001) %MON trcstat_ptracer01_min        =   3.4999424657969E+01
(PID.TID 0000.0001) %MON trcstat_ptracer01_mean       =   3.5004830692415E+01
(PID.TID 0000.0001) %MON trcstat_ptracer01_sd         =   2.8815837183998E-02
(PID.TID 0000.0001) %MON trcstat_ptracer01_del2       =   4.2246834316086E-04
(PID.TID 0000.0001) // =======================================================
(PID.TID 0000.0001) // End MONITOR ptracers field statistics
(PID.TID 0000.0001) // =======================================================
 cg2d: Sum(rhs),rhsMax =  -2.17070805774711E-12  1.36883656514010E-01
(PID.TID 0000.0001)                    cg2d_init_res =    4.29000439334817E+00
(PID.TID 0000.0001)                       cg2d_iters =   195
(PID.TID 0000.0001)                         cg2d_res =    7.53347367755823E-14
(PID.TID 0000.0001) // =======================================================
(PID.TID 0000.0001) // Begin MONITOR dynamic field statistics
(PID.TID 0000.0001) // =======================================================
(PID.TID 0000.0001) %MON time_tsnumber                =                     8
(PID.TID 0000.0001) %MON time_secondsf                =   4.8000000000000E+03
(PID.TID 0000.0001) %MON dynstat_eta_max              =   3.4017494132995E-01
(PID.TID 0000.0001) %MON dynstat_eta_min              =  -3.4088032227230E-01
(PID.TID 0000.0001) %MON dynstat_eta_mean             =   5.5950632122507E-15
(PID.TID 0000.0001) %MON dynstat_eta_sd               =   1.5279167442340E-01
(PID.TID 0000.0001) %MON dynstat_eta_del2             =   1.0545047952378E-05
(PID.TID 0000.0001) %MON dynstat_uvel_max             =   5.1388119824815E-01
(PID.TID 0000.0001) %MON dynstat_uvel_min             =   1.5859525415988E-01
(PID.TID 0000.0001) %MON dynstat_uvel_mean            =   2.4757014799571E-01
(PID.TID 0000.0001) %MON dynstat_uvel_sd              =   2.6275588582583E-02
(PID.TID 0000.0001) %MON dynstat_uvel_del2            =   3.9781724086761E-05
(PID.TID 0000.0001) %MON dynstat_vvel_max             =   1.0173210420356E-01
(PID.TID 0000.0001) %MON dynstat_vvel_min             =  -2.6316633556184E-01
(PID.TID 0000.0001) %MON dynstat_vvel_mean            =   1.8010603834688E-04
(PID.TID 0000.0001) %MON dynstat_vvel_sd              =   2.2160385537993E-02
(PID.TID 0000.0001) %MON dynstat_vvel_del2            =   3.0698452690140E-05
(PID.TID 0000.0001) %MON dynstat_wvel_max             =   2.0206525418158E-02
(PID.TID 0000.0001) %MON dynstat_wvel_min             =  -2.2028410235351E-02
(PID.TID 0000.0001) %MON dynstat_wvel_mean            =   1.2045619942767E-19
(PID.TID 0000.0001) %MON dynstat_wvel_sd              =   1.9319458045528E-03
(PID.TID 0000.0001) %MON dynstat_wvel_del2            =   9.9659355013354E-06
(PID.TID 0000.0001) %MON dynstat_theta_max            =   7.0892439740898E-01
(PID.TID 0000.0001) %MON dynstat_theta_min            =  -7.1828197964170E-01
(PID.TID 0000.0001) %MON dynstat_theta_mean           =   2.0268982639154E-02
(PID.TID 0000.0001) %MON dynstat_theta_sd             =   4.5211088151593E-01
(PID.TID 0000.0001) %MON dynstat_theta_del2           =   1.1172361446935E-05
(PID.TID 0000.0001) %MON dynstat_salt_max             =   3.5275891154048E+01
(PID.TID 0000.0001) %MON dynstat_salt_min             =   3.4999702294996E+01
(PID.TID 0000.0001) %MON dynstat_salt_mean            =   3.5004068128089E+01
(PID.TID 0000.0001) %MON dynstat_salt_sd              =   3.1639816972943E-02
(PID.TID 0000.0001) %MON dynstat_salt_del2            =   3.9471983723504E-04
(PID.TID 0000.0001) %MON advcfl_uvel_max              =   6.1665743789778E-02
(PID.TID 0000.0001) %MON advcfl_vvel_max              =   3.1579960267421E-02
(PID.TID 0000.0001) %MON advcfl_wvel_max              =   2.3496970917708E-02
(PID.TID 0000.0001) %MON advcfl_W_hf_max              =   4.4756052354060E-02
(PID.TID 0000.0001) %MON pe_b_mean                    =   2.4668321447116E-05
(PID.TID 0000.0001) %MON ke_max                       =   1.5751836279075E-01
(PID.TID 0000.0001) %MON ke_mean                      =   3.1125525406198E-02
(PID.TID 0000.0001) %MON ke_vol                       =   3.6207071198500E+14
(PID.TID 0000.0001) %MON vort_r_min                   =  -1.4104905003466E-04
(PID.TID 0000.0001) %MON vort_r_max                   =   1.3462138797586E-04
(PID.TID 0000.0001) %MON vort_a_mean                  =   1.0000000000000E-04
(PID.TID 0000.0001) %MON vort_a_sd                    =   5.7297753364138E-06
(PID.TID 0000.0001) %MON vort_p_mean                  =   1.0161982423688E-04
(PID.TID 0000.0001) %MON vort_p_sd                    =   3.3532326265620E-05
(PID.TID 0000.0001) %MON surfExpan_theta_mean         =  -1.8240855868306E-07
(PID.TID 0000.0001) %MON surfExpan_salt_mean          =   2.8822305204705E-06
(PID.TID 0000.0001) // =======================================================
(PID.TID 0000.0001) // End MONITOR dynamic field statistics
(PID.TID 0000.0001) // =======================================================
(PID.TID 0000.0001) // =======================================================
(PID.TID 0000.0001) // Begin MONITOR ptracer field statistics
(PID.TID 0000.0001) // =======================================================
(PID.TID 0000.0001) %MON trcstat_ptracer01_max        =   3.5275891154048E+01
(PID.TID 0000.0001) %MON trcstat_ptracer01_min        =   3.4999702255318E+01
(PID.TID 0000.0001) %MON trcstat_ptracer01_mean       =   3.5005491205009E+01
(PID.TID 0000.0001) %MON trcstat_ptracer01_sd         =   3.2259015199320E-02
(PID.TID 0000.0001) %MON trcstat_ptracer01_del2       =   3.9249204857604E-04
(PID.TID 0000.0001) // =======================================================
(PID.TID 0000.0001) // End MONITOR ptracers field statistics
(PID.TID 0000.0001) // =======================================================
 cg2d: Sum(rhs),rhsMax =  -1.89714910447947E-12  1.41921083244022E-01
(PID.TID 0000.0001)                    cg2d_init_res =    2.61627618427008E+00
(PID.TID 0000.0001)                       cg2d_iters =   193
(PID.TID 0000.0001)                         cg2d_res =    9.23260237016720E-14
(PID.TID 0000.0001) // =======================================================
(PID.TID 0000.0001) // Begin MONITOR dynamic field statistics
(PID.TID 0000.0001) // =======================================================
(PID.TID 0000.0001) %MON time_tsnumber                =                     9
(PID.TID 0000.0001) %MON time_secondsf                =   5.4000000000000E+03
(PID.TID 0000.0001) %MON dynstat_eta_max              =   4.3942387640482E-01
(PID.TID 0000.0001) %MON dynstat_eta_min              =  -4.3955488578472E-01
(PID.TID 0000.0001) %MON dynstat_eta_mean             =   4.3625356125356E-15
(PID.TID 0000.0001) %MON dynstat_eta_sd               =   2.0376484428566E-01
(PID.TID 0000.0001) %MON dynstat_eta_del2             =   1.4961009223722E-05
(PID.TID 0000.0001) %MON dynstat_uvel_max             =   5.3229463967713E-01
(PID.TID 0000.0001) %MON dynstat_uvel_min             =   1.6198746064357E-01
(PID.TID 0000.0001) %MON dynstat_uvel_mean            =   2.5326468026309E-01
(PID.TID 0000.0001) %MON dynstat_uvel_sd              =   2.8209897760929E-02
(PID.TID 0000.0001) %MON dynstat_uvel_del2            =   4.1568807439539E-05
(PID.TID 0000.0001) %MON dynstat_vvel_max             =   1.0920021940985E-01
(PID.TID 0000.0001) %MON dynstat_vvel_min             =  -2.8940345659286E-01
(PID.TID 0000.0001) %MON dynstat_vvel_mean            =  -8.9311075871482E-05
(PID.TID 0000.0001) %MON dynstat_vvel_sd              =   2.3633271166017E-02
(PID.TID 0000.0001) %MON dynstat_vvel_del2            =   3.2610066658374E-05
(PID.TID 0000.0001) %MON dynstat_wvel_max             =   2.0939010591650E-02
(PID.TID 0000.0001) %MON dynstat_wvel_min             =  -2.2749520641363E-02
(PID.TID 0000.0001) %MON dynstat_wvel_mean            =   1.7104780318729E-18
(PID.TID 0000.0001) %MON dynstat_wvel_sd              =   1.9349508599845E-03
(PID.TID 0000.0001) %MON dynstat_wvel_del2            =   9.1640764593430E-06
(PID.TID 0000.0001) %MON dynstat_theta_max            =   7.1003810482097E-01
(PID.TID 0000.0001) %MON dynstat_theta_min            =  -7.2014670972679E-01
(PID.TID 0000.0001) %MON dynstat_theta_mean           =   2.0268125498441E-02
(PID.TID 0000.0001) %MON dynstat_theta_sd             =   4.5211003661766E-01
(PID.TID 0000.0001) %MON dynstat_theta_del2           =   1.1453592649077E-05
(PID.TID 0000.0001) %MON dynstat_salt_max             =   3.5303599701684E+01
(PID.TID 0000.0001) %MON dynstat_salt_min             =   3.4999644132326E+01
(PID.TID 0000.0001) %MON dynstat_salt_mean            =   3.5004560055337E+01
(PID.TID 0000.0001) %MON dynstat_salt_sd              =   3.4867809354015E-02
(PID.TID 0000.0001) %MON dynstat_salt_del2            =   3.6828160095030E-04
(PID.TID 0000.0001) %MON advcfl_uvel_max              =   6.3875356761256E-02
(PID.TID 0000.0001) %MON advcfl_vvel_max              =   3.4728414791143E-02
(PID.TID 0000.0001) %MON advcfl_wvel_max              =   2.4266155350787E-02
(PID.TID 0000.0001) %MON advcfl_W_hf_max              =   4.5755522714302E-02
(PID.TID 0000.0001) %MON pe_b_mean                    =   4.3873141447307E-05
(PID.TID 0000.0001) %MON ke_max                       =   1.6932571897493E-01
(PID.TID 0000.0001) %MON ke_mean                      =   3.2500689691952E-02
(PID.TID 0000.0001) %MON ke_vol                       =   3.6207071198500E+14
(PID.TID 0000.0001) %MON vort_r_min                   =  -1.4841922473449E-04
(PID.TID 0000.0001) %MON vort_r_max                   =   1.4093782588710E-04
(PID.TID 0000.0001) %MON vort_a_mean                  =   1.0000000000000E-04
(PID.TID 0000.0001) %MON vort_a_sd                    =   5.9824116405575E-06
(PID.TID 0000.0001) %MON vort_p_mean                  =   1.0161982423688E-04
(PID.TID 0000.0001) %MON vort_p_sd                    =   3.3882602816292E-05
(PID.TID 0000.0001) %MON surfExpan_theta_mean         =  -1.4048997450531E-07
(PID.TID 0000.0001) %MON surfExpan_salt_mean          =   2.0481316747321E-06
(PID.TID 0000.0001) // =======================================================
(PID.TID 0000.0001) // End MONITOR dynamic field statistics
(PID.TID 0000.0001) // =======================================================
(PID.TID 0000.0001) // =======================================================
(PID.TID 0000.0001) // Begin MONITOR ptracer field statistics
(PID.TID 0000.0001) // =======================================================
(PID.TID 0000.0001) %MON trcstat_ptracer01_max        =   3.5303599701688E+01
(PID.TID 0000.0001) %MON trcstat_ptracer01_min        =   3.4999644055353E+01
(PID.TID 0000.0001) %MON trcstat_ptracer01_mean       =   3.5006145313359E+01
(PID.TID 0000.0001) %MON trcstat_ptracer01_sd         =   3.5571195894245E-02
(PID.TID 0000.0001) %MON trcstat_ptracer01_del2       =   3.6552635718506E-04
(PID.TID 0000.0001) // =======================================================
(PID.TID 0000.0001) // End MONITOR ptracers field statistics
(PID.TID 0000.0001) // =======================================================
 cg2d: Sum(rhs),rhsMax =  -1.32160948851379E-12  1.50188334882634E-01
(PID.TID 0000.0001)                    cg2d_init_res =    8.35736372065538E-01
(PID.TID 0000.0001)                       cg2d_iters =   192
(PID.TID 0000.0001)                         cg2d_res =    9.89777527468580E-14
(PID.TID 0000.0001) // =======================================================
(PID.TID 0000.0001) // Begin MONITOR dynamic field statistics
(PID.TID 0000.0001) // =======================================================
(PID.TID 0000.0001) %MON time_tsnumber                =                    10
(PID.TID 0000.0001) %MON time_secondsf                =   6.0000000000000E+03
(PID.TID 0000.0001) %MON dynstat_eta_max              =   5.1607275517905E-01
(PID.TID 0000.0001) %MON dynstat_eta_min              =  -5.1535833201991E-01
(PID.TID 0000.0001) %MON dynstat_eta_mean             =   3.6391559829060E-15
(PID.TID 0000.0001) %MON dynstat_eta_sd               =   2.4724924118408E-01
(PID.TID 0000.0001) %MON dynstat_eta_del2             =   1.7575899456669E-05
(PID.TID 0000.0001) %MON dynstat_uvel_max             =   5.5759752400204E-01
(PID.TID 0000.0001) %MON dynstat_uvel_min             =   1.6735829274765E-01
(PID.TID 0000.0001) %MON dynstat_uvel_mean            =   2.6087982372118E-01
(PID.TID 0000.0001) %MON dynstat_uvel_sd              =   3.1150559316111E-02
(PID.TID 0000.0001) %MON dynstat_uvel_del2            =   4.7644160036529E-05
(PID.TID 0000.0001) %MON dynstat_vvel_max             =   1.1785076402684E-01
(PID.TID 0000.0001) %MON dynstat_vvel_min             =  -3.1759906980365E-01
(PID.TID 0000.0001) %MON dynstat_vvel_mean            =  -1.8784587519574E-04
(PID.TID 0000.0001) %MON dynstat_vvel_sd              =   2.5391926125371E-02
(PID.TID 0000.0001) %MON dynstat_vvel_del2            =   3.4737665016219E-05
(PID.TID 0000.0001) %MON dynstat_wvel_max             =   2.1847855594095E-02
(PID.TID 0000.0001) %MON dynstat_wvel_min             =  -2.3695582894239E-02
(PID.TID 0000.0001) %MON dynstat_wvel_mean            =  -4.8182479771068E-19
(PID.TID 0000.0001) %MON dynstat_wvel_sd              =   1.9643743207674E-03
(PID.TID 0000.0001) %MON dynstat_wvel_del2            =   8.6445154068612E-06
(PID.TID 0000.0001) %MON dynstat_theta_max            =   7.1115639409362E-01
(PID.TID 0000.0001) %MON dynstat_theta_min            =  -7.2212265126300E-01
(PID.TID 0000.0001) %MON dynstat_theta_mean           =   2.0267396025278E-02
(PID.TID 0000.0001) %MON dynstat_theta_sd             =   4.5210920642490E-01
(PID.TID 0000.0001) %MON dynstat_theta_del2           =   1.1811920256433E-05
(PID.TID 0000.0001) %MON dynstat_salt_max             =   3.5330042440741E+01
(PID.TID 0000.0001) %MON dynstat_salt_min             =   3.4999605819154E+01
(PID.TID 0000.0001) %MON dynstat_salt_mean            =   3.5005049152511E+01
(PID.TID 0000.0001) %MON dynstat_salt_sd              =   3.7974511376987E-02
(PID.TID 0000.0001) %MON dynstat_salt_del2            =   3.4462621918438E-04
(PID.TID 0000.0001) %MON advcfl_uvel_max              =   6.6911702880244E-02
(PID.TID 0000.0001) %MON advcfl_vvel_max              =   3.8111888376439E-02
(PID.TID 0000.0001) %MON advcfl_wvel_max              =   2.5275288420521E-02
(PID.TID 0000.0001) %MON advcfl_W_hf_max              =   4.7371977799428E-02
(PID.TID 0000.0001) %MON pe_b_mean                    =   6.4596673389885E-05
(PID.TID 0000.0001) %MON ke_max                       =   1.8554507817223E-01
(PID.TID 0000.0001) %MON ke_mean                      =   3.4399281874036E-02
(PID.TID 0000.0001) %MON ke_vol                       =   3.6207071198500E+14
(PID.TID 0000.0001) %MON vort_r_min                   =  -1.5750212766127E-04
(PID.TID 0000.0001) %MON vort_r_max                   =   1.4875231511989E-04
(PID.TID 0000.0001) %MON vort_a_mean                  =   1.0000000000000E-04
(PID.TID 0000.0001) %MON vort_a_sd                    =   6.3350769163394E-06
(PID.TID 0000.0001) %MON vort_p_mean                  =   1.0161982423688E-04
(PID.TID 0000.0001) %MON vort_p_sd                    =   3.4365685195141E-05
(PID.TID 0000.0001) %MON surfExpan_theta_mean         =  -3.4174337942841E-08
(PID.TID 0000.0001) %MON surfExpan_salt_mean          =   5.0642216714968E-07
(PID.TID 0000.0001) // =======================================================
(PID.TID 0000.0001) // End MONITOR dynamic field statistics
(PID.TID 0000.0001) // =======================================================
(PID.TID 0000.0001) // =======================================================
(PID.TID 0000.0001) // Begin MONITOR ptracer field statistics
(PID.TID 0000.0001) // =======================================================
(PID.TID 0000.0001) %MON trcstat_ptracer01_max        =   3.5330042440762E+01
(PID.TID 0000.0001) %MON trcstat_ptracer01_min        =   3.4999605420603E+01
(PID.TID 0000.0001) %MON trcstat_ptracer01_mean       =   3.5006793373600E+01
(PID.TID 0000.0001) %MON trcstat_ptracer01_sd         =   3.8762354501868E-02
(PID.TID 0000.0001) %MON trcstat_ptracer01_del2       =   3.4132201621656E-04
(PID.TID 0000.0001) // =======================================================
(PID.TID 0000.0001) // End MONITOR ptracers field statistics
(PID.TID 0000.0001) // =======================================================
(PID.TID 0000.0001) %CHECKPOINT        10 ckptA
(PID.TID 0000.0001)   Seconds in section "ALL                    [THE_MODEL_MAIN]":
(PID.TID 0000.0001)           User time:   5.7700000000000005
(PID.TID 0000.0001)         System time:  8.00000000000000017E-002
(PID.TID 0000.0001)     Wall clock time:   6.2102861404418945
(PID.TID 0000.0001)          No. starts:           1
(PID.TID 0000.0001)           No. stops:           1
(PID.TID 0000.0001)   Seconds in section "INITIALISE_FIXED       [THE_MODEL_MAIN]":
(PID.TID 0000.0001)           User time:  8.00000000000000017E-002
(PID.TID 0000.0001)         System time:  2.99999999999999989E-002
(PID.TID 0000.0001)     Wall clock time:  0.35622096061706543
(PID.TID 0000.0001)          No. starts:           1
(PID.TID 0000.0001)           No. stops:           1
(PID.TID 0000.0001)   Seconds in section "THE_MAIN_LOOP          [THE_MODEL_MAIN]":
(PID.TID 0000.0001)           User time:   5.6900000000000004
(PID.TID 0000.0001)         System time:  5.00000000000000028E-002
(PID.TID 0000.0001)     Wall clock time:   5.8539931774139404
(PID.TID 0000.0001)          No. starts:           1
(PID.TID 0000.0001)           No. stops:           1
(PID.TID 0000.0001)   Seconds in section "INITIALISE_VARIA    [THE_MAIN_LOOP]":
(PID.TID 0000.0001)           User time:  0.13000000000000000
(PID.TID 0000.0001)         System time:  1.00000000000000019E-002
(PID.TID 0000.0001)     Wall clock time:  0.15211796760559082
(PID.TID 0000.0001)          No. starts:           1
(PID.TID 0000.0001)           No. stops:           1
(PID.TID 0000.0001)   Seconds in section "MAIN LOOP           [THE_MAIN_LOOP]":
(PID.TID 0000.0001)           User time:   5.5600000000000005
(PID.TID 0000.0001)         System time:  4.00000000000000008E-002
(PID.TID 0000.0001)     Wall clock time:   5.7018220424652100
(PID.TID 0000.0001)          No. starts:           1
(PID.TID 0000.0001)           No. stops:           1
(PID.TID 0000.0001)   Seconds in section "FORWARD_STEP        [THE_MAIN_LOOP]":
(PID.TID 0000.0001)           User time:   5.5600000000000005
(PID.TID 0000.0001)         System time:  4.00000000000000008E-002
(PID.TID 0000.0001)     Wall clock time:   5.7017040252685547
(PID.TID 0000.0001)          No. starts:          10
(PID.TID 0000.0001)           No. stops:          10
(PID.TID 0000.0001)   Seconds in section "LOAD_FIELDS_DRIVER  [FORWARD_STEP]":
(PID.TID 0000.0001)           User time:  8.99999999999998579E-002
(PID.TID 0000.0001)         System time:   0.0000000000000000
(PID.TID 0000.0001)     Wall clock time:  5.50532341003417969E-002
(PID.TID 0000.0001)          No. starts:          10
(PID.TID 0000.0001)           No. stops:          10
(PID.TID 0000.0001)   Seconds in section "EXTERNAL_FLDS_LOAD [LOAD_FLDS_DRIVER]":
(PID.TID 0000.0001)           User time:   0.0000000000000000
(PID.TID 0000.0001)         System time:   0.0000000000000000
(PID.TID 0000.0001)     Wall clock time:  1.08242034912109375E-004
(PID.TID 0000.0001)          No. starts:          10
(PID.TID 0000.0001)           No. stops:          10
(PID.TID 0000.0001)   Seconds in section "RBCS_FIELDS_LOAD      [I/O]":
(PID.TID 0000.0001)           User time:  8.99999999999998579E-002
(PID.TID 0000.0001)         System time:   0.0000000000000000
(PID.TID 0000.0001)     Wall clock time:  5.46386241912841797E-002
(PID.TID 0000.0001)          No. starts:          10
(PID.TID 0000.0001)           No. stops:          10
(PID.TID 0000.0001)   Seconds in section "DO_ATMOSPHERIC_PHYS [FORWARD_STEP]":
(PID.TID 0000.0001)           User time:   0.0000000000000000
(PID.TID 0000.0001)         System time:   0.0000000000000000
(PID.TID 0000.0001)     Wall clock time:  1.01327896118164063E-004
(PID.TID 0000.0001)          No. starts:          10
(PID.TID 0000.0001)           No. stops:          10
(PID.TID 0000.0001)   Seconds in section "DO_OCEANIC_PHYS     [FORWARD_STEP]":
(PID.TID 0000.0001)           User time:  1.99999999999995737E-002
(PID.TID 0000.0001)         System time:   0.0000000000000000
(PID.TID 0000.0001)     Wall clock time:  3.06992530822753906E-002
(PID.TID 0000.0001)          No. starts:          10
(PID.TID 0000.0001)           No. stops:          10
(PID.TID 0000.0001)   Seconds in section "THERMODYNAMICS      [FORWARD_STEP]":
(PID.TID 0000.0001)           User time:  0.98000000000000043
(PID.TID 0000.0001)         System time:   0.0000000000000000
(PID.TID 0000.0001)     Wall clock time:  0.98723030090332031
(PID.TID 0000.0001)          No. starts:          10
(PID.TID 0000.0001)           No. stops:          10
(PID.TID 0000.0001)   Seconds in section "DYNAMICS            [FORWARD_STEP]":
(PID.TID 0000.0001)           User time:   1.0299999999999994
(PID.TID 0000.0001)         System time:   0.0000000000000000
(PID.TID 0000.0001)     Wall clock time:   1.0356132984161377
(PID.TID 0000.0001)          No. starts:          10
(PID.TID 0000.0001)           No. stops:          10
(PID.TID 0000.0001)   Seconds in section "SOLVE_FOR_PRESSURE  [FORWARD_STEP]":
(PID.TID 0000.0001)           User time:   2.6900000000000004
(PID.TID 0000.0001)         System time:   0.0000000000000000
(PID.TID 0000.0001)     Wall clock time:   2.7090859413146973
(PID.TID 0000.0001)          No. starts:          10
(PID.TID 0000.0001)           No. stops:          10
(PID.TID 0000.0001)   Seconds in section "MOM_CORRECTION_STEP [FORWARD_STEP]":
(PID.TID 0000.0001)           User time:  0.13999999999999879
(PID.TID 0000.0001)         System time:   0.0000000000000000
(PID.TID 0000.0001)     Wall clock time:  0.11402559280395508
(PID.TID 0000.0001)          No. starts:          10
(PID.TID 0000.0001)           No. stops:          10
(PID.TID 0000.0001)   Seconds in section "TRC_CORRECTION_STEP [FORWARD_STEP]":
(PID.TID 0000.0001)           User time:  9.99999999999978684E-003
(PID.TID 0000.0001)         System time:   0.0000000000000000
(PID.TID 0000.0001)     Wall clock time:  2.34470367431640625E-002
(PID.TID 0000.0001)          No. starts:          10
(PID.TID 0000.0001)           No. stops:          10
(PID.TID 0000.0001)   Seconds in section "BLOCKING_EXCHANGES  [FORWARD_STEP]":
(PID.TID 0000.0001)           User time:  3.00000000000011369E-002
(PID.TID 0000.0001)         System time:   0.0000000000000000
(PID.TID 0000.0001)     Wall clock time:  2.56154537200927734E-002
(PID.TID 0000.0001)          No. starts:          10
(PID.TID 0000.0001)           No. stops:          10
(PID.TID 0000.0001)   Seconds in section "MONITOR             [FORWARD_STEP]":
(PID.TID 0000.0001)           User time:  0.49999999999999911
(PID.TID 0000.0001)         System time:   0.0000000000000000
(PID.TID 0000.0001)     Wall clock time:  0.48749184608459473
(PID.TID 0000.0001)          No. starts:          10
(PID.TID 0000.0001)           No. stops:          10
(PID.TID 0000.0001)   Seconds in section "DO_THE_MODEL_IO     [FORWARD_STEP]":
(PID.TID 0000.0001)           User time:  4.00000000000000355E-002
(PID.TID 0000.0001)         System time:  1.00000000000000019E-002
(PID.TID 0000.0001)     Wall clock time:  0.12235403060913086
(PID.TID 0000.0001)          No. starts:          10
(PID.TID 0000.0001)           No. stops:          10
(PID.TID 0000.0001)   Seconds in section "DO_WRITE_PICKUP     [FORWARD_STEP]":
(PID.TID 0000.0001)           User time:  3.00000000000002487E-002
(PID.TID 0000.0001)         System time:  2.99999999999999989E-002
(PID.TID 0000.0001)     Wall clock time:  0.10966300964355469
(PID.TID 0000.0001)          No. starts:          10
(PID.TID 0000.0001)           No. stops:          10
(PID.TID 0000.0001) // ======================================================
(PID.TID 0000.0001) // Tile <-> Tile communication statistics
(PID.TID 0000.0001) // ======================================================
(PID.TID 0000.0001) // o Tile number: 000001
(PID.TID 0000.0001) //         No. X exchanges =              0
(PID.TID 0000.0001) //            Max. X spins =              0
(PID.TID 0000.0001) //            Min. X spins =     1000000000
(PID.TID 0000.0001) //          Total. X spins =              0
(PID.TID 0000.0001) //            Avg. X spins =       0.00E+00
(PID.TID 0000.0001) //         No. Y exchanges =              0
(PID.TID 0000.0001) //            Max. Y spins =              0
(PID.TID 0000.0001) //            Min. Y spins =     1000000000
(PID.TID 0000.0001) //          Total. Y spins =              0
(PID.TID 0000.0001) //            Avg. Y spins =       0.00E+00
(PID.TID 0000.0001) // o Tile number: 000002
(PID.TID 0000.0001) //         No. X exchanges =              0
(PID.TID 0000.0001) //            Max. X spins =              0
(PID.TID 0000.0001) //            Min. X spins =     1000000000
(PID.TID 0000.0001) //          Total. X spins =              0
(PID.TID 0000.0001) //            Avg. X spins =       0.00E+00
(PID.TID 0000.0001) //         No. Y exchanges =              0
(PID.TID 0000.0001) //            Max. Y spins =              0
(PID.TID 0000.0001) //            Min. Y spins =     1000000000
(PID.TID 0000.0001) //          Total. Y spins =              0
(PID.TID 0000.0001) //            Avg. Y spins =       0.00E+00
(PID.TID 0000.0001) // o Tile number: 000003
(PID.TID 0000.0001) //         No. X exchanges =              0
(PID.TID 0000.0001) //            Max. X spins =              0
(PID.TID 0000.0001) //            Min. X spins =     1000000000
(PID.TID 0000.0001) //          Total. X spins =              0
(PID.TID 0000.0001) //            Avg. X spins =       0.00E+00
(PID.TID 0000.0001) //         No. Y exchanges =              0
(PID.TID 0000.0001) //            Max. Y spins =              0
(PID.TID 0000.0001) //            Min. Y spins =     1000000000
(PID.TID 0000.0001) //          Total. Y spins =              0
(PID.TID 0000.0001) //            Avg. Y spins =       0.00E+00
(PID.TID 0000.0001) // o Tile number: 000004
(PID.TID 0000.0001) //         No. X exchanges =              0
(PID.TID 0000.0001) //            Max. X spins =              0
(PID.TID 0000.0001) //            Min. X spins =     1000000000
(PID.TID 0000.0001) //          Total. X spins =              0
(PID.TID 0000.0001) //            Avg. X spins =       0.00E+00
(PID.TID 0000.0001) //         No. Y exchanges =              0
(PID.TID 0000.0001) //            Max. Y spins =              0
(PID.TID 0000.0001) //            Min. Y spins =     1000000000
(PID.TID 0000.0001) //          Total. Y spins =              0
(PID.TID 0000.0001) //            Avg. Y spins =       0.00E+00
(PID.TID 0000.0001) // o Thread number: 000001
(PID.TID 0000.0001) //            No. barriers =          13670
(PID.TID 0000.0001) //      Max. barrier spins =              1
(PID.TID 0000.0001) //      Min. barrier spins =              1
(PID.TID 0000.0001) //     Total barrier spins =          13670
(PID.TID 0000.0001) //      Avg. barrier spins =       1.00E+00
