(PID.TID 0000.0001) 
(PID.TID 0000.0001) // ======================================================
(PID.TID 0000.0001) //                      MITgcm UV
(PID.TID 0000.0001) //                      =========
(PID.TID 0000.0001) // ======================================================
(PID.TID 0000.0001) // execution environment starting up...
(PID.TID 0000.0001) 
(PID.TID 0000.0001) // MITgcmUV version:  checkpoint57u_post
(PID.TID 0000.0001) // Build user:        mlosch
(PID.TID 0000.0001) // Build host:        faulks
(PID.TID 0000.0001) // Build date:        Tue Oct 11 09:53:29 EDT 2005
(PID.TID 0000.0001) 
(PID.TID 0000.0001) // =======================================================
(PID.TID 0000.0001) // Execution Environment parameter file "eedata"
(PID.TID 0000.0001) // =======================================================
(PID.TID 0000.0001) ># Example "eedata" file
(PID.TID 0000.0001) ># Lines beginning "#" are comments
(PID.TID 0000.0001) ># nTx - No. threads per process in X
(PID.TID 0000.0001) ># nTy - No. threads per process in Y
(PID.TID 0000.0001) > &EEPARMS
(PID.TID 0000.0001) > &
(PID.TID 0000.0001) ># Note: Some systems use & as the
(PID.TID 0000.0001) ># namelist terminator. Other systems
(PID.TID 0000.0001) ># use a / character (as shown here).
(PID.TID 0000.0001) 
(PID.TID 0000.0001) // =======================================================
(PID.TID 0000.0001) // Computational Grid Specification ( see files "SIZE.h" )
(PID.TID 0000.0001) //                                  ( and "eedata"       )
(PID.TID 0000.0001) // =======================================================
(PID.TID 0000.0001)      nPx =    1 ; /* No. processes in X */
(PID.TID 0000.0001)      nPy =    1 ; /* No. processes in Y */
(PID.TID 0000.0001)      nSx =    2 ; /* No. tiles in X per process */
(PID.TID 0000.0001)      nSy =    1 ; /* No. tiles in Y per process */
(PID.TID 0000.0001)      sNx =   40 ; /* Tile size in X */
(PID.TID 0000.0001)      sNy =   42 ; /* Tile size in Y */
(PID.TID 0000.0001)      OLx =    2 ; /* Tile overlap distance in X */
(PID.TID 0000.0001)      OLy =    2 ; /* Tile overlap distance in Y */
(PID.TID 0000.0001)      nTx =    1 ; /* No. threads in X per process */
(PID.TID 0000.0001)      nTy =    1 ; /* No. threads in Y per process */
(PID.TID 0000.0001)       Nr =    8 ; /* No. levels in the vertical   */
(PID.TID 0000.0001)       nX =   80 ; /* Total domain size in X ( = nPx*nSx*sNx ) */
(PID.TID 0000.0001)       nY =   42 ; /* Total domain size in Y ( = nPy*nSy*sNy ) */
(PID.TID 0000.0001)   nTiles =    2 ; /* Total no. tiles per process ( = nSx*nSy ) */
(PID.TID 0000.0001)   nProcs =    1 ; /* Total no. processes ( = nPx*nPy ) */
(PID.TID 0000.0001) nThreads =    1 ; /* Total no. threads per process ( = nTx*nTy ) */
(PID.TID 0000.0001) usingMPI =    F ; /* Flag used to control whether MPI is in use */
(PID.TID 0000.0001)                   /*  note: To execute a program with MPI calls */
(PID.TID 0000.0001)                   /*  it must be launched appropriately e.g     */
(PID.TID 0000.0001)                   /*  "mpirun -np 64 ......"                    */
(PID.TID 0000.0001) useCoupler=   F ; /* Flag used to control communications with */
(PID.TID 0000.0001)                   /*  other model components, through a coupler */
(PID.TID 0000.0001) 
(PID.TID 0000.0001) // ======================================================
(PID.TID 0000.0001) // Mapping of tiles to threads
(PID.TID 0000.0001) // ======================================================
(PID.TID 0000.0001) // -o- Thread   1, tiles (   1:   2,   1:   1)
(PID.TID 0000.0001) 
(PID.TID 0000.0001) // ======================================================
(PID.TID 0000.0001) // Tile <-> Tile connectvity table
(PID.TID 0000.0001) // ======================================================
(PID.TID 0000.0001) // Tile number: 000001 (process no. = 000001)
(PID.TID 0000.0001) //        WEST: Tile = 000002, Process = 000001, Comm = put
(PID.TID 0000.0001) //                bi = 000002, bj = 000001
(PID.TID 0000.0001) //        EAST: Tile = 000002, Process = 000001, Comm = put
(PID.TID 0000.0001) //                bi = 000002, bj = 000001
(PID.TID 0000.0001) //       SOUTH: Tile = 000001, Process = 000001, Comm = put
(PID.TID 0000.0001) //                bi = 000001, bj = 000001
(PID.TID 0000.0001) //       NORTH: Tile = 000001, Process = 000001, Comm = put
(PID.TID 0000.0001) //                bi = 000001, bj = 000001
(PID.TID 0000.0001) // Tile number: 000002 (process no. = 000001)
(PID.TID 0000.0001) //        WEST: Tile = 000001, Process = 000001, Comm = put
(PID.TID 0000.0001) //                bi = 000001, bj = 000001
(PID.TID 0000.0001) //        EAST: Tile = 000001, Process = 000001, Comm = put
(PID.TID 0000.0001) //                bi = 000001, bj = 000001
(PID.TID 0000.0001) //       SOUTH: Tile = 000002, Process = 000001, Comm = put
(PID.TID 0000.0001) //                bi = 000002, bj = 000001
(PID.TID 0000.0001) //       NORTH: Tile = 000002, Process = 000001, Comm = put
(PID.TID 0000.0001) //                bi = 000002, bj = 000001
(PID.TID 0000.0001) 
(PID.TID 0000.0001) // =======================================================
(PID.TID 0000.0001) // Model parameter file "data"
(PID.TID 0000.0001) // =======================================================
(PID.TID 0000.0001) ># ====================
(PID.TID 0000.0001) ># | Model parameters |
(PID.TID 0000.0001) ># ====================
(PID.TID 0000.0001) >#
(PID.TID 0000.0001) ># Continuous equation parameters
(PID.TID 0000.0001) > &PARM01
(PID.TID 0000.0001) > tRef= 0.696834, 0.497738, 0.298643, 0.0995477, -0.0995477, -0.298643, -0.497738, -0.696834,
(PID.TID 0000.0001) > sRef= 8*35.,
(PID.TID 0000.0001) > viscAz=1.E-3,
(PID.TID 0000.0001) > viscAh=1.E3,
(PID.TID 0000.0001) > no_slip_sides=.FALSE.,
(PID.TID 0000.0001) > no_slip_bottom=.FALSE.,
(PID.TID 0000.0001) > viscA4=0.E12,
(PID.TID 0000.0001) > diffKhT=1.E3,
(PID.TID 0000.0001) > diffKzT=1.E-5,
(PID.TID 0000.0001) > diffKhS=1.E3,
(PID.TID 0000.0001) > diffKzS=1.E-5,
(PID.TID 0000.0001) > f0=1.e-4,
(PID.TID 0000.0001) > beta=0.E-11,
(PID.TID 0000.0001) > tAlpha=2.E-4,
(PID.TID 0000.0001) > sBeta =0.E-4,
(PID.TID 0000.0001) > gravity=9.81,
(PID.TID 0000.0001) > gBaro=9.81,
(PID.TID 0000.0001) > rigidLid=.FALSE.,
(PID.TID 0000.0001) > implicitFreeSurface=.TRUE.,
(PID.TID 0000.0001) > eosType='LINEAR',
(PID.TID 0000.0001) > hFacMin=0.2,
(PID.TID 0000.0001) > nonHydrostatic=.FALSE.,
(PID.TID 0000.0001) > readBinaryPrec=64,
(PID.TID 0000.0001) > globalFiles=.TRUE.,
(PID.TID 0000.0001) > &
(PID.TID 0000.0001) >
(PID.TID 0000.0001) ># Elliptic solver parameters
(PID.TID 0000.0001) > &PARM02
(PID.TID 0000.0001) > cg2dMaxIters=1000,
(PID.TID 0000.0001) > cg2dTargetResidual=1.E-13,
(PID.TID 0000.0001) > cg3dMaxIters=400,
(PID.TID 0000.0001) > cg3dTargetResidual=1.E-13,
(PID.TID 0000.0001) > &
(PID.TID 0000.0001) >
(PID.TID 0000.0001) ># Time stepping parameters
(PID.TID 0000.0001) > &PARM03
(PID.TID 0000.0001) > niter0=0,
(PID.TID 0000.0001) > nTimeSteps=10,
(PID.TID 0000.0001) > deltaT=600.0,
(PID.TID 0000.0001) > abEps=0.1,
(PID.TID 0000.0001) > pChkptFreq=0.0,
(PID.TID 0000.0001) > chkptFreq=0.0,
(PID.TID 0000.0001) > dumpFreq=10800.0,
(PID.TID 0000.0001) > monitorFreq=1.,
(PID.TID 0000.0001) ># for time dependent open boundary conditions comment
(PID.TID 0000.0001) ># in the following three lines
(PID.TID 0000.0001) ># periodicExternalForcing=.TRUE.,
(PID.TID 0000.0001) ># externForcingPeriod=600.,
(PID.TID 0000.0001) ># externForcingCycle=1200.,
(PID.TID 0000.0001) > &
(PID.TID 0000.0001) >
(PID.TID 0000.0001) ># Gridding parameters
(PID.TID 0000.0001) > &PARM04
(PID.TID 0000.0001) > usingCartesianGrid=.TRUE.,
(PID.TID 0000.0001) > usingSphericalPolarGrid=.FALSE.,
(PID.TID 0000.0001) > delX=80*5.e3,
(PID.TID 0000.0001) > delY=42*5.e3,
(PID.TID 0000.0001) > delZ= 8*562.5,
(PID.TID 0000.0001) > &
(PID.TID 0000.0001) >
(PID.TID 0000.0001) ># Input datasets
(PID.TID 0000.0001) > &PARM05
(PID.TID 0000.0001) > bathyFile='topog.bump',
(PID.TID 0000.0001) > hydrogSaltFile='S.init',
(PID.TID 0000.0001) > &
(PID.TID 0000.0001) 
(PID.TID 0000.0001) S/R INI_PARMS ; starts to read PARM01
(PID.TID 0000.0001) S/R INI_PARMS ; read PARM01 : OK
(PID.TID 0000.0001) S/R INI_PARMS ; starts to read PARM02
(PID.TID 0000.0001) S/R INI_PARMS ; read PARM02 : OK
(PID.TID 0000.0001) S/R INI_PARMS ; starts to read PARM03
(PID.TID 0000.0001) S/R INI_PARMS ; read PARM03 : OK
(PID.TID 0000.0001) S/R INI_PARMS ; starts to read PARM04
(PID.TID 0000.0001) S/R INI_PARMS ; read PARM04 : OK
(PID.TID 0000.0001) S/R INI_PARMS ; starts to read PARM05
(PID.TID 0000.0001) S/R INI_PARMS ; read PARM05 : OK
(PID.TID 0000.0001)  PACKAGES_BOOT: opening data.pkg
(PID.TID 0000.0001)  OPEN_COPY_DATA_FILE: opening file data.pkg
(PID.TID 0000.0001) // =======================================================
(PID.TID 0000.0001) // Parameter file "data.pkg"
(PID.TID 0000.0001) // =======================================================
(PID.TID 0000.0001) ># Packages
(PID.TID 0000.0001) > &PACKAGES
(PID.TID 0000.0001) > useOBCS=.TRUE.,
(PID.TID 0000.0001) > usePtracers=.TRUE.,
(PID.TID 0000.0001) > &
(PID.TID 0000.0001) 
(PID.TID 0000.0001)  PACKAGES_BOOT: finished reading data.pkg
(PID.TID 0000.0001)  OBCS_READPARMS: opening data.obcs
(PID.TID 0000.0001)  OPEN_COPY_DATA_FILE: opening file data.obcs
(PID.TID 0000.0001) // =======================================================
(PID.TID 0000.0001) // Parameter file "data.obcs"
(PID.TID 0000.0001) // =======================================================
(PID.TID 0000.0001) ># Open-boundaries
(PID.TID 0000.0001) > &OBCS_PARM01
(PID.TID 0000.0001) > OB_Jnorth=80*-1,
(PID.TID 0000.0001) > OB_Jsouth=80*1,
(PID.TID 0000.0001) > OB_Ieast=42*-1,
(PID.TID 0000.0001) > OB_Iwest=42*1,
(PID.TID 0000.0001) >#useOrlanskiNorth=.TRUE.,
(PID.TID 0000.0001) >#useOrlanskiSouth=.TRUE.,
(PID.TID 0000.0001) >#useOrlanskiEast=.TRUE.,
(PID.TID 0000.0001) >#useOrlanskiWest=.FALSE.,
(PID.TID 0000.0001) > useOBCSprescribe = .TRUE.,
(PID.TID 0000.0001) > OBNuFile = 'OBmeridU.bin',
(PID.TID 0000.0001) > OBSuFile = 'OBmeridU.bin',
(PID.TID 0000.0001) > OBWuFile = 'OBzonalU.bin',
(PID.TID 0000.0001) > OBEuFile = 'OBzonalU.bin',
(PID.TID 0000.0001) > OBWsFile = 'OBzonalS.bin',
(PID.TID 0000.0001) > OBWptrFile(1) = 'OBzonalS.bin',
(PID.TID 0000.0001) > &
(PID.TID 0000.0001) >
(PID.TID 0000.0001) ># Orlanski parameters
(PID.TID 0000.0001) > &OBCS_PARM02
(PID.TID 0000.0001) >#Cmax=0.45,
(PID.TID 0000.0001) >#cVelTimeScale=1000.,
(PID.TID 0000.0001) > &
(PID.TID 0000.0001) 
 OB Jn = 42 42 42 42 42 42 42 42 42 42 42 42 42 42 42 42 42 42 42 42 42 42 42 42
 42 42 42 42 42 42 42 42 42 42 42 42 42 42 42 42 42 42 42 42 42 42 42 42 42 42
 42 42 42 42 42 42 42 42 42 42 42 42 42 42 42 42 42 42 42 42 42 42 42 42 42 42
 42 42 42 42
 OB Js = 1 1 1 1 1 1 1 1 1 1 1 1 1 1 1 1 1 1 1 1 1 1 1 1 1 1 1 1 1 1 1 1 1 1 1 1
 1 1 1 1 1 1 1 1 1 1 1 1 1 1 1 1 1 1 1 1 1 1 1 1 1 1 1 1 1 1 1 1 1 1 1 1 1 1 1 1
 1 1 1 1
 OB Ie = 80 80 80 80 80 80 80 80 80 80 80 80 80 80 80 80 80 80 80 80 80 80 80 80
 80 80 80 80 80 80 80 80 80 80 80 80 80 80 80 80 80 80
 OB Iw = 1 1 1 1 1 1 1 1 1 1 1 1 1 1 1 1 1 1 1 1 1 1 1 1 1 1 1 1 1 1 1 1 1 1 1 1
 1 1 1 1 1 1
(PID.TID 0000.0001)  OBCS_READPARMS: finished reading data.obcs
(PID.TID 0000.0001)  PTRACERS_READPARMS: opening data.ptracers
(PID.TID 0000.0001)  OPEN_COPY_DATA_FILE: opening file data.ptracers
(PID.TID 0000.0001) // =======================================================
(PID.TID 0000.0001) // Parameter file "data.ptracers"
(PID.TID 0000.0001) // =======================================================
(PID.TID 0000.0001) ># This set-up is supposed to mimic salinity. That is, initially
(PID.TID 0000.0001) ># PTRACER(:,:,:,1) is identical to salinity, except that the
(PID.TID 0000.0001) ># open boundary conditions are different, so that PTRACER(:,:,:,1) evolves
(PID.TID 0000.0001) ># differently than salinity.
(PID.TID 0000.0001) > &PTRACERS_PARM01
(PID.TID 0000.0001) > PTRACERS_numInUse=1,
(PID.TID 0000.0001) > PTRACERS_initialFile='S.init',
(PID.TID 0000.0001) > PTRACERS_names(1)='salt_mimic',
(PID.TID 0000.0001) > &
(PID.TID 0000.0001) 
(PID.TID 0000.0001)  PTRACERS_READPARMS: finished reading data.ptracers
(PID.TID 0000.0001) // ===================================
(PID.TID 0000.0001) // PTRACERS parameters
(PID.TID 0000.0001) // ===================================
(PID.TID 0000.0001) PTRACERS_numInUse = /* number of tracers */
(PID.TID 0000.0001)                       1
(PID.TID 0000.0001)     ;
(PID.TID 0000.0001) PTRACERS_Iter0 = /* timestep number when tracers are initialized */
(PID.TID 0000.0001)                       0
(PID.TID 0000.0001)     ;
(PID.TID 0000.0001) PTRACERS_dumpFreq = /* Frequency^-1 for snapshot output (s) */
(PID.TID 0000.0001)                 1.080000000000000E+04
(PID.TID 0000.0001)     ;
(PID.TID 0000.0001) PTRACERS_taveFreq = /* Frequency^-1 for time-Aver. output (s) */
(PID.TID 0000.0001)                 0.000000000000000E+00
(PID.TID 0000.0001)     ;
(PID.TID 0000.0001) PTRACERS_useRecords = /* all tracers in 1 file */
(PID.TID 0000.0001)                   F
(PID.TID 0000.0001)     ;
(PID.TID 0000.0001) PTRACERS_timeave_mnc = /* use MNC for Tave output */
(PID.TID 0000.0001)                   F
(PID.TID 0000.0001)     ;
(PID.TID 0000.0001) PTRACERS_snapshot_mnc = /* use MNC for snapshot output */
(PID.TID 0000.0001)                   F
(PID.TID 0000.0001)     ;
(PID.TID 0000.0001) PTRACERS_pickup_write_mnc = /* use MNC for writing pickups */
(PID.TID 0000.0001)                   F
(PID.TID 0000.0001)     ;
(PID.TID 0000.0001) PTRACERS_pickup_read_mnc = /* use MNC for reading pickups */
(PID.TID 0000.0001)                   F
(PID.TID 0000.0001)     ;
(PID.TID 0000.0001)  -----------------------------------
(PID.TID 0000.0001)  tracer number :    1
(PID.TID 0000.0001) PTRACERS_advScheme = /* Advection Scheme */
(PID.TID 0000.0001)                       2
(PID.TID 0000.0001)     ;
(PID.TID 0000.0001) PTRACERS_ImplVertAdv = /* implicit vert. advection flag */
(PID.TID 0000.0001)                   F
(PID.TID 0000.0001)     ;
(PID.TID 0000.0001) PTRACERS_diffKh = /* Laplacian Diffusivity */
(PID.TID 0000.0001)                 1.000000000000000E+03
(PID.TID 0000.0001)     ;
(PID.TID 0000.0001) PTRACERS_diffK4 = /* Biharmonic Diffusivity */
(PID.TID 0000.0001)                 0.000000000000000E+00
(PID.TID 0000.0001)     ;
(PID.TID 0000.0001) PTRACERS_diffKrNr = /* Vertical Diffusivity */
(PID.TID 0000.0001)     8 @  1.000000000000000E-05              /* K =  1:  8 */
(PID.TID 0000.0001)     ;
(PID.TID 0000.0001) PTRACERS_useGMRedi = /* apply GM-Redi */
(PID.TID 0000.0001)                   F
(PID.TID 0000.0001)     ;
(PID.TID 0000.0001) PTRACERS_useKPP = /* apply KPP scheme */
(PID.TID 0000.0001)                   F
(PID.TID 0000.0001)     ;
(PID.TID 0000.0001)  -----------------------------------
(PID.TID 0000.0001) %MON XC_max                       =   3.9750000000000E+05
(PID.TID 0000.0001) %MON XC_min                       =   2.5000000000000E+03
(PID.TID 0000.0001) %MON XC_mean                      =   2.0000000000000E+05
(PID.TID 0000.0001) %MON XC_sd                        =   1.1546103238755E+05
(PID.TID 0000.0001) %MON XG_max                       =   3.9500000000000E+05
(PID.TID 0000.0001) %MON XG_min                       =   5.0000000000000E+03
(PID.TID 0000.0001) %MON XG_mean                      =   2.0000000000000E+05
(PID.TID 0000.0001) %MON XG_sd                        =   1.1401754250991E+05
(PID.TID 0000.0001) %MON DXC_max                      =   5.0000000000000E+03
(PID.TID 0000.0001) %MON DXC_min                      =   5.0000000000000E+03
(PID.TID 0000.0001) %MON DXC_mean                     =   5.0000000000000E+03
(PID.TID 0000.0001) %MON DXC_sd                       =   0.0000000000000E+00
(PID.TID 0000.0001) %MON DXF_max                      =   5.0000000000000E+03
(PID.TID 0000.0001) %MON DXF_min                      =   5.0000000000000E+03
(PID.TID 0000.0001) %MON DXF_mean                     =   5.0000000000000E+03
(PID.TID 0000.0001) %MON DXF_sd                       =   0.0000000000000E+00
(PID.TID 0000.0001) %MON DXG_max                      =   5.0000000000000E+03
(PID.TID 0000.0001) %MON DXG_min                      =   5.0000000000000E+03
(PID.TID 0000.0001) %MON DXG_mean                     =   5.0000000000000E+03
(PID.TID 0000.0001) %MON DXG_sd                       =   0.0000000000000E+00
(PID.TID 0000.0001) %MON DXV_max                      =   5.0000000000000E+03
(PID.TID 0000.0001) %MON DXV_min                      =   5.0000000000000E+03
(PID.TID 0000.0001) %MON DXV_mean                     =   5.0000000000000E+03
(PID.TID 0000.0001) %MON DXV_sd                       =   0.0000000000000E+00
(PID.TID 0000.0001) %MON YC_max                       =   2.0750000000000E+05
(PID.TID 0000.0001) %MON YC_min                       =   2.5000000000000E+03
(PID.TID 0000.0001) %MON YC_mean                      =   1.0500000000000E+05
(PID.TID 0000.0001) %MON YC_sd                        =   6.0604592785256E+04
(PID.TID 0000.0001) %MON YG_max                       =   2.0500000000000E+05
(PID.TID 0000.0001) %MON YG_min                       =   5.0000000000000E+03
(PID.TID 0000.0001) %MON YG_mean                      =   1.0500000000000E+05
(PID.TID 0000.0001) %MON YG_sd                        =   5.9160797830996E+04
(PID.TID 0000.0001) %MON DYC_max                      =   5.0000000000000E+03
(PID.TID 0000.0001) %MON DYC_min                      =   5.0000000000000E+03
(PID.TID 0000.0001) %MON DYC_mean                     =   5.0000000000000E+03
(PID.TID 0000.0001) %MON DYC_sd                       =   0.0000000000000E+00
(PID.TID 0000.0001) %MON DYF_max                      =   5.0000000000000E+03
(PID.TID 0000.0001) %MON DYF_min                      =   5.0000000000000E+03
(PID.TID 0000.0001) %MON DYF_mean                     =   5.0000000000000E+03
(PID.TID 0000.0001) %MON DYF_sd                       =   0.0000000000000E+00
(PID.TID 0000.0001) %MON DYG_max                      =   5.0000000000000E+03
(PID.TID 0000.0001) %MON DYG_min                      =   5.0000000000000E+03
(PID.TID 0000.0001) %MON DYG_mean                     =   5.0000000000000E+03
(PID.TID 0000.0001) %MON DYG_sd                       =   0.0000000000000E+00
(PID.TID 0000.0001) %MON DYU_max                      =   5.0000000000000E+03
(PID.TID 0000.0001) %MON DYU_min                      =   5.0000000000000E+03
(PID.TID 0000.0001) %MON DYU_mean                     =   5.0000000000000E+03
(PID.TID 0000.0001) %MON DYU_sd                       =   0.0000000000000E+00
(PID.TID 0000.0001) %MON RA_max                       =   2.5000000000000E+07
(PID.TID 0000.0001) %MON RA_min                       =   2.5000000000000E+07
(PID.TID 0000.0001) %MON RA_mean                      =   2.5000000000000E+07
(PID.TID 0000.0001) %MON RA_sd                        =   3.7252902984619E-09
(PID.TID 0000.0001) %MON RAW_max                      =   2.5000000000000E+07
(PID.TID 0000.0001) %MON RAW_min                      =   2.5000000000000E+07
(PID.TID 0000.0001) %MON RAW_mean                     =   2.5000000000000E+07
(PID.TID 0000.0001) %MON RAW_sd                       =   3.7252902984619E-09
(PID.TID 0000.0001) %MON RAS_max                      =   2.5000000000000E+07
(PID.TID 0000.0001) %MON RAS_min                      =   2.5000000000000E+07
(PID.TID 0000.0001) %MON RAS_mean                     =   2.5000000000000E+07
(PID.TID 0000.0001) %MON RAS_sd                       =   3.7252902984619E-09
(PID.TID 0000.0001) %MON RAZ_max                      =   2.5000000000000E+07
(PID.TID 0000.0001) %MON RAZ_min                      =   2.5000000000000E+07
(PID.TID 0000.0001) %MON RAZ_mean                     =   2.5000000000000E+07
(PID.TID 0000.0001) %MON RAZ_sd                       =   3.7252902984619E-09
(PID.TID 0000.0001) %MON AngleCS_max                  =   1.0000000000000E+00
(PID.TID 0000.0001) %MON AngleCS_min                  =   1.0000000000000E+00
(PID.TID 0000.0001) %MON AngleCS_mean                 =   1.0000000000000E+00
(PID.TID 0000.0001) %MON AngleCS_sd                   =   0.0000000000000E+00
(PID.TID 0000.0001) %MON AngleSN_max                  =   0.0000000000000E+00
(PID.TID 0000.0001) %MON AngleSN_min                  =   0.0000000000000E+00
(PID.TID 0000.0001) %MON AngleSN_mean                 =   0.0000000000000E+00
(PID.TID 0000.0001) %MON AngleSN_sd                   =   0.0000000000000E+00
(PID.TID 0000.0001)  MDSREADFIELD: opening global file: topog.bump
(PID.TID 0000.0001) // =======================================================
(PID.TID 0000.0001) // Field Model R_low (ini_masks_etc) at iteration          1
(PID.TID 0000.0001) // CMIN =         -4.500000000000000E+03
(PID.TID 0000.0001) // CMAX =         -4.902981733158691E+02
(PID.TID 0000.0001) // CINT =          1.485074750623752E+02
(PID.TID 0000.0001) // SYMBOLS (CMIN->CMAX): -abcdefghijklmnopqrstuvwxyz+
(PID.TID 0000.0001) //                  0.0: .
(PID.TID 0000.0001) // RANGE I (Lo:Hi:Step):(  -1:  82:   1)
(PID.TID 0000.0001) // RANGE J (Lo:Hi:Step):(  44:  -1:  -1)
(PID.TID 0000.0001) // RANGE K (Lo:Hi:Step):(   1:   1:   1)
(PID.TID 0000.0001) // =======================================================
(PID.TID 0000.0001) K =   1
(PID.TID 0000.0001) //                I=8       I=18      I=28      I=38      I=44      I=54      I=64      I=74
(PID.TID 0000.0001) // |--J--|*01234567|901234567|901234567|901234567|901290123|567890123|567890123|567890123|56789012
(PID.TID 0000.0001) //     44 ----------------------------------------------------------------------------------------
(PID.TID 0000.0001) //     43 ----------------------------------------------------------------------------------------
(PID.TID 0000.0001) //     42 ----------------------------------------------------------------------------------------
(PID.TID 0000.0001) //     41 ----------------------------------------------------------------------------------------
(PID.TID 0000.0001) //     40 ----------------------------------------------------------------------------------------
(PID.TID 0000.0001) //     39 ----------------------------------------------------------------------------------------
(PID.TID 0000.0001) //     38 ----------------------------------------------------------------------------------------
(PID.TID 0000.0001) //     37 ----------------------------------------------------------------------------------------
(PID.TID 0000.0001) //     36 ----------------------------------------------------------------------------------------
(PID.TID 0000.0001) //     35 --------------------------------------aaaaaaaaaaaa--------------------------------------
(PID.TID 0000.0001) //     34 -----------------------------------aaaaaaaaaaaaaaaaaa-----------------------------------
(PID.TID 0000.0001) //     33 ----------------------------------aaaabbbbbbbbbbbbaaaa----------------------------------
(PID.TID 0000.0001) //     32 ---------------------------------aaabbbccccccccccbbbaaa---------------------------------
(PID.TID 0000.0001) //     31 --------------------------------aaabbcddddddddddddcbbaaa--------------------------------
(PID.TID 0000.0001) //     30 -------------------------------aabbcddeffffffffffeddcbbaa-------------------------------
(PID.TID 0000.0001) //     29 ------------------------------aaabcdefghhiihhiihhgfedcbaaa------------------------------
(PID.TID 0000.0001) //     28 -----------------------------aaabcdefhijkllkkllkjihfedcbaaa-----------------------------
(PID.TID 0000.0001) //     27 -----------------------------aabbdefhjlmnoonnoonmljhfedbbaa-----------------------------
(PID.TID 0000.0001) //     26 -----------------------------aabcdfhjlnpqrrqqrrqpnljhfdcbaa-----------------------------
(PID.TID 0000.0001) //     25 ----------------------------aabbdegilnqstuuttuutsqnligedbbaa----------------------------
(PID.TID 0000.0001) //     24 ----------------------------aabcdfhjmpsuwxxwwxxwuspmjhfdcbaa----------------------------
(PID.TID 0000.0001) //     23 ----------------------------aabcdfhknqtwyzzyyzzywtqnkhfdcbaa----------------------------
(PID.TID 0000.0001) //     22 ----------------------------aabcdfiloruxz++zz++zxurolifdcbaa----------------------------
(PID.TID 0000.0001) //     21 ----------------------------aabcdfiloruxz++zz++zxurolifdcbaa----------------------------
(PID.TID 0000.0001) //     20 ----------------------------aabcdfhknqtwyzzyyzzywtqnkhfdcbaa----------------------------
(PID.TID 0000.0001) //     19 ----------------------------aabcdfhjmpsuwxxwwxxwuspmjhfdcbaa----------------------------
(PID.TID 0000.0001) //     18 ----------------------------aabbdegilnqstuuttuutsqnligedbbaa----------------------------
(PID.TID 0000.0001) //     17 -----------------------------aabcdfhjlnpqrrqqrrqpnljhfdcbaa-----------------------------
(PID.TID 0000.0001) //     16 -----------------------------aabbdefhjlmnoonnoonmljhfedbbaa-----------------------------
(PID.TID 0000.0001) //     15 -----------------------------aaabcdefhijkllkkllkjihfedcbaaa-----------------------------
(PID.TID 0000.0001) //     14 ------------------------------aaabcdefghhiihhiihhgfedcbaaa------------------------------
(PID.TID 0000.0001) //     13 -------------------------------aabbcddeffffffffffeddcbbaa-------------------------------
(PID.TID 0000.0001) //     12 --------------------------------aaabbcddddddddddddcbbaaa--------------------------------
(PID.TID 0000.0001) //     11 ---------------------------------aaabbbccccccccccbbbaaa---------------------------------
(PID.TID 0000.0001) //     10 ----------------------------------aaaabbbbbbbbbbbbaaaa----------------------------------
(PID.TID 0000.0001) //      9 -----------------------------------aaaaaaaaaaaaaaaaaa-----------------------------------
(PID.TID 0000.0001) //      8 --------------------------------------aaaaaaaaaaaa--------------------------------------
(PID.TID 0000.0001) //      7 ----------------------------------------------------------------------------------------
(PID.TID 0000.0001) //      6 ----------------------------------------------------------------------------------------
(PID.TID 0000.0001) //      5 ----------------------------------------------------------------------------------------
(PID.TID 0000.0001) //      4 ----------------------------------------------------------------------------------------
(PID.TID 0000.0001) //      3 ----------------------------------------------------------------------------------------
(PID.TID 0000.0001) //      2 ----------------------------------------------------------------------------------------
(PID.TID 0000.0001) //      1 ----------------------------------------------------------------------------------------
(PID.TID 0000.0001) //      0 ----------------------------------------------------------------------------------------
(PID.TID 0000.0001) //     -1 ----------------------------------------------------------------------------------------
(PID.TID 0000.0001) // =======================================================
(PID.TID 0000.0001) // END OF FIELD                                          =
(PID.TID 0000.0001) // =======================================================
(PID.TID 0000.0001) 
(PID.TID 0000.0001) // =======================================================
(PID.TID 0000.0001) // Field Model Ro_surf (ini_masks_etc) at iteration          1
(PID.TID 0000.0001) // CMIN =          1.000000000000000E+32
(PID.TID 0000.0001) // CMAX =         -1.000000000000000E+32
(PID.TID 0000.0001) // CINT =          0.000000000000000E+00
(PID.TID 0000.0001) // SYMBOLS (CMIN->CMAX): -abcdefghijklmnopqrstuvwxyz+
(PID.TID 0000.0001) //                  0.0: .
(PID.TID 0000.0001) // RANGE I (Lo:Hi:Step):(  -1:  82:   1)
(PID.TID 0000.0001) // RANGE J (Lo:Hi:Step):(  44:  -1:  -1)
(PID.TID 0000.0001) // RANGE K (Lo:Hi:Step):(   1:   1:   1)
(PID.TID 0000.0001) // =======================================================
(PID.TID 0000.0001) // =======================================================
(PID.TID 0000.0001) // END OF FIELD                                          =
(PID.TID 0000.0001) // =======================================================
(PID.TID 0000.0001) 
(PID.TID 0000.0001) // =======================================================
(PID.TID 0000.0001) // Field hFacC at iteration          1
(PID.TID 0000.0001) // CMIN =          8.716411970059894E-01
(PID.TID 0000.0001) // CMAX =          1.000000000000000E+00
(PID.TID 0000.0001) // CINT =          4.754029740518911E-03
(PID.TID 0000.0001) // SYMBOLS (CMIN->CMAX): -abcdefghijklmnopqrstuvwxyz+
(PID.TID 0000.0001) //                  0.0: .
(PID.TID 0000.0001) // RANGE I (Lo:Hi:Step):(  -1:  82:   1)
(PID.TID 0000.0001) // RANGE J (Lo:Hi:Step):(  44:  -1:  -1)
(PID.TID 0000.0001) // RANGE K (Lo:Hi:Step):(   1:   1:   1)
(PID.TID 0000.0001) // =======================================================
(PID.TID 0000.0001) K =   1
(PID.TID 0000.0001) //                I=8       I=18      I=28      I=38      I=44      I=54      I=64      I=74
(PID.TID 0000.0001) // |--J--|*01234567|901234567|901234567|901234567|901290123|567890123|567890123|567890123|56789012
(PID.TID 0000.0001) //     44 ++++++++++++++++++++++++++++++++++++++++++++++++++++++++++++++++++++++++++++++++++++++++
(PID.TID 0000.0001) //     43 ++++++++++++++++++++++++++++++++++++++++++++++++++++++++++++++++++++++++++++++++++++++++
(PID.TID 0000.0001) //     42 ++++++++++++++++++++++++++++++++++++++++++++++++++++++++++++++++++++++++++++++++++++++++
(PID.TID 0000.0001) //     41 ++++++++++++++++++++++++++++++++++++++++++++++++++++++++++++++++++++++++++++++++++++++++
(PID.TID 0000.0001) //     40 ++++++++++++++++++++++++++++++++++++++++++++++++++++++++++++++++++++++++++++++++++++++++
(PID.TID 0000.0001) //     39 ++++++++++++++++++++++++++++++++++++++++++++++++++++++++++++++++++++++++++++++++++++++++
(PID.TID 0000.0001) //     38 ++++++++++++++++++++++++++++++++++++++++++++++++++++++++++++++++++++++++++++++++++++++++
(PID.TID 0000.0001) //     37 ++++++++++++++++++++++++++++++++++++++++++++++++++++++++++++++++++++++++++++++++++++++++
(PID.TID 0000.0001) //     36 ++++++++++++++++++++++++++++++++++++++++++++++++++++++++++++++++++++++++++++++++++++++++
(PID.TID 0000.0001) //     35 ++++++++++++++++++++++++++++++++++++++++++++++++++++++++++++++++++++++++++++++++++++++++
(PID.TID 0000.0001) //     34 ++++++++++++++++++++++++++++++++++++++++++++++++++++++++++++++++++++++++++++++++++++++++
(PID.TID 0000.0001) //     33 ++++++++++++++++++++++++++++++++++++++++++++++++++++++++++++++++++++++++++++++++++++++++
(PID.TID 0000.0001) //     32 ++++++++++++++++++++++++++++++++++++++++++++++++++++++++++++++++++++++++++++++++++++++++
(PID.TID 0000.0001) //     31 ++++++++++++++++++++++++++++++++++++++++++++++++++++++++++++++++++++++++++++++++++++++++
(PID.TID 0000.0001) //     30 ++++++++++++++++++++++++++++++++++++++++++++++++++++++++++++++++++++++++++++++++++++++++
(PID.TID 0000.0001) //     29 ++++++++++++++++++++++++++++++++++++++++++++++++++++++++++++++++++++++++++++++++++++++++
(PID.TID 0000.0001) //     28 ++++++++++++++++++++++++++++++++++++++++++++++++++++++++++++++++++++++++++++++++++++++++
(PID.TID 0000.0001) //     27 ++++++++++++++++++++++++++++++++++++++++++++++++++++++++++++++++++++++++++++++++++++++++
(PID.TID 0000.0001) //     26 ++++++++++++++++++++++++++++++++++++++++++++++++++++++++++++++++++++++++++++++++++++++++
(PID.TID 0000.0001) //     25 ++++++++++++++++++++++++++++++++++++++++++++++++++++++++++++++++++++++++++++++++++++++++
(PID.TID 0000.0001) //     24 ++++++++++++++++++++++++++++++++++++++++++++++++++++++++++++++++++++++++++++++++++++++++
(PID.TID 0000.0001) //     23 ++++++++++++++++++++++++++++++++++++++++++++++++++++++++++++++++++++++++++++++++++++++++
(PID.TID 0000.0001) //     22 +++++++++++++++++++++++++++++++++++++++++--++--+++++++++++++++++++++++++++++++++++++++++
(PID.TID 0000.0001) //     21 +++++++++++++++++++++++++++++++++++++++++--++--+++++++++++++++++++++++++++++++++++++++++
(PID.TID 0000.0001) //     20 ++++++++++++++++++++++++++++++++++++++++++++++++++++++++++++++++++++++++++++++++++++++++
(PID.TID 0000.0001) //     19 ++++++++++++++++++++++++++++++++++++++++++++++++++++++++++++++++++++++++++++++++++++++++
(PID.TID 0000.0001) //     18 ++++++++++++++++++++++++++++++++++++++++++++++++++++++++++++++++++++++++++++++++++++++++
(PID.TID 0000.0001) //     17 ++++++++++++++++++++++++++++++++++++++++++++++++++++++++++++++++++++++++++++++++++++++++
(PID.TID 0000.0001) //     16 ++++++++++++++++++++++++++++++++++++++++++++++++++++++++++++++++++++++++++++++++++++++++
(PID.TID 0000.0001) //     15 ++++++++++++++++++++++++++++++++++++++++++++++++++++++++++++++++++++++++++++++++++++++++
(PID.TID 0000.0001) //     14 ++++++++++++++++++++++++++++++++++++++++++++++++++++++++++++++++++++++++++++++++++++++++
(PID.TID 0000.0001) //     13 ++++++++++++++++++++++++++++++++++++++++++++++++++++++++++++++++++++++++++++++++++++++++
(PID.TID 0000.0001) //     12 ++++++++++++++++++++++++++++++++++++++++++++++++++++++++++++++++++++++++++++++++++++++++
(PID.TID 0000.0001) //     11 ++++++++++++++++++++++++++++++++++++++++++++++++++++++++++++++++++++++++++++++++++++++++
(PID.TID 0000.0001) //     10 ++++++++++++++++++++++++++++++++++++++++++++++++++++++++++++++++++++++++++++++++++++++++
(PID.TID 0000.0001) //      9 ++++++++++++++++++++++++++++++++++++++++++++++++++++++++++++++++++++++++++++++++++++++++
(PID.TID 0000.0001) //      8 ++++++++++++++++++++++++++++++++++++++++++++++++++++++++++++++++++++++++++++++++++++++++
(PID.TID 0000.0001) //      7 ++++++++++++++++++++++++++++++++++++++++++++++++++++++++++++++++++++++++++++++++++++++++
(PID.TID 0000.0001) //      6 ++++++++++++++++++++++++++++++++++++++++++++++++++++++++++++++++++++++++++++++++++++++++
(PID.TID 0000.0001) //      5 ++++++++++++++++++++++++++++++++++++++++++++++++++++++++++++++++++++++++++++++++++++++++
(PID.TID 0000.0001) //      4 ++++++++++++++++++++++++++++++++++++++++++++++++++++++++++++++++++++++++++++++++++++++++
(PID.TID 0000.0001) //      3 ++++++++++++++++++++++++++++++++++++++++++++++++++++++++++++++++++++++++++++++++++++++++
(PID.TID 0000.0001) //      2 ++++++++++++++++++++++++++++++++++++++++++++++++++++++++++++++++++++++++++++++++++++++++
(PID.TID 0000.0001) //      1 ++++++++++++++++++++++++++++++++++++++++++++++++++++++++++++++++++++++++++++++++++++++++
(PID.TID 0000.0001) //      0 ++++++++++++++++++++++++++++++++++++++++++++++++++++++++++++++++++++++++++++++++++++++++
(PID.TID 0000.0001) //     -1 ++++++++++++++++++++++++++++++++++++++++++++++++++++++++++++++++++++++++++++++++++++++++
(PID.TID 0000.0001) // =======================================================
(PID.TID 0000.0001) // END OF FIELD                                          =
(PID.TID 0000.0001) // =======================================================
(PID.TID 0000.0001) 
(PID.TID 0000.0001) // =======================================================
(PID.TID 0000.0001) // Field hFacW at iteration          1
(PID.TID 0000.0001) // CMIN =          8.716411970059894E-01
(PID.TID 0000.0001) // CMAX =          1.000000000000000E+00
(PID.TID 0000.0001) // CINT =          4.754029740518911E-03
(PID.TID 0000.0001) // SYMBOLS (CMIN->CMAX): -abcdefghijklmnopqrstuvwxyz+
(PID.TID 0000.0001) //                  0.0: .
(PID.TID 0000.0001) // RANGE I (Lo:Hi:Step):(  -1:  82:   1)
(PID.TID 0000.0001) // RANGE J (Lo:Hi:Step):(  44:  -1:  -1)
(PID.TID 0000.0001) // RANGE K (Lo:Hi:Step):(   1:   1:   1)
(PID.TID 0000.0001) // =======================================================
(PID.TID 0000.0001) K =   1
(PID.TID 0000.0001) //                I=8       I=18      I=28      I=38      I=44      I=54      I=64      I=74
(PID.TID 0000.0001) // |--J--|*01234567|901234567|901234567|901234567|901290123|567890123|567890123|567890123|56789012
(PID.TID 0000.0001) //     44 ++++++++++++++++++++++++++++++++++++++++++++++++++++++++++++++++++++++++++++++++++++++++
(PID.TID 0000.0001) //     43 ++++++++++++++++++++++++++++++++++++++++++++++++++++++++++++++++++++++++++++++++++++++++
(PID.TID 0000.0001) //     42 ++++++++++++++++++++++++++++++++++++++++++++++++++++++++++++++++++++++++++++++++++++++++
(PID.TID 0000.0001) //     41 ++++++++++++++++++++++++++++++++++++++++++++++++++++++++++++++++++++++++++++++++++++++++
(PID.TID 0000.0001) //     40 ++++++++++++++++++++++++++++++++++++++++++++++++++++++++++++++++++++++++++++++++++++++++
(PID.TID 0000.0001) //     39 ++++++++++++++++++++++++++++++++++++++++++++++++++++++++++++++++++++++++++++++++++++++++
(PID.TID 0000.0001) //     38 ++++++++++++++++++++++++++++++++++++++++++++++++++++++++++++++++++++++++++++++++++++++++
(PID.TID 0000.0001) //     37 ++++++++++++++++++++++++++++++++++++++++++++++++++++++++++++++++++++++++++++++++++++++++
(PID.TID 0000.0001) //     36 ++++++++++++++++++++++++++++++++++++++++++++++++++++++++++++++++++++++++++++++++++++++++
(PID.TID 0000.0001) //     35 ++++++++++++++++++++++++++++++++++++++++++++++++++++++++++++++++++++++++++++++++++++++++
(PID.TID 0000.0001) //     34 ++++++++++++++++++++++++++++++++++++++++++++++++++++++++++++++++++++++++++++++++++++++++
(PID.TID 0000.0001) //     33 ++++++++++++++++++++++++++++++++++++++++++++++++++++++++++++++++++++++++++++++++++++++++
(PID.TID 0000.0001) //     32 ++++++++++++++++++++++++++++++++++++++++++++++++++++++++++++++++++++++++++++++++++++++++
(PID.TID 0000.0001) //     31 ++++++++++++++++++++++++++++++++++++++++++++++++++++++++++++++++++++++++++++++++++++++++
(PID.TID 0000.0001) //     30 ++++++++++++++++++++++++++++++++++++++++++++++++++++++++++++++++++++++++++++++++++++++++
(PID.TID 0000.0001) //     29 ++++++++++++++++++++++++++++++++++++++++++++++++++++++++++++++++++++++++++++++++++++++++
(PID.TID 0000.0001) //     28 ++++++++++++++++++++++++++++++++++++++++++++++++++++++++++++++++++++++++++++++++++++++++
(PID.TID 0000.0001) //     27 ++++++++++++++++++++++++++++++++++++++++++++++++++++++++++++++++++++++++++++++++++++++++
(PID.TID 0000.0001) //     26 ++++++++++++++++++++++++++++++++++++++++++++++++++++++++++++++++++++++++++++++++++++++++
(PID.TID 0000.0001) //     25 ++++++++++++++++++++++++++++++++++++++++++++++++++++++++++++++++++++++++++++++++++++++++
(PID.TID 0000.0001) //     24 ++++++++++++++++++++++++++++++++++++++++++++++++++++++++++++++++++++++++++++++++++++++++
(PID.TID 0000.0001) //     23 ++++++++++++++++++++++++++++++++++++++++++++++++++++++++++++++++++++++++++++++++++++++++
(PID.TID 0000.0001) //     22 +++++++++++++++++++++++++++++++++++++++++---+---++++++++++++++++++++++++++++++++++++++++
(PID.TID 0000.0001) //     21 +++++++++++++++++++++++++++++++++++++++++---+---++++++++++++++++++++++++++++++++++++++++
(PID.TID 0000.0001) //     20 ++++++++++++++++++++++++++++++++++++++++++++++++++++++++++++++++++++++++++++++++++++++++
(PID.TID 0000.0001) //     19 ++++++++++++++++++++++++++++++++++++++++++++++++++++++++++++++++++++++++++++++++++++++++
(PID.TID 0000.0001) //     18 ++++++++++++++++++++++++++++++++++++++++++++++++++++++++++++++++++++++++++++++++++++++++
(PID.TID 0000.0001) //     17 ++++++++++++++++++++++++++++++++++++++++++++++++++++++++++++++++++++++++++++++++++++++++
(PID.TID 0000.0001) //     16 ++++++++++++++++++++++++++++++++++++++++++++++++++++++++++++++++++++++++++++++++++++++++
(PID.TID 0000.0001) //     15 ++++++++++++++++++++++++++++++++++++++++++++++++++++++++++++++++++++++++++++++++++++++++
(PID.TID 0000.0001) //     14 ++++++++++++++++++++++++++++++++++++++++++++++++++++++++++++++++++++++++++++++++++++++++
(PID.TID 0000.0001) //     13 ++++++++++++++++++++++++++++++++++++++++++++++++++++++++++++++++++++++++++++++++++++++++
(PID.TID 0000.0001) //     12 ++++++++++++++++++++++++++++++++++++++++++++++++++++++++++++++++++++++++++++++++++++++++
(PID.TID 0000.0001) //     11 ++++++++++++++++++++++++++++++++++++++++++++++++++++++++++++++++++++++++++++++++++++++++
(PID.TID 0000.0001) //     10 ++++++++++++++++++++++++++++++++++++++++++++++++++++++++++++++++++++++++++++++++++++++++
(PID.TID 0000.0001) //      9 ++++++++++++++++++++++++++++++++++++++++++++++++++++++++++++++++++++++++++++++++++++++++
(PID.TID 0000.0001) //      8 ++++++++++++++++++++++++++++++++++++++++++++++++++++++++++++++++++++++++++++++++++++++++
(PID.TID 0000.0001) //      7 ++++++++++++++++++++++++++++++++++++++++++++++++++++++++++++++++++++++++++++++++++++++++
(PID.TID 0000.0001) //      6 ++++++++++++++++++++++++++++++++++++++++++++++++++++++++++++++++++++++++++++++++++++++++
(PID.TID 0000.0001) //      5 ++++++++++++++++++++++++++++++++++++++++++++++++++++++++++++++++++++++++++++++++++++++++
(PID.TID 0000.0001) //      4 ++++++++++++++++++++++++++++++++++++++++++++++++++++++++++++++++++++++++++++++++++++++++
(PID.TID 0000.0001) //      3 ++++++++++++++++++++++++++++++++++++++++++++++++++++++++++++++++++++++++++++++++++++++++
(PID.TID 0000.0001) //      2 ++++++++++++++++++++++++++++++++++++++++++++++++++++++++++++++++++++++++++++++++++++++++
(PID.TID 0000.0001) //      1 ++++++++++++++++++++++++++++++++++++++++++++++++++++++++++++++++++++++++++++++++++++++++
(PID.TID 0000.0001) //      0 ++++++++++++++++++++++++++++++++++++++++++++++++++++++++++++++++++++++++++++++++++++++++
(PID.TID 0000.0001) //     -1 ++++++++++++++++++++++++++++++++++++++++++++++++++++++++++++++++++++++++++++++++++++++++
(PID.TID 0000.0001) // =======================================================
(PID.TID 0000.0001) // END OF FIELD                                          =
(PID.TID 0000.0001) // =======================================================
(PID.TID 0000.0001) 
(PID.TID 0000.0001) // =======================================================
(PID.TID 0000.0001) // Field hFacS at iteration          1
(PID.TID 0000.0001) // CMIN =          8.716411970059894E-01
(PID.TID 0000.0001) // CMAX =          1.000000000000000E+00
(PID.TID 0000.0001) // CINT =          4.754029740518911E-03
(PID.TID 0000.0001) // SYMBOLS (CMIN->CMAX): -abcdefghijklmnopqrstuvwxyz+
(PID.TID 0000.0001) //                  0.0: .
(PID.TID 0000.0001) // RANGE I (Lo:Hi:Step):(  -1:  82:   1)
(PID.TID 0000.0001) // RANGE J (Lo:Hi:Step):(  44:  -1:  -1)
(PID.TID 0000.0001) // RANGE K (Lo:Hi:Step):(   1:   1:   1)
(PID.TID 0000.0001) // =======================================================
(PID.TID 0000.0001) K =   1
(PID.TID 0000.0001) //                I=8       I=18      I=28      I=38      I=44      I=54      I=64      I=74
(PID.TID 0000.0001) // |--J--|*01234567|901234567|901234567|901234567|901290123|567890123|567890123|567890123|56789012
(PID.TID 0000.0001) //     44 ++++++++++++++++++++++++++++++++++++++++++++++++++++++++++++++++++++++++++++++++++++++++
(PID.TID 0000.0001) //     43 ++++++++++++++++++++++++++++++++++++++++++++++++++++++++++++++++++++++++++++++++++++++++
(PID.TID 0000.0001) //     42 ++++++++++++++++++++++++++++++++++++++++++++++++++++++++++++++++++++++++++++++++++++++++
(PID.TID 0000.0001) //     41 ++++++++++++++++++++++++++++++++++++++++++++++++++++++++++++++++++++++++++++++++++++++++
(PID.TID 0000.0001) //     40 ++++++++++++++++++++++++++++++++++++++++++++++++++++++++++++++++++++++++++++++++++++++++
(PID.TID 0000.0001) //     39 ++++++++++++++++++++++++++++++++++++++++++++++++++++++++++++++++++++++++++++++++++++++++
(PID.TID 0000.0001) //     38 ++++++++++++++++++++++++++++++++++++++++++++++++++++++++++++++++++++++++++++++++++++++++
(PID.TID 0000.0001) //     37 ++++++++++++++++++++++++++++++++++++++++++++++++++++++++++++++++++++++++++++++++++++++++
(PID.TID 0000.0001) //     36 ++++++++++++++++++++++++++++++++++++++++++++++++++++++++++++++++++++++++++++++++++++++++
(PID.TID 0000.0001) //     35 ++++++++++++++++++++++++++++++++++++++++++++++++++++++++++++++++++++++++++++++++++++++++
(PID.TID 0000.0001) //     34 ++++++++++++++++++++++++++++++++++++++++++++++++++++++++++++++++++++++++++++++++++++++++
(PID.TID 0000.0001) //     33 ++++++++++++++++++++++++++++++++++++++++++++++++++++++++++++++++++++++++++++++++++++++++
(PID.TID 0000.0001) //     32 ++++++++++++++++++++++++++++++++++++++++++++++++++++++++++++++++++++++++++++++++++++++++
(PID.TID 0000.0001) //     31 ++++++++++++++++++++++++++++++++++++++++++++++++++++++++++++++++++++++++++++++++++++++++
(PID.TID 0000.0001) //     30 ++++++++++++++++++++++++++++++++++++++++++++++++++++++++++++++++++++++++++++++++++++++++
(PID.TID 0000.0001) //     29 ++++++++++++++++++++++++++++++++++++++++++++++++++++++++++++++++++++++++++++++++++++++++
(PID.TID 0000.0001) //     28 ++++++++++++++++++++++++++++++++++++++++++++++++++++++++++++++++++++++++++++++++++++++++
(PID.TID 0000.0001) //     27 ++++++++++++++++++++++++++++++++++++++++++++++++++++++++++++++++++++++++++++++++++++++++
(PID.TID 0000.0001) //     26 ++++++++++++++++++++++++++++++++++++++++++++++++++++++++++++++++++++++++++++++++++++++++
(PID.TID 0000.0001) //     25 ++++++++++++++++++++++++++++++++++++++++++++++++++++++++++++++++++++++++++++++++++++++++
(PID.TID 0000.0001) //     24 ++++++++++++++++++++++++++++++++++++++++++++++++++++++++++++++++++++++++++++++++++++++++
(PID.TID 0000.0001) //     23 +++++++++++++++++++++++++++++++++++++++++--++--+++++++++++++++++++++++++++++++++++++++++
(PID.TID 0000.0001) //     22 +++++++++++++++++++++++++++++++++++++++++--++--+++++++++++++++++++++++++++++++++++++++++
(PID.TID 0000.0001) //     21 +++++++++++++++++++++++++++++++++++++++++--++--+++++++++++++++++++++++++++++++++++++++++
(PID.TID 0000.0001) //     20 ++++++++++++++++++++++++++++++++++++++++++++++++++++++++++++++++++++++++++++++++++++++++
(PID.TID 0000.0001) //     19 ++++++++++++++++++++++++++++++++++++++++++++++++++++++++++++++++++++++++++++++++++++++++
(PID.TID 0000.0001) //     18 ++++++++++++++++++++++++++++++++++++++++++++++++++++++++++++++++++++++++++++++++++++++++
(PID.TID 0000.0001) //     17 ++++++++++++++++++++++++++++++++++++++++++++++++++++++++++++++++++++++++++++++++++++++++
(PID.TID 0000.0001) //     16 ++++++++++++++++++++++++++++++++++++++++++++++++++++++++++++++++++++++++++++++++++++++++
(PID.TID 0000.0001) //     15 ++++++++++++++++++++++++++++++++++++++++++++++++++++++++++++++++++++++++++++++++++++++++
(PID.TID 0000.0001) //     14 ++++++++++++++++++++++++++++++++++++++++++++++++++++++++++++++++++++++++++++++++++++++++
(PID.TID 0000.0001) //     13 ++++++++++++++++++++++++++++++++++++++++++++++++++++++++++++++++++++++++++++++++++++++++
(PID.TID 0000.0001) //     12 ++++++++++++++++++++++++++++++++++++++++++++++++++++++++++++++++++++++++++++++++++++++++
(PID.TID 0000.0001) //     11 ++++++++++++++++++++++++++++++++++++++++++++++++++++++++++++++++++++++++++++++++++++++++
(PID.TID 0000.0001) //     10 ++++++++++++++++++++++++++++++++++++++++++++++++++++++++++++++++++++++++++++++++++++++++
(PID.TID 0000.0001) //      9 ++++++++++++++++++++++++++++++++++++++++++++++++++++++++++++++++++++++++++++++++++++++++
(PID.TID 0000.0001) //      8 ++++++++++++++++++++++++++++++++++++++++++++++++++++++++++++++++++++++++++++++++++++++++
(PID.TID 0000.0001) //      7 ++++++++++++++++++++++++++++++++++++++++++++++++++++++++++++++++++++++++++++++++++++++++
(PID.TID 0000.0001) //      6 ++++++++++++++++++++++++++++++++++++++++++++++++++++++++++++++++++++++++++++++++++++++++
(PID.TID 0000.0001) //      5 ++++++++++++++++++++++++++++++++++++++++++++++++++++++++++++++++++++++++++++++++++++++++
(PID.TID 0000.0001) //      4 ++++++++++++++++++++++++++++++++++++++++++++++++++++++++++++++++++++++++++++++++++++++++
(PID.TID 0000.0001) //      3 ++++++++++++++++++++++++++++++++++++++++++++++++++++++++++++++++++++++++++++++++++++++++
(PID.TID 0000.0001) //      2 ++++++++++++++++++++++++++++++++++++++++++++++++++++++++++++++++++++++++++++++++++++++++
(PID.TID 0000.0001) //      1 ++++++++++++++++++++++++++++++++++++++++++++++++++++++++++++++++++++++++++++++++++++++++
(PID.TID 0000.0001) //      0 ++++++++++++++++++++++++++++++++++++++++++++++++++++++++++++++++++++++++++++++++++++++++
(PID.TID 0000.0001) //     -1 ++++++++++++++++++++++++++++++++++++++++++++++++++++++++++++++++++++++++++++++++++++++++
(PID.TID 0000.0001) // =======================================================
(PID.TID 0000.0001) // END OF FIELD                                          =
(PID.TID 0000.0001) // =======================================================
(PID.TID 0000.0001) 
(PID.TID 0000.0001) 
(PID.TID 0000.0001) // ===================================
(PID.TID 0000.0001) // GAD parameters :
(PID.TID 0000.0001) // ===================================
(PID.TID 0000.0001) tempAdvScheme =   /* Temp. Horiz.Advection scheme selector */
(PID.TID 0000.0001)                       2
(PID.TID 0000.0001)     ;
(PID.TID 0000.0001) tempVertAdvScheme =   /* Temp. Vert. Advection scheme selector */
(PID.TID 0000.0001)                       2
(PID.TID 0000.0001)     ;
(PID.TID 0000.0001) tempMultiDimAdvec =   /* use Muti-Dim Advec method for Temp */
(PID.TID 0000.0001)                   F
(PID.TID 0000.0001)     ;
(PID.TID 0000.0001) tempAdamsBashforth =   /* use Adams-Bashforth time-stepping for Temp */
(PID.TID 0000.0001)                   T
(PID.TID 0000.0001)     ;
(PID.TID 0000.0001) saltAdvScheme =   /* Salt. Horiz.advection scheme selector */
(PID.TID 0000.0001)                       2
(PID.TID 0000.0001)     ;
(PID.TID 0000.0001) saltVertAdvScheme =   /* Salt. Vert. Advection scheme selector */
(PID.TID 0000.0001)                       2
(PID.TID 0000.0001)     ;
(PID.TID 0000.0001) saltMultiDimAdvec =   /* use Muti-Dim Advec method for Salt */
(PID.TID 0000.0001)                   F
(PID.TID 0000.0001)     ;
(PID.TID 0000.0001) saltAdamsBashforth =   /* use Adams-Bashforth time-stepping for Salt */
(PID.TID 0000.0001)                   T
(PID.TID 0000.0001)     ;
(PID.TID 0000.0001) // ===================================
(PID.TID 0000.0001) OBCS_CHECK: #define ALLOW_OBCS
(PID.TID 0000.0001) OBCS_CHECK: #define ALLOW_ORLANSKI
(PID.TID 0000.0001) OBCS_CHECK: OK
(PID.TID 0000.0001) %MON fCori_max                    =   1.0000000000000E-04
(PID.TID 0000.0001) %MON fCori_min                    =   1.0000000000000E-04
(PID.TID 0000.0001) %MON fCori_mean                   =   9.9999999999999E-05
(PID.TID 0000.0001) %MON fCori_sd                     =   1.3010426069826E-18
(PID.TID 0000.0001) %MON fCoriG_max                   =   1.0000000000000E-04
(PID.TID 0000.0001) %MON fCoriG_min                   =   1.0000000000000E-04
(PID.TID 0000.0001) %MON fCoriG_mean                  =   9.9999999999999E-05
(PID.TID 0000.0001) %MON fCoriG_sd                    =   1.3010426069826E-18
(PID.TID 0000.0001) %MON fCoriCos_max                 =   0.0000000000000E+00
(PID.TID 0000.0001) %MON fCoriCos_min                 =   0.0000000000000E+00
(PID.TID 0000.0001) %MON fCoriCos_mean                =   0.0000000000000E+00
(PID.TID 0000.0001) %MON fCoriCos_sd                  =   0.0000000000000E+00
(PID.TID 0000.0001) INI_CG2D: CG2D normalisation factor =  2.2222222222222223E-04
(PID.TID 0000.0001) 
(PID.TID 0000.0001) // CG3D normalisation factor =          0.2249999999999999802892045E-04
(PID.TID 0000.0001) 
(PID.TID 0000.0001) CONFIG_CHECK: OK
(PID.TID 0000.0001) // =======================================================
(PID.TID 0000.0001) // Model configuration
(PID.TID 0000.0001) // =======================================================
(PID.TID 0000.0001) //
(PID.TID 0000.0001) // "Physical" paramters ( PARM01 in namelist )
(PID.TID 0000.0001) //
(PID.TID 0000.0001) buoyancyRelation = OCEANIC
(PID.TID 0000.0001) fluidIsAir  =  /* fluid major constituent is Air */
(PID.TID 0000.0001)                   F
(PID.TID 0000.0001)     ;
(PID.TID 0000.0001) fluidIsWater=  /* fuild major constituent is Water */
(PID.TID 0000.0001)                   T
(PID.TID 0000.0001)     ;
(PID.TID 0000.0001) usingPCoords =  /* use p (or p*) vertical coordinate */
(PID.TID 0000.0001)                   F
(PID.TID 0000.0001)     ;
(PID.TID 0000.0001) usingZCoords =  /* use z (or z*) vertical coordinate */
(PID.TID 0000.0001)                   T
(PID.TID 0000.0001)     ;
(PID.TID 0000.0001) tRef =   /* Reference temperature profile ( oC or oK ) */
(PID.TID 0000.0001)                 6.968340000000000E-01,      /* K =  1 */
(PID.TID 0000.0001)                 4.977380000000000E-01,      /* K =  2 */
(PID.TID 0000.0001)                 2.986430000000000E-01,      /* K =  3 */
(PID.TID 0000.0001)                 9.954770000000000E-02,      /* K =  4 */
(PID.TID 0000.0001)                -9.954770000000000E-02,      /* K =  5 */
(PID.TID 0000.0001)                -2.986430000000000E-01,      /* K =  6 */
(PID.TID 0000.0001)                -4.977380000000000E-01,      /* K =  7 */
(PID.TID 0000.0001)                -6.968340000000000E-01       /* K =  8 */
(PID.TID 0000.0001)     ;
(PID.TID 0000.0001) sRef =   /* Reference salinity profile ( ppt ) */
(PID.TID 0000.0001)     8 @  3.500000000000000E+01              /* K =  1:  8 */
(PID.TID 0000.0001)     ;
(PID.TID 0000.0001) viscAh =   /* Lateral eddy viscosity ( m^2/s ) */
(PID.TID 0000.0001)                 1.000000000000000E+03
(PID.TID 0000.0001)     ;
(PID.TID 0000.0001) viscAhMax =   /* Maximum lateral eddy viscosity ( m^2/s ) */
(PID.TID 0000.0001)                 1.000000000000000E+21
(PID.TID 0000.0001)     ;
(PID.TID 0000.0001) viscAhGrid =   /* Grid dependent lateral eddy viscosity ( non-dim. ) */
(PID.TID 0000.0001)                 0.000000000000000E+00
(PID.TID 0000.0001)     ;
(PID.TID 0000.0001) useFullLeith =   /* Use Full Form of Leith Viscosity on/off flag*/
(PID.TID 0000.0001)                   F
(PID.TID 0000.0001)     ;
(PID.TID 0000.0001) useStrainTensionVisc =   /* Use StrainTension Form of Viscous Operator on/off flag*/
(PID.TID 0000.0001)                   F
(PID.TID 0000.0001)     ;
(PID.TID 0000.0001) useAreaViscLength =   /* Use area for visc length instead of geom. mean*/
(PID.TID 0000.0001)                   F
(PID.TID 0000.0001)     ;
(PID.TID 0000.0001) viscC2leith = /* Leith harmonic visc. factor (on grad(vort),non-dim.) */
(PID.TID 0000.0001)                 0.000000000000000E+00
(PID.TID 0000.0001)     ;
(PID.TID 0000.0001) viscC2leithD = /* Leith harmonic viscosity factor (on grad(div),non-dim.) */
(PID.TID 0000.0001)                 0.000000000000000E+00
(PID.TID 0000.0001)     ;
(PID.TID 0000.0001) viscC2smag =   /* Smagorinsky harmonic viscosity factor (non-dim.) */
(PID.TID 0000.0001)                 0.000000000000000E+00
(PID.TID 0000.0001)     ;
(PID.TID 0000.0001) viscA4 =   /* Lateral biharmonic viscosity ( m^4/s ) */
(PID.TID 0000.0001)                 0.000000000000000E+00
(PID.TID 0000.0001)     ;
(PID.TID 0000.0001) viscA4Max =   /* Maximum biharmonic viscosity ( m^2/s ) */
(PID.TID 0000.0001)                 1.000000000000000E+21
(PID.TID 0000.0001)     ;
(PID.TID 0000.0001) viscA4Grid =   /* Grid dependent biharmonic viscosity ( non-dim. ) */
(PID.TID 0000.0001)                 0.000000000000000E+00
(PID.TID 0000.0001)     ;
(PID.TID 0000.0001) viscC4leith = /* Leith biharm viscosity factor (on grad(vort), non-dim.) */
(PID.TID 0000.0001)                 0.000000000000000E+00
(PID.TID 0000.0001)     ;
(PID.TID 0000.0001) viscC4leithD = /* Leith biharm viscosity factor (on grad(div), non-dim.) */
(PID.TID 0000.0001)                 0.000000000000000E+00
(PID.TID 0000.0001)     ;
(PID.TID 0000.0001) viscC4Smag = /* Smagorinsky biharm viscosity factor (non-dim) */
(PID.TID 0000.0001)                 0.000000000000000E+00
(PID.TID 0000.0001)     ;
(PID.TID 0000.0001) no_slip_sides =  /* Viscous BCs: No-slip sides */
(PID.TID 0000.0001)                   F
(PID.TID 0000.0001)     ;
(PID.TID 0000.0001) viscAr =   /* Vertical eddy viscosity ( units of r^2/s ) */
(PID.TID 0000.0001)                 1.000000000000000E-03
(PID.TID 0000.0001)     ;
(PID.TID 0000.0001) no_slip_bottom =  /* Viscous BCs: No-slip bottom */
(PID.TID 0000.0001)                   F
(PID.TID 0000.0001)     ;
(PID.TID 0000.0001) diffKhT =   /* Laplacian diffusion of heat laterally ( m^2/s ) */
(PID.TID 0000.0001)                 1.000000000000000E+03
(PID.TID 0000.0001)     ;
(PID.TID 0000.0001) diffK4T =   /* Bihaarmonic diffusion of heat laterally ( m^4/s ) */
(PID.TID 0000.0001)                 0.000000000000000E+00
(PID.TID 0000.0001)     ;
(PID.TID 0000.0001) diffKhS =   /* Laplacian diffusion of salt laterally ( m^2/s ) */
(PID.TID 0000.0001)                 1.000000000000000E+03
(PID.TID 0000.0001)     ;
(PID.TID 0000.0001) diffK4S =   /* Bihaarmonic diffusion of salt laterally ( m^4/s ) */
(PID.TID 0000.0001)                 0.000000000000000E+00
(PID.TID 0000.0001)     ;
(PID.TID 0000.0001) diffKrNrT = /* vertical profile of vertical diffusion of Temp ( m^2/s )*/
(PID.TID 0000.0001)     8 @  1.000000000000000E-05              /* K =  1:  8 */
(PID.TID 0000.0001)     ;
(PID.TID 0000.0001) diffKrNrS = /* vertical profile of vertical diffusion of Salt ( m^2/s )*/
(PID.TID 0000.0001)     8 @  1.000000000000000E-05              /* K =  1:  8 */
(PID.TID 0000.0001)     ;
(PID.TID 0000.0001) diffKrBL79surf =   /* Surface diffusion for Bryan and Lewis 1979 ( m^2/s ) */
(PID.TID 0000.0001)                 0.000000000000000E+00
(PID.TID 0000.0001)     ;
(PID.TID 0000.0001) diffKrBL79deep =   /* Deep diffusion for Bryan and Lewis 1979 ( m^2/s ) */
(PID.TID 0000.0001)                 0.000000000000000E+00
(PID.TID 0000.0001)     ;
(PID.TID 0000.0001) diffKrBL79scl =   /* Depth scale for Bryan and Lewis 1979 ( m ) */
(PID.TID 0000.0001)                 2.000000000000000E+02
(PID.TID 0000.0001)     ;
(PID.TID 0000.0001) diffKrBL79Ho =   /* Turning depth for Bryan and Lewis 1979 ( m ) */
(PID.TID 0000.0001)                -2.000000000000000E+03
(PID.TID 0000.0001)     ;
(PID.TID 0000.0001)  Equation of State : eosType = LINEAR
(PID.TID 0000.0001) tAlpha =   /* Linear EOS thermal expansion coefficient ( 1/degree ) */
(PID.TID 0000.0001)                 2.000000000000000E-04
(PID.TID 0000.0001)     ;
(PID.TID 0000.0001) sBeta =   /* Linear EOS haline contraction coefficient ( 1/ppt ) */
(PID.TID 0000.0001)                 0.000000000000000E+00
(PID.TID 0000.0001)     ;
(PID.TID 0000.0001) rhonil =   /* Reference density ( kg/m^3 ) */
(PID.TID 0000.0001)                 9.998000000000000E+02
(PID.TID 0000.0001)     ;
(PID.TID 0000.0001) rhoConst =   /* Reference density ( kg/m^3 ) */
(PID.TID 0000.0001)                 9.998000000000000E+02
(PID.TID 0000.0001)     ;
(PID.TID 0000.0001) rhoConstFresh =   /* Reference density ( kg/m^3 ) */
(PID.TID 0000.0001)                 9.998000000000000E+02
(PID.TID 0000.0001)     ;
(PID.TID 0000.0001) gravity =   /* Gravitational acceleration ( m/s^2 ) */
(PID.TID 0000.0001)                 9.810000000000000E+00
(PID.TID 0000.0001)     ;
(PID.TID 0000.0001) gBaro =   /* Barotropic gravity ( m/s^2 ) */
(PID.TID 0000.0001)                 9.810000000000000E+00
(PID.TID 0000.0001)     ;
(PID.TID 0000.0001) rotationPeriod =   /* Rotation Period ( s ) */
(PID.TID 0000.0001)                 8.640000000000000E+04
(PID.TID 0000.0001)     ;
(PID.TID 0000.0001) omega =   /* Angular velocity ( rad/s ) */
(PID.TID 0000.0001)                 7.272205216643040E-05
(PID.TID 0000.0001)     ;
(PID.TID 0000.0001) f0 =   /* Reference coriolis parameter ( 1/s ) */
(PID.TID 0000.0001)                 1.000000000000000E-04
(PID.TID 0000.0001)     ;
(PID.TID 0000.0001) beta =   /* Beta ( 1/(m.s) ) */
(PID.TID 0000.0001)                 0.000000000000000E+00
(PID.TID 0000.0001)     ;
(PID.TID 0000.0001) freeSurfFac =   /* Implicit free surface factor */
(PID.TID 0000.0001)                 1.000000000000000E+00
(PID.TID 0000.0001)     ;
(PID.TID 0000.0001) implicitFreeSurface =   /* Implicit free surface on/off flag */
(PID.TID 0000.0001)                   T
(PID.TID 0000.0001)     ;
(PID.TID 0000.0001) rigidLid =   /* Rigid lid on/off flag */
(PID.TID 0000.0001)                   F
(PID.TID 0000.0001)     ;
(PID.TID 0000.0001) implicSurfPress =   /* Surface Pressure implicit factor (0-1)*/
(PID.TID 0000.0001)                 1.000000000000000E+00
(PID.TID 0000.0001)     ;
(PID.TID 0000.0001) implicDiv2Dflow =   /* Barot. Flow Div. implicit factor (0-1)*/
(PID.TID 0000.0001)                 1.000000000000000E+00
(PID.TID 0000.0001)     ;
(PID.TID 0000.0001) exactConserv =   /* Exact Volume Conservation on/off flag*/
(PID.TID 0000.0001)                   F
(PID.TID 0000.0001)     ;
(PID.TID 0000.0001) uniformLin_PhiSurf =   /* use uniform Bo_surf on/off flag*/
(PID.TID 0000.0001)                   T
(PID.TID 0000.0001)     ;
(PID.TID 0000.0001) nonlinFreeSurf =   /* Non-linear Free Surf. options (-1,0,1,2,3)*/
(PID.TID 0000.0001)                       0
(PID.TID 0000.0001)     ;
(PID.TID 0000.0001)      -1,0= Off ; 1,2,3= On, 2=+rescale gU,gV, 3=+update cg2d solv.
(PID.TID 0000.0001) hFacInf =   /* lower threshold for hFac (nonlinFreeSurf only)*/
(PID.TID 0000.0001)                 2.000000000000000E-01
(PID.TID 0000.0001)     ;
(PID.TID 0000.0001) hFacSup =   /* upper threshold for hFac (nonlinFreeSurf only)*/
(PID.TID 0000.0001)                 2.000000000000000E+00
(PID.TID 0000.0001)     ;
(PID.TID 0000.0001) select_rStar =   /* r* Coordinate options (not yet implemented)*/
(PID.TID 0000.0001)                       0
(PID.TID 0000.0001)     ;
(PID.TID 0000.0001) useRealFreshWaterFlux =   /* Real Fresh Water Flux on/off flag*/
(PID.TID 0000.0001)                   F
(PID.TID 0000.0001)     ;
(PID.TID 0000.0001) convertFW2Salt = /* convert F.W. Flux to Salt Flux (-1=use local S)(ppt)*/
(PID.TID 0000.0001)                 3.500000000000000E+01
(PID.TID 0000.0001)     ;
(PID.TID 0000.0001) nonHydrostatic =  /* Non-Hydrostatic on/off flag */
(PID.TID 0000.0001)                   F
(PID.TID 0000.0001)     ;
(PID.TID 0000.0001) momStepping =  /* Momentum equation on/off flag */
(PID.TID 0000.0001)                   T
(PID.TID 0000.0001)     ;
(PID.TID 0000.0001) momAdvection =  /* Momentum advection on/off flag */
(PID.TID 0000.0001)                   T
(PID.TID 0000.0001)     ;
(PID.TID 0000.0001) momViscosity =  /* Momentum viscosity on/off flag */
(PID.TID 0000.0001)                   T
(PID.TID 0000.0001)     ;
(PID.TID 0000.0001) momImplVertAdv =/* Momentum implicit vert. advection on/off*/
(PID.TID 0000.0001)                   F
(PID.TID 0000.0001)     ;
(PID.TID 0000.0001) implicitViscosity = /* Implicit viscosity on/off flag */
(PID.TID 0000.0001)                   F
(PID.TID 0000.0001)     ;
(PID.TID 0000.0001) useCoriolis =  /* Coriolis on/off flag */
(PID.TID 0000.0001)                   T
(PID.TID 0000.0001)     ;
(PID.TID 0000.0001) useCDscheme =  /* CD scheme on/off flag */
(PID.TID 0000.0001)                   F
(PID.TID 0000.0001)     ;
(PID.TID 0000.0001) useJamartWetPoints= /* Coriolis WetPoints method flag */
(PID.TID 0000.0001)                   F
(PID.TID 0000.0001)     ;
(PID.TID 0000.0001) useJamartMomAdv= /* V.I. Non-linear terms Jamart flag */
(PID.TID 0000.0001)                   F
(PID.TID 0000.0001)     ;
(PID.TID 0000.0001) SadournyCoriolis= /* Sadourny Coriolis discr. flag */
(PID.TID 0000.0001)                   F
(PID.TID 0000.0001)     ;
(PID.TID 0000.0001) upwindVorticity= /* Upwind bias vorticity flag */
(PID.TID 0000.0001)                   F
(PID.TID 0000.0001)     ;
(PID.TID 0000.0001) useAbsVorticity= /* Work with f+zeta in Coriolis */
(PID.TID 0000.0001)                   F
(PID.TID 0000.0001)     ;
(PID.TID 0000.0001) highOrderVorticity= /* High order interp. of vort. flag */
(PID.TID 0000.0001)                   F
(PID.TID 0000.0001)     ;
(PID.TID 0000.0001) upwindShear= /* Upwind vertical Shear advection flag */
(PID.TID 0000.0001)                   F
(PID.TID 0000.0001)     ;
(PID.TID 0000.0001) selectKEscheme= /* Kinetic Energy scheme selector */
(PID.TID 0000.0001)                       0
(PID.TID 0000.0001)     ;
(PID.TID 0000.0001) momForcing =  /* Momentum forcing on/off flag */
(PID.TID 0000.0001)                   T
(PID.TID 0000.0001)     ;
(PID.TID 0000.0001) momPressureForcing =  /* Momentum pressure term on/off flag */
(PID.TID 0000.0001)                   T
(PID.TID 0000.0001)     ;
(PID.TID 0000.0001) staggerTimeStep =   /* Stagger time stepping on/off flag */
(PID.TID 0000.0001)                   F
(PID.TID 0000.0001)     ;
(PID.TID 0000.0001) multiDimAdvection =   /* enable/disable Multi-Dim Advection */
(PID.TID 0000.0001)                   T
(PID.TID 0000.0001)     ;
(PID.TID 0000.0001) useMultiDimAdvec =   /* Multi-Dim Advection is/is-not used */
(PID.TID 0000.0001)                   F
(PID.TID 0000.0001)     ;
(PID.TID 0000.0001) implicitDiffusion =/* Implicit Diffusion on/off flag */
(PID.TID 0000.0001)                   F
(PID.TID 0000.0001)     ;
(PID.TID 0000.0001) tempStepping =  /* Temperature equation on/off flag */
(PID.TID 0000.0001)                   T
(PID.TID 0000.0001)     ;
(PID.TID 0000.0001) tempAdvection=  /* Temperature advection on/off flag */
(PID.TID 0000.0001)                   T
(PID.TID 0000.0001)     ;
(PID.TID 0000.0001) tempImplVertAdv =/* Temp. implicit vert. advection on/off */
(PID.TID 0000.0001)                   F
(PID.TID 0000.0001)     ;
(PID.TID 0000.0001) tempForcing  =  /* Temperature forcing on/off flag */
(PID.TID 0000.0001)                   T
(PID.TID 0000.0001)     ;
(PID.TID 0000.0001) saltStepping =  /* Salinity equation on/off flag */
(PID.TID 0000.0001)                   T
(PID.TID 0000.0001)     ;
(PID.TID 0000.0001) saltAdvection=  /* Salinity advection on/off flag */
(PID.TID 0000.0001)                   T
(PID.TID 0000.0001)     ;
(PID.TID 0000.0001) saltImplVertAdv =/* Sali. implicit vert. advection on/off */
(PID.TID 0000.0001)                   F
(PID.TID 0000.0001)     ;
(PID.TID 0000.0001) saltForcing  =  /* Salinity forcing on/off flag */
(PID.TID 0000.0001)                   T
(PID.TID 0000.0001)     ;
(PID.TID 0000.0001)  debugMode  =  /* Debug Mode on/off flag */
(PID.TID 0000.0001)                   F
(PID.TID 0000.0001)     ;
(PID.TID 0000.0001)    debLevA  =  /* 1rst level of debugging */
(PID.TID 0000.0001)                       1
(PID.TID 0000.0001)     ;
(PID.TID 0000.0001)    debLevB  =  /* 2nd  level of debugging */
(PID.TID 0000.0001)                       2
(PID.TID 0000.0001)     ;
(PID.TID 0000.0001)  debugLevel =  /* select debugging level */
(PID.TID 0000.0001)                       1
(PID.TID 0000.0001)     ;
(PID.TID 0000.0001) //
(PID.TID 0000.0001) // Elliptic solver(s) paramters ( PARM02 in namelist )
(PID.TID 0000.0001) //
(PID.TID 0000.0001) cg2dMaxIters =   /* Upper limit on 2d con. grad iterations  */
(PID.TID 0000.0001)                    1000
(PID.TID 0000.0001)     ;
(PID.TID 0000.0001) cg2dChkResFreq =   /* 2d con. grad convergence test frequency */
(PID.TID 0000.0001)                       1
(PID.TID 0000.0001)     ;
(PID.TID 0000.0001) cg2dTargetResidual =   /* 2d con. grad target residual  */
(PID.TID 0000.0001)                 1.000000000000000E-13
(PID.TID 0000.0001)     ;
(PID.TID 0000.0001) cg2dTargetResWunit =   /* CG2d target residual [W units] */
(PID.TID 0000.0001)                -1.000000000000000E+00
(PID.TID 0000.0001)     ;
(PID.TID 0000.0001) cg2dPreCondFreq =   /* Freq. for updating cg2d preconditioner */
(PID.TID 0000.0001)                       1
(PID.TID 0000.0001)     ;
(PID.TID 0000.0001) //
(PID.TID 0000.0001) // Time stepping paramters ( PARM03 in namelist )
(PID.TID 0000.0001) //
(PID.TID 0000.0001) nIter0 =   /* Run starting timestep number  */
(PID.TID 0000.0001)                       0
(PID.TID 0000.0001)     ;
(PID.TID 0000.0001) nTimeSteps =   /* Number of timesteps */
(PID.TID 0000.0001)                      10
(PID.TID 0000.0001)     ;
(PID.TID 0000.0001) deltatTmom =   /* Momentum equation timestep ( s ) */
(PID.TID 0000.0001)                 6.000000000000000E+02
(PID.TID 0000.0001)     ;
(PID.TID 0000.0001) deltaTfreesurf =   /* FreeSurface equation timestep ( s ) */
(PID.TID 0000.0001)                 6.000000000000000E+02
(PID.TID 0000.0001)     ;
(PID.TID 0000.0001) dTtracerLev =   /* Tracer equation timestep ( s ) */
(PID.TID 0000.0001)     8 @  6.000000000000000E+02              /* K =  1:  8 */
(PID.TID 0000.0001)     ;
(PID.TID 0000.0001) deltatTClock  =   /* Model clock timestep ( s ) */
(PID.TID 0000.0001)                 6.000000000000000E+02
(PID.TID 0000.0001)     ;
(PID.TID 0000.0001) cAdjFreq =   /* Convective adjustment interval ( s ) */
(PID.TID 0000.0001)                 0.000000000000000E+00
(PID.TID 0000.0001)     ;
(PID.TID 0000.0001) forcing_In_AB =   /* put T,S Forcing in Adams-Bash. stepping */
(PID.TID 0000.0001)                   T
(PID.TID 0000.0001)     ;
(PID.TID 0000.0001) abEps =   /* Adams-Bashforth-2 stabilizing weight */
(PID.TID 0000.0001)                 1.000000000000000E-01
(PID.TID 0000.0001)     ;
(PID.TID 0000.0001) baseTime =   /* Model base time ( s ). */
(PID.TID 0000.0001)                 0.000000000000000E+00
(PID.TID 0000.0001)     ;
(PID.TID 0000.0001) startTime =   /* Run start time ( s ). */
(PID.TID 0000.0001)                 0.000000000000000E+00
(PID.TID 0000.0001)     ;
(PID.TID 0000.0001) endTime =   /* Integration ending time ( s ). */
(PID.TID 0000.0001)                 6.000000000000000E+03
(PID.TID 0000.0001)     ;
(PID.TID 0000.0001) pChkPtFreq =   /* Permanent restart/checkpoint file interval ( s ). */
(PID.TID 0000.0001)                 0.000000000000000E+00
(PID.TID 0000.0001)     ;
(PID.TID 0000.0001) chkPtFreq =   /* Rolling restart/checkpoint file interval ( s ). */
(PID.TID 0000.0001)                 0.000000000000000E+00
(PID.TID 0000.0001)     ;
(PID.TID 0000.0001) pickup_write_mdsio =   /* Model IO flag. */
(PID.TID 0000.0001)                   T
(PID.TID 0000.0001)     ;
(PID.TID 0000.0001) pickup_read_mdsio =   /* Model IO flag. */
(PID.TID 0000.0001)                   T
(PID.TID 0000.0001)     ;
(PID.TID 0000.0001) pickup_write_immed =   /* Model IO flag. */
(PID.TID 0000.0001)                   F
(PID.TID 0000.0001)     ;
(PID.TID 0000.0001) dumpFreq =   /* Model state write out interval ( s ). */
(PID.TID 0000.0001)                 1.080000000000000E+04
(PID.TID 0000.0001)     ;
(PID.TID 0000.0001) dumpInitAndLast= /* write out Initial & Last iter. model state */
(PID.TID 0000.0001)                   T
(PID.TID 0000.0001)     ;
(PID.TID 0000.0001) snapshot_mdsio =   /* Model IO flag. */
(PID.TID 0000.0001)                   T
(PID.TID 0000.0001)     ;
(PID.TID 0000.0001) monitorFreq =   /* Monitor output interval ( s ). */
(PID.TID 0000.0001)                 1.000000000000000E+00
(PID.TID 0000.0001)     ;
(PID.TID 0000.0001) monitor_stdio =   /* Model IO flag. */
(PID.TID 0000.0001)                   T
(PID.TID 0000.0001)     ;
(PID.TID 0000.0001) externForcingPeriod =   /* forcing period (s) */
(PID.TID 0000.0001)                 0.000000000000000E+00
(PID.TID 0000.0001)     ;
(PID.TID 0000.0001) externForcingCycle =   /* period of the cyle (s). */
(PID.TID 0000.0001)                 0.000000000000000E+00
(PID.TID 0000.0001)     ;
(PID.TID 0000.0001) tauThetaClimRelax =   /* relaxation time scale (s) */
(PID.TID 0000.0001)                 0.000000000000000E+00
(PID.TID 0000.0001)     ;
(PID.TID 0000.0001) tauSaltClimRelax =   /* relaxation time scale (s) */
(PID.TID 0000.0001)                 0.000000000000000E+00
(PID.TID 0000.0001)     ;
(PID.TID 0000.0001) latBandClimRelax =   /* max. Lat. where relaxation */
(PID.TID 0000.0001)                 6.300000000000000E+05
(PID.TID 0000.0001)     ;
(PID.TID 0000.0001) //
(PID.TID 0000.0001) // Gridding paramters ( PARM04 in namelist )
(PID.TID 0000.0001) //
(PID.TID 0000.0001) usingCartesianGrid =   /* Cartesian coordinates flag ( True / False ) */
(PID.TID 0000.0001)                   T
(PID.TID 0000.0001)     ;
(PID.TID 0000.0001) usingSphericalPolarGrid =   /* Spherical coordinates flag ( True / False ) */
(PID.TID 0000.0001)                   F
(PID.TID 0000.0001)     ;
(PID.TID 0000.0001) usingCylindricalGrid =   /* Spherical coordinates flag ( True / False ) */
(PID.TID 0000.0001)                   F
(PID.TID 0000.0001)     ;
(PID.TID 0000.0001) Ro_SeaLevel =   /* r(1) ( units of r ) */
(PID.TID 0000.0001)                 0.000000000000000E+00
(PID.TID 0000.0001)     ;
(PID.TID 0000.0001) rkSign =   /* index orientation relative to vertical coordinate */
(PID.TID 0000.0001)                -1.000000000000000E+00
(PID.TID 0000.0001)     ;
(PID.TID 0000.0001) horiVertRatio =   /* Ratio on units : Horiz - Vertical */
(PID.TID 0000.0001)                 1.000000000000000E+00
(PID.TID 0000.0001)     ;
(PID.TID 0000.0001) drC =   /* C spacing ( units of r ) */
(PID.TID 0000.0001)                 2.812500000000000E+02,      /* K =  1 */
(PID.TID 0000.0001)     7 @  5.625000000000000E+02              /* K =  2:  8 */
(PID.TID 0000.0001)     ;
(PID.TID 0000.0001) drF =   /* W spacing ( units of r ) */
(PID.TID 0000.0001)     8 @  5.625000000000000E+02              /* K =  1:  8 */
(PID.TID 0000.0001)     ;
(PID.TID 0000.0001) delX =   /* U spacing ( m - cartesian, degrees - spherical ) */
(PID.TID 0000.0001)    80 @  5.000000000000000E+03              /* I =  1: 80 */
(PID.TID 0000.0001)     ;
(PID.TID 0000.0001) delY =   /* V spacing ( m - cartesian, degrees - spherical ) */
(PID.TID 0000.0001)    42 @  5.000000000000000E+03              /* J =  1: 42 */
(PID.TID 0000.0001)     ;
(PID.TID 0000.0001) phiMin =    /* South edge (ignored - cartesian, degrees - spherical ) */
(PID.TID 0000.0001)                 0.000000000000000E+00
(PID.TID 0000.0001)     ;
(PID.TID 0000.0001) thetaMin =    /* West edge ( ignored - cartesian, degrees - spherical ) */
(PID.TID 0000.0001)                 0.000000000000000E+00
(PID.TID 0000.0001)     ;
(PID.TID 0000.0001) rSphere =    /* Radius ( ignored - cartesian, m - spherical ) */
(PID.TID 0000.0001)                 6.370000000000000E+06
(PID.TID 0000.0001)     ;
(PID.TID 0000.0001) xcoord =   /* P-point X coord ( m - cartesian, degrees - spherical ) */
(PID.TID 0000.0001)                 2.500000000000000E+03,      /* I =  1 */
(PID.TID 0000.0001)                 7.500000000000000E+03,      /* I =  2 */
(PID.TID 0000.0001)                 1.250000000000000E+04,      /* I =  3 */
(PID.TID 0000.0001)                 1.750000000000000E+04,      /* I =  4 */
(PID.TID 0000.0001)                 2.250000000000000E+04,      /* I =  5 */
(PID.TID 0000.0001)                 2.750000000000000E+04,      /* I =  6 */
(PID.TID 0000.0001)                 3.250000000000000E+04,      /* I =  7 */
(PID.TID 0000.0001)                 3.750000000000000E+04,      /* I =  8 */
(PID.TID 0000.0001)                 4.250000000000000E+04,      /* I =  9 */
(PID.TID 0000.0001)                 4.750000000000000E+04,      /* I = 10 */
(PID.TID 0000.0001)                 5.250000000000000E+04,      /* I = 11 */
(PID.TID 0000.0001)                 5.750000000000000E+04,      /* I = 12 */
(PID.TID 0000.0001)                 6.250000000000000E+04,      /* I = 13 */
(PID.TID 0000.0001)                 6.750000000000000E+04,      /* I = 14 */
(PID.TID 0000.0001)                 7.250000000000000E+04,      /* I = 15 */
(PID.TID 0000.0001)                 7.750000000000000E+04,      /* I = 16 */
(PID.TID 0000.0001)                 8.250000000000000E+04,      /* I = 17 */
(PID.TID 0000.0001)                 8.750000000000000E+04,      /* I = 18 */
(PID.TID 0000.0001)                 9.250000000000000E+04,      /* I = 19 */
(PID.TID 0000.0001)                 9.750000000000000E+04,      /* I = 20 */
(PID.TID 0000.0001)                 1.025000000000000E+05,      /* I = 21 */
(PID.TID 0000.0001)                 1.075000000000000E+05,      /* I = 22 */
(PID.TID 0000.0001)                 1.125000000000000E+05,      /* I = 23 */
(PID.TID 0000.0001)                 1.175000000000000E+05,      /* I = 24 */
(PID.TID 0000.0001)                 1.225000000000000E+05,      /* I = 25 */
(PID.TID 0000.0001)                 1.275000000000000E+05,      /* I = 26 */
(PID.TID 0000.0001)                 1.325000000000000E+05,      /* I = 27 */
(PID.TID 0000.0001)                 1.375000000000000E+05,      /* I = 28 */
(PID.TID 0000.0001)                 1.425000000000000E+05,      /* I = 29 */
(PID.TID 0000.0001)                 1.475000000000000E+05,      /* I = 30 */
(PID.TID 0000.0001)                 1.525000000000000E+05,      /* I = 31 */
(PID.TID 0000.0001)                 1.575000000000000E+05,      /* I = 32 */
(PID.TID 0000.0001)                 1.625000000000000E+05,      /* I = 33 */
(PID.TID 0000.0001)                 1.675000000000000E+05,      /* I = 34 */
(PID.TID 0000.0001)                 1.725000000000000E+05,      /* I = 35 */
(PID.TID 0000.0001)                 1.775000000000000E+05,      /* I = 36 */
(PID.TID 0000.0001)                 1.825000000000000E+05,      /* I = 37 */
(PID.TID 0000.0001)                 1.875000000000000E+05,      /* I = 38 */
(PID.TID 0000.0001)                 1.925000000000000E+05,      /* I = 39 */
(PID.TID 0000.0001)                 1.975000000000000E+05,      /* I = 40 */
(PID.TID 0000.0001)                 2.025000000000000E+05,      /* I = 41 */
(PID.TID 0000.0001)                 2.075000000000000E+05,      /* I = 42 */
(PID.TID 0000.0001)                 2.125000000000000E+05,      /* I = 43 */
(PID.TID 0000.0001)                 2.175000000000000E+05,      /* I = 44 */
(PID.TID 0000.0001)                 2.225000000000000E+05,      /* I = 45 */
(PID.TID 0000.0001)                 2.275000000000000E+05,      /* I = 46 */
(PID.TID 0000.0001)                 2.325000000000000E+05,      /* I = 47 */
(PID.TID 0000.0001)                 2.375000000000000E+05,      /* I = 48 */
(PID.TID 0000.0001)                 2.425000000000000E+05,      /* I = 49 */
(PID.TID 0000.0001)                 2.475000000000000E+05,      /* I = 50 */
(PID.TID 0000.0001)                 2.525000000000000E+05,      /* I = 51 */
(PID.TID 0000.0001)                 2.575000000000000E+05,      /* I = 52 */
(PID.TID 0000.0001)                 2.625000000000000E+05,      /* I = 53 */
(PID.TID 0000.0001)                 2.675000000000000E+05,      /* I = 54 */
(PID.TID 0000.0001)                 2.725000000000000E+05,      /* I = 55 */
(PID.TID 0000.0001)                 2.775000000000000E+05,      /* I = 56 */
(PID.TID 0000.0001)                 2.825000000000000E+05,      /* I = 57 */
(PID.TID 0000.0001)                 2.875000000000000E+05,      /* I = 58 */
(PID.TID 0000.0001)                 2.925000000000000E+05,      /* I = 59 */
(PID.TID 0000.0001)                 2.975000000000000E+05,      /* I = 60 */
(PID.TID 0000.0001)                 3.025000000000000E+05,      /* I = 61 */
(PID.TID 0000.0001)                 3.075000000000000E+05,      /* I = 62 */
(PID.TID 0000.0001)                 3.125000000000000E+05,      /* I = 63 */
(PID.TID 0000.0001)                 3.175000000000000E+05,      /* I = 64 */
(PID.TID 0000.0001)                 3.225000000000000E+05,      /* I = 65 */
(PID.TID 0000.0001)                 3.275000000000000E+05,      /* I = 66 */
(PID.TID 0000.0001)                 3.325000000000000E+05,      /* I = 67 */
(PID.TID 0000.0001)                 3.375000000000000E+05,      /* I = 68 */
(PID.TID 0000.0001)                 3.425000000000000E+05,      /* I = 69 */
(PID.TID 0000.0001)                 3.475000000000000E+05,      /* I = 70 */
(PID.TID 0000.0001)                 3.525000000000000E+05,      /* I = 71 */
(PID.TID 0000.0001)                 3.575000000000000E+05,      /* I = 72 */
(PID.TID 0000.0001)                 3.625000000000000E+05,      /* I = 73 */
(PID.TID 0000.0001)                 3.675000000000000E+05,      /* I = 74 */
(PID.TID 0000.0001)                 3.725000000000000E+05,      /* I = 75 */
(PID.TID 0000.0001)                 3.775000000000000E+05,      /* I = 76 */
(PID.TID 0000.0001)                 3.825000000000000E+05,      /* I = 77 */
(PID.TID 0000.0001)                 3.875000000000000E+05,      /* I = 78 */
(PID.TID 0000.0001)                 3.925000000000000E+05,      /* I = 79 */
(PID.TID 0000.0001)                 3.975000000000000E+05       /* I = 80 */
(PID.TID 0000.0001)     ;
(PID.TID 0000.0001) ycoord =   /* P-point Y coord ( m - cartesian, degrees - spherical ) */
(PID.TID 0000.0001)                 2.500000000000000E+03,      /* J =  1 */
(PID.TID 0000.0001)                 7.500000000000000E+03,      /* J =  2 */
(PID.TID 0000.0001)                 1.250000000000000E+04,      /* J =  3 */
(PID.TID 0000.0001)                 1.750000000000000E+04,      /* J =  4 */
(PID.TID 0000.0001)                 2.250000000000000E+04,      /* J =  5 */
(PID.TID 0000.0001)                 2.750000000000000E+04,      /* J =  6 */
(PID.TID 0000.0001)                 3.250000000000000E+04,      /* J =  7 */
(PID.TID 0000.0001)                 3.750000000000000E+04,      /* J =  8 */
(PID.TID 0000.0001)                 4.250000000000000E+04,      /* J =  9 */
(PID.TID 0000.0001)                 4.750000000000000E+04,      /* J = 10 */
(PID.TID 0000.0001)                 5.250000000000000E+04,      /* J = 11 */
(PID.TID 0000.0001)                 5.750000000000000E+04,      /* J = 12 */
(PID.TID 0000.0001)                 6.250000000000000E+04,      /* J = 13 */
(PID.TID 0000.0001)                 6.750000000000000E+04,      /* J = 14 */
(PID.TID 0000.0001)                 7.250000000000000E+04,      /* J = 15 */
(PID.TID 0000.0001)                 7.750000000000000E+04,      /* J = 16 */
(PID.TID 0000.0001)                 8.250000000000000E+04,      /* J = 17 */
(PID.TID 0000.0001)                 8.750000000000000E+04,      /* J = 18 */
(PID.TID 0000.0001)                 9.250000000000000E+04,      /* J = 19 */
(PID.TID 0000.0001)                 9.750000000000000E+04,      /* J = 20 */
(PID.TID 0000.0001)                 1.025000000000000E+05,      /* J = 21 */
(PID.TID 0000.0001)                 1.075000000000000E+05,      /* J = 22 */
(PID.TID 0000.0001)                 1.125000000000000E+05,      /* J = 23 */
(PID.TID 0000.0001)                 1.175000000000000E+05,      /* J = 24 */
(PID.TID 0000.0001)                 1.225000000000000E+05,      /* J = 25 */
(PID.TID 0000.0001)                 1.275000000000000E+05,      /* J = 26 */
(PID.TID 0000.0001)                 1.325000000000000E+05,      /* J = 27 */
(PID.TID 0000.0001)                 1.375000000000000E+05,      /* J = 28 */
(PID.TID 0000.0001)                 1.425000000000000E+05,      /* J = 29 */
(PID.TID 0000.0001)                 1.475000000000000E+05,      /* J = 30 */
(PID.TID 0000.0001)                 1.525000000000000E+05,      /* J = 31 */
(PID.TID 0000.0001)                 1.575000000000000E+05,      /* J = 32 */
(PID.TID 0000.0001)                 1.625000000000000E+05,      /* J = 33 */
(PID.TID 0000.0001)                 1.675000000000000E+05,      /* J = 34 */
(PID.TID 0000.0001)                 1.725000000000000E+05,      /* J = 35 */
(PID.TID 0000.0001)                 1.775000000000000E+05,      /* J = 36 */
(PID.TID 0000.0001)                 1.825000000000000E+05,      /* J = 37 */
(PID.TID 0000.0001)                 1.875000000000000E+05,      /* J = 38 */
(PID.TID 0000.0001)                 1.925000000000000E+05,      /* J = 39 */
(PID.TID 0000.0001)                 1.975000000000000E+05,      /* J = 40 */
(PID.TID 0000.0001)                 2.025000000000000E+05,      /* J = 41 */
(PID.TID 0000.0001)                 2.075000000000000E+05       /* J = 42 */
(PID.TID 0000.0001)     ;
(PID.TID 0000.0001) rcoord =   /* P-point R coordinate (  units of r ) */
(PID.TID 0000.0001)                -2.812500000000000E+02,      /* K =  1 */
(PID.TID 0000.0001)                -8.437500000000000E+02,      /* K =  2 */
(PID.TID 0000.0001)                -1.406250000000000E+03,      /* K =  3 */
(PID.TID 0000.0001)                -1.968750000000000E+03,      /* K =  4 */
(PID.TID 0000.0001)                -2.531250000000000E+03,      /* K =  5 */
(PID.TID 0000.0001)                -3.093750000000000E+03,      /* K =  6 */
(PID.TID 0000.0001)                -3.656250000000000E+03,      /* K =  7 */
(PID.TID 0000.0001)                -4.218750000000000E+03       /* K =  8 */
(PID.TID 0000.0001)     ;
(PID.TID 0000.0001) rF =   /* W-Interf. R coordinate (  units of r ) */
(PID.TID 0000.0001)                 0.000000000000000E+00,      /* K =  1 */
(PID.TID 0000.0001)                -5.625000000000000E+02,      /* K =  2 */
(PID.TID 0000.0001)                -1.125000000000000E+03,      /* K =  3 */
(PID.TID 0000.0001)                -1.687500000000000E+03,      /* K =  4 */
(PID.TID 0000.0001)                -2.250000000000000E+03,      /* K =  5 */
(PID.TID 0000.0001)                -2.812500000000000E+03,      /* K =  6 */
(PID.TID 0000.0001)                -3.375000000000000E+03,      /* K =  7 */
(PID.TID 0000.0001)                -3.937500000000000E+03,      /* K =  8 */
(PID.TID 0000.0001)                -4.500000000000000E+03       /* K =  9 */
(PID.TID 0000.0001)     ;
(PID.TID 0000.0001) dxF =  /* dxF(:,1,:,1) ( m - cartesian, degrees - spherical ) */
(PID.TID 0000.0001)    80 @  5.000000000000000E+03              /* I =  1: 80 */
(PID.TID 0000.0001)     ;
(PID.TID 0000.0001) dxF =  /* dxF(1,:,1,:) ( m - cartesian, degrees - spherical ) */
(PID.TID 0000.0001)    42 @  5.000000000000000E+03              /* J =  1: 42 */
(PID.TID 0000.0001)     ;
(PID.TID 0000.0001) dyF =  /* dyF(:,1,:,1) ( m - cartesian, degrees - spherical ) */
(PID.TID 0000.0001)    80 @  5.000000000000000E+03              /* I =  1: 80 */
(PID.TID 0000.0001)     ;
(PID.TID 0000.0001) dyF =  /* dyF(1,:,1,:) ( m - cartesian, degrees - spherical ) */
(PID.TID 0000.0001)    42 @  5.000000000000000E+03              /* J =  1: 42 */
(PID.TID 0000.0001)     ;
(PID.TID 0000.0001) dxG =  /* dxG(:,1,:,1) ( m - cartesian, degrees - spherical ) */
(PID.TID 0000.0001)    80 @  5.000000000000000E+03              /* I =  1: 80 */
(PID.TID 0000.0001)     ;
(PID.TID 0000.0001) dxG =  /* dxG(1,:,1,:) ( m - cartesian, degrees - spherical ) */
(PID.TID 0000.0001)    42 @  5.000000000000000E+03              /* J =  1: 42 */
(PID.TID 0000.0001)     ;
(PID.TID 0000.0001) dyG =  /* dyG(:,1,:,1) ( m - cartesian, degrees - spherical ) */
(PID.TID 0000.0001)    80 @  5.000000000000000E+03              /* I =  1: 80 */
(PID.TID 0000.0001)     ;
(PID.TID 0000.0001) dyG =  /* dyG(1,:,1,:) ( m - cartesian, degrees - spherical ) */
(PID.TID 0000.0001)    42 @  5.000000000000000E+03              /* J =  1: 42 */
(PID.TID 0000.0001)     ;
(PID.TID 0000.0001) dxC =  /* dxC(:,1,:,1) ( m - cartesian, degrees - spherical ) */
(PID.TID 0000.0001)    80 @  5.000000000000000E+03              /* I =  1: 80 */
(PID.TID 0000.0001)     ;
(PID.TID 0000.0001) dxC =  /* dxC(1,:,1,:) ( m - cartesian, degrees - spherical ) */
(PID.TID 0000.0001)    42 @  5.000000000000000E+03              /* J =  1: 42 */
(PID.TID 0000.0001)     ;
(PID.TID 0000.0001) dyC =  /* dyC(:,1,:,1) ( m - cartesian, degrees - spherical ) */
(PID.TID 0000.0001)    80 @  5.000000000000000E+03              /* I =  1: 80 */
(PID.TID 0000.0001)     ;
(PID.TID 0000.0001) dyC =  /* dyC(1,:,1,:) ( m - cartesian, degrees - spherical ) */
(PID.TID 0000.0001)    42 @  5.000000000000000E+03              /* J =  1: 42 */
(PID.TID 0000.0001)     ;
(PID.TID 0000.0001) dxV =  /* dxV(:,1,:,1) ( m - cartesian, degrees - spherical ) */
(PID.TID 0000.0001)    80 @  5.000000000000000E+03              /* I =  1: 80 */
(PID.TID 0000.0001)     ;
(PID.TID 0000.0001) dxV =  /* dxV(1,:,1,:) ( m - cartesian, degrees - spherical ) */
(PID.TID 0000.0001)    42 @  5.000000000000000E+03              /* J =  1: 42 */
(PID.TID 0000.0001)     ;
(PID.TID 0000.0001) dyU =  /* dyU(:,1,:,1) ( m - cartesian, degrees - spherical ) */
(PID.TID 0000.0001)    80 @  5.000000000000000E+03              /* I =  1: 80 */
(PID.TID 0000.0001)     ;
(PID.TID 0000.0001) dyU =  /* dyU(1,:,1,:) ( m - cartesian, degrees - spherical ) */
(PID.TID 0000.0001)    42 @  5.000000000000000E+03              /* J =  1: 42 */
(PID.TID 0000.0001)     ;
(PID.TID 0000.0001) rA =  /* rA(:,1,:,1) ( m - cartesian, degrees - spherical ) */
(PID.TID 0000.0001)    80 @  2.500000000000000E+07              /* I =  1: 80 */
(PID.TID 0000.0001)     ;
(PID.TID 0000.0001) rA =  /* rA(1,:,1,:) ( m - cartesian, degrees - spherical ) */
(PID.TID 0000.0001)    42 @  2.500000000000000E+07              /* J =  1: 42 */
(PID.TID 0000.0001)     ;
(PID.TID 0000.0001) rAw =  /* rAw(:,1,:,1) ( m - cartesian, degrees - spherical ) */
(PID.TID 0000.0001)    80 @  2.500000000000000E+07              /* I =  1: 80 */
(PID.TID 0000.0001)     ;
(PID.TID 0000.0001) rAw =  /* rAw(1,:,1,:) ( m - cartesian, degrees - spherical ) */
(PID.TID 0000.0001)    42 @  2.500000000000000E+07              /* J =  1: 42 */
(PID.TID 0000.0001)     ;
(PID.TID 0000.0001) rAs =  /* rAs(:,1,:,1) ( m - cartesian, degrees - spherical ) */
(PID.TID 0000.0001)    80 @  2.500000000000000E+07              /* I =  1: 80 */
(PID.TID 0000.0001)     ;
(PID.TID 0000.0001) rAs =  /* rAs(1,:,1,:) ( m - cartesian, degrees - spherical ) */
(PID.TID 0000.0001)    42 @  2.500000000000000E+07              /* J =  1: 42 */
(PID.TID 0000.0001)     ;
(PID.TID 0000.0001) 
(PID.TID 0000.0001) // =======================================================
(PID.TID 0000.0001) // Field Initial Temperature at iteration          1
(PID.TID 0000.0001) // CMIN =          6.968340000000000E-01
(PID.TID 0000.0001) // CMAX =          6.968340000000000E-01
(PID.TID 0000.0001) // CINT =          0.000000000000000E+00
(PID.TID 0000.0001) // SYMBOLS (CMIN->CMAX): -abcdefghijklmnopqrstuvwxyz+
(PID.TID 0000.0001) //                  0.0: .
(PID.TID 0000.0001) // RANGE I (Lo:Hi:Step):(   1:  80:   1)
(PID.TID 0000.0001) // RANGE J (Lo:Hi:Step):(  42:   1:  -1)
(PID.TID 0000.0001) // RANGE K (Lo:Hi:Step):(   1:   1:   1)
(PID.TID 0000.0001) // =======================================================
(PID.TID 0000.0001) // =======================================================
(PID.TID 0000.0001) // END OF FIELD                                          =
(PID.TID 0000.0001) // =======================================================
(PID.TID 0000.0001) 
(PID.TID 0000.0001)  MDSREADFIELD: opening global file: S.init
(PID.TID 0000.0001) // =======================================================
(PID.TID 0000.0001) // Field Initial Salinity at iteration          1
(PID.TID 0000.0001) // CMIN =          3.500000000000000E+01
(PID.TID 0000.0001) // CMAX =          3.500000000000000E+01
(PID.TID 0000.0001) // CINT =          0.000000000000000E+00
(PID.TID 0000.0001) // SYMBOLS (CMIN->CMAX): -abcdefghijklmnopqrstuvwxyz+
(PID.TID 0000.0001) //                  0.0: .
(PID.TID 0000.0001) // RANGE I (Lo:Hi:Step):(   1:  80:   1)
(PID.TID 0000.0001) // RANGE J (Lo:Hi:Step):(  42:   1:  -1)
(PID.TID 0000.0001) // RANGE K (Lo:Hi:Step):(   1:   1:   1)
(PID.TID 0000.0001) // =======================================================
(PID.TID 0000.0001) // =======================================================
(PID.TID 0000.0001) // END OF FIELD                                          =
(PID.TID 0000.0001) // =======================================================
(PID.TID 0000.0001) 
(PID.TID 0000.0001) Start initial hydrostatic pressure computation
(PID.TID 0000.0001) Pressure is predetermined for buoyancyRelation OCEANIC
(PID.TID 0000.0001) 
(PID.TID 0000.0001)  MDSREADFIELD: opening global file: S.init
(PID.TID 0000.0001)  OBCS_EXTERNAL_FIELDS_LOAD: Reading new data:         0  0.000000000000E+00
(PID.TID 0000.0001)  MDSREADFIELDYZ: opening global file: OBzonalU.bin
(PID.TID 0000.0001)  MDSREADFIELDYZ: opening global file: OBzonalU.bin
(PID.TID 0000.0001)  MDSREADFIELDYZ: opening global file: OBzonalS.bin
(PID.TID 0000.0001)  MDSREADFIELDXZ: opening global file: OBmeridU.bin
(PID.TID 0000.0001)  MDSREADFIELDXZ: opening global file: OBmeridU.bin
(PID.TID 0000.0001)  MDSREADFIELDYZ: opening global file: OBzonalS.bin
(PID.TID 0000.0001)  OBCS_EXTERNAL_FIELDS_LOAD: Reading new data:         0  0.000000000000E+00
(PID.TID 0000.0001)  MDSREADFIELDYZ: opening global file: OBzonalU.bin
(PID.TID 0000.0001)  MDSREADFIELDYZ: opening global file: OBzonalU.bin
(PID.TID 0000.0001)  MDSREADFIELDYZ: opening global file: OBzonalS.bin
(PID.TID 0000.0001)  MDSREADFIELDXZ: opening global file: OBmeridU.bin
(PID.TID 0000.0001)  MDSREADFIELDXZ: opening global file: OBmeridU.bin
(PID.TID 0000.0001)  MDSREADFIELDYZ: opening global file: OBzonalS.bin
(PID.TID 0000.0001) // =======================================================
(PID.TID 0000.0001) // Model current state
(PID.TID 0000.0001) // =======================================================
(PID.TID 0000.0001) 
(PID.TID 0000.0001) // =======================================================
(PID.TID 0000.0001) // Begin MONITOR dynamic field statistics
(PID.TID 0000.0001) // =======================================================
(PID.TID 0000.0001) %MON time_tsnumber                =                     0
(PID.TID 0000.0001) %MON time_secondsf                =   0.0000000000000E+00
(PID.TID 0000.0001) %MON dynstat_eta_max              =   0.0000000000000E+00
(PID.TID 0000.0001) %MON dynstat_eta_min              =   0.0000000000000E+00
(PID.TID 0000.0001) %MON dynstat_eta_mean             =   0.0000000000000E+00
(PID.TID 0000.0001) %MON dynstat_eta_sd               =   0.0000000000000E+00
(PID.TID 0000.0001) %MON dynstat_eta_del2             =   0.0000000000000E+00
(PID.TID 0000.0001) %MON dynstat_uvel_max             =   2.5000000000000E-01
(PID.TID 0000.0001) %MON dynstat_uvel_min             =   0.0000000000000E+00
(PID.TID 0000.0001) %MON dynstat_uvel_mean            =   2.1825648779612E-02
(PID.TID 0000.0001) %MON dynstat_uvel_sd              =   7.0569492347988E-02
(PID.TID 0000.0001) %MON dynstat_uvel_del2            =   9.0270812437312E-03
(PID.TID 0000.0001) %MON dynstat_vvel_max             =   0.0000000000000E+00
(PID.TID 0000.0001) %MON dynstat_vvel_min             =   0.0000000000000E+00
(PID.TID 0000.0001) %MON dynstat_vvel_mean            =   0.0000000000000E+00
(PID.TID 0000.0001) %MON dynstat_vvel_sd              =   0.0000000000000E+00
(PID.TID 0000.0001) %MON dynstat_vvel_del2            =   0.0000000000000E+00
(PID.TID 0000.0001) %MON dynstat_wvel_max             =   2.2500000000000E-01
(PID.TID 0000.0001) %MON dynstat_wvel_min             =  -2.2500000000000E-01
(PID.TID 0000.0001) %MON dynstat_wvel_mean            =   0.0000000000000E+00
(PID.TID 0000.0001) %MON dynstat_wvel_sd              =   2.1155337727580E-02
(PID.TID 0000.0001) %MON dynstat_wvel_del2            =   3.1932980617013E-03
(PID.TID 0000.0001) %MON dynstat_theta_max            =   6.9683400000000E-01
(PID.TID 0000.0001) %MON dynstat_theta_min            =  -6.9683400000000E-01
(PID.TID 0000.0001) %MON dynstat_theta_mean           =   1.8778127528405E-02
(PID.TID 0000.0001) %MON dynstat_theta_sd             =   4.5245485394767E-01
(PID.TID 0000.0001) %MON dynstat_theta_del2           =   0.0000000000000E+00
(PID.TID 0000.0001) %MON dynstat_salt_max             =   3.6000000000000E+01
(PID.TID 0000.0001) %MON dynstat_salt_min             =   3.5000000000000E+01
(PID.TID 0000.0001) %MON dynstat_salt_mean            =   3.5013049937053E+01
(PID.TID 0000.0001) %MON dynstat_salt_sd              =   1.1348848485877E-01
(PID.TID 0000.0001) %MON dynstat_salt_del2            =   1.2923076923077E-02
(PID.TID 0000.0001) %MON advcfl_uvel_max              =   3.0000000000000E-02
(PID.TID 0000.0001) %MON advcfl_vvel_max              =   0.0000000000000E+00
(PID.TID 0000.0001) %MON advcfl_wvel_max              =   4.8000000000000E-01
(PID.TID 0000.0001) %MON advcfl_W_hf_max              =   4.2000000000000E-01
(PID.TID 0000.0001) %MON pe_b_mean                    =   0.0000000000000E+00
(PID.TID 0000.0001) %MON ke_max                       =   3.1250000000000E-02
(PID.TID 0000.0001) %MON ke_mean                      =   2.7186839835992E-03
(PID.TID 0000.0001) %MON ke_vol                       =   3.6207071198500E+14
(PID.TID 0000.0001) %MON vort_r_min                   =  -5.0000000000000E-05
(PID.TID 0000.0001) %MON vort_r_max                   =   5.0000000000000E-05
(PID.TID 0000.0001) %MON vort_a_mean                  =   1.0000000000000E-04
(PID.TID 0000.0001) %MON vort_a_sd                    =   1.0868756421277E-05
(PID.TID 0000.0001) %MON vort_p_mean                  =   1.0161982423688E-04
(PID.TID 0000.0001) %MON vort_p_sd                    =   3.1004324650514E-05
(PID.TID 0000.0001) %MON surfExpan_theta_mean         =   3.5478955223447E-19
(PID.TID 0000.0001) %MON surfExpan_salt_mean          =   1.0217939104353E-16
(PID.TID 0000.0001) // =======================================================
(PID.TID 0000.0001) // End MONITOR dynamic field statistics
(PID.TID 0000.0001) // =======================================================
(PID.TID 0000.0001) // =======================================================
(PID.TID 0000.0001) // Begin MONITOR ptracer field statistics
(PID.TID 0000.0001) // =======================================================
(PID.TID 0000.0001) %MON trcstat_ptracer01_max        =   3.6000000000000E+01
(PID.TID 0000.0001) %MON trcstat_ptracer01_min        =   3.5000000000000E+01
(PID.TID 0000.0001) %MON trcstat_ptracer01_mean       =   3.5013049937053E+01
(PID.TID 0000.0001) %MON trcstat_ptracer01_sd         =   1.1348848485877E-01
(PID.TID 0000.0001) %MON trcstat_ptracer01_del2       =   1.5230769230769E-02
(PID.TID 0000.0001) // =======================================================
(PID.TID 0000.0001) // End MONITOR ptracers field statistics
(PID.TID 0000.0001) // =======================================================
 cg2d: Sum(rhs),rhsMax =   4.26325641456060E-14  2.06145833333333E+00
(PID.TID 0000.0001)                    cg2d_init_res =    8.81492288299895E+00
(PID.TID 0000.0001)                       cg2d_iters =   176
(PID.TID 0000.0001)                         cg2d_res =    7.22241836123685E-14
(PID.TID 0000.0001) // =======================================================
(PID.TID 0000.0001) // Begin MONITOR dynamic field statistics
(PID.TID 0000.0001) // =======================================================
(PID.TID 0000.0001) %MON time_tsnumber                =                     1
(PID.TID 0000.0001) %MON time_secondsf                =   6.0000000000000E+02
(PID.TID 0000.0001) %MON dynstat_eta_max              =   4.8714038386278E+00
(PID.TID 0000.0001) %MON dynstat_eta_min              =  -4.8744533900604E+00
(PID.TID 0000.0001) %MON dynstat_eta_mean             =   3.6375661375661E-15
(PID.TID 0000.0001) %MON dynstat_eta_sd               =   2.4626577915159E+00
(PID.TID 0000.0001) %MON dynstat_eta_del2             =   1.0947457894179E-01
(PID.TID 0000.0001) %MON dynstat_uvel_max             =   2.5000000000000E-01
(PID.TID 0000.0001) %MON dynstat_uvel_min             =   9.2586296842777E-02
(PID.TID 0000.0001) %MON dynstat_uvel_mean            =   1.5853994628112E-01
(PID.TID 0000.0001) %MON dynstat_uvel_sd              =   4.7369898536763E-02
(PID.TID 0000.0001) %MON dynstat_uvel_del2            =   2.4418104722895E-03
(PID.TID 0000.0001) %MON dynstat_vvel_max             =   3.1998870575202E-02
(PID.TID 0000.0001) %MON dynstat_vvel_min             =  -3.1867303003547E-02
(PID.TID 0000.0001) %MON dynstat_vvel_mean            =  -3.2020103151844E-05
(PID.TID 0000.0001) %MON dynstat_vvel_sd              =   6.7730131348955E-03
(PID.TID 0000.0001) %MON dynstat_vvel_del2            =   2.2675015184442E-04
(PID.TID 0000.0001) %MON dynstat_wvel_max             =   2.2495491745397E-01
(PID.TID 0000.0001) %MON dynstat_wvel_min             =  -8.9596601246246E-03
(PID.TID 0000.0001) %MON dynstat_wvel_mean            =   7.3985352048098E-05
(PID.TID 0000.0001) %MON dynstat_wvel_sd              =   4.2707514721970E-03
(PID.TID 0000.0001) %MON dynstat_wvel_del2            =   2.4398843935112E-04
(PID.TID 0000.0001) %MON dynstat_theta_max            =   7.1773907622455E-01
(PID.TID 0000.0001) %MON dynstat_theta_min            =  -6.9982043622455E-01
(PID.TID 0000.0001) %MON dynstat_theta_mean           =   1.8778127528408E-02
(PID.TID 0000.0001) %MON dynstat_theta_sd             =   4.5247028672174E-01
(PID.TID 0000.0001) %MON dynstat_theta_del2           =   5.2744980634874E-04
(PID.TID 0000.0001) %MON dynstat_salt_max             =   3.6000000000000E+01
(PID.TID 0000.0001) %MON dynstat_salt_min             =   3.5000000000000E+01
(PID.TID 0000.0001) %MON dynstat_salt_mean            =   3.5013534649001E+01
(PID.TID 0000.0001) %MON dynstat_salt_sd              =   1.1351499502275E-01
(PID.TID 0000.0001) %MON dynstat_salt_del2            =   1.2683076923077E-02
(PID.TID 0000.0001) %MON advcfl_uvel_max              =   3.0000000000000E-02
(PID.TID 0000.0001) %MON advcfl_vvel_max              =   3.8398644690242E-03
(PID.TID 0000.0001) %MON advcfl_wvel_max              =   4.7990382390181E-01
(PID.TID 0000.0001) %MON advcfl_W_hf_max              =   4.1990382390181E-01
(PID.TID 0000.0001) %MON pe_b_mean                    =   6.9013338305983E-03
(PID.TID 0000.0001) %MON ke_max                       =   3.1250000000000E-02
(PID.TID 0000.0001) %MON ke_mean                      =   1.3664488823088E-02
(PID.TID 0000.0001) %MON ke_vol                       =   3.6207071198500E+14
(PID.TID 0000.0001) %MON vort_r_min                   =  -4.5844783447769E-05
(PID.TID 0000.0001) %MON vort_r_max                   =   4.5844735570116E-05
(PID.TID 0000.0001) %MON vort_a_mean                  =   1.0000000000000E-04
(PID.TID 0000.0001) %MON vort_a_sd                    =   5.1000172208707E-06
(PID.TID 0000.0001) %MON vort_p_mean                  =   1.0161982423688E-04
(PID.TID 0000.0001) %MON vort_p_sd                    =   3.0227297891748E-05
(PID.TID 0000.0001) %MON surfExpan_theta_mean         =   8.9268813148422E-05
(PID.TID 0000.0001) %MON surfExpan_salt_mean          =   4.6903266348515E-03
(PID.TID 0000.0001) // =======================================================
(PID.TID 0000.0001) // End MONITOR dynamic field statistics
(PID.TID 0000.0001) // =======================================================
(PID.TID 0000.0001) // =======================================================
(PID.TID 0000.0001) // Begin MONITOR ptracer field statistics
(PID.TID 0000.0001) // =======================================================
(PID.TID 0000.0001) %MON trcstat_ptracer01_max        =   3.6000000000000E+01
(PID.TID 0000.0001) %MON trcstat_ptracer01_min        =   3.5000000000000E+01
(PID.TID 0000.0001) %MON trcstat_ptracer01_mean       =   3.5013534649001E+01
(PID.TID 0000.0001) %MON trcstat_ptracer01_sd         =   1.1351499502275E-01
(PID.TID 0000.0001) %MON trcstat_ptracer01_del2       =   1.2683076923077E-02
(PID.TID 0000.0001) // =======================================================
(PID.TID 0000.0001) // End MONITOR ptracers field statistics
(PID.TID 0000.0001) // =======================================================
 cg2d: Sum(rhs),rhsMax =  -2.27373675443232E-13  4.95862020595874E-01
(PID.TID 0000.0001)                    cg2d_init_res =    3.79130624036460E+01
(PID.TID 0000.0001)                       cg2d_iters =   199
(PID.TID 0000.0001)                         cg2d_res =    8.11821735896317E-14
(PID.TID 0000.0001) // =======================================================
(PID.TID 0000.0001) // Begin MONITOR dynamic field statistics
(PID.TID 0000.0001) // =======================================================
(PID.TID 0000.0001) %MON time_tsnumber                =                     2
(PID.TID 0000.0001) %MON time_secondsf                =   1.2000000000000E+03
(PID.TID 0000.0001) %MON dynstat_eta_max              =   4.0124934188894E+00
(PID.TID 0000.0001) %MON dynstat_eta_min              =  -4.0168011873291E+00
(PID.TID 0000.0001) %MON dynstat_eta_mean             =   5.1256613756614E-15
(PID.TID 0000.0001) %MON dynstat_eta_sd               =   2.5290284806204E+00
(PID.TID 0000.0001) %MON dynstat_eta_del2             =   9.9957437697606E-02
(PID.TID 0000.0001) %MON dynstat_uvel_max             =   5.7313017917133E-01
(PID.TID 0000.0001) %MON dynstat_uvel_min             =   2.0735309651536E-01
(PID.TID 0000.0001) %MON dynstat_uvel_mean            =   2.5966418514786E-01
(PID.TID 0000.0001) %MON dynstat_uvel_sd              =   2.4578611242987E-02
(PID.TID 0000.0001) %MON dynstat_uvel_del2            =   1.0455152302280E-03
(PID.TID 0000.0001) %MON dynstat_vvel_max             =   8.0321727366126E-02
(PID.TID 0000.0001) %MON dynstat_vvel_min             =  -9.0851222666966E-02
(PID.TID 0000.0001) %MON dynstat_vvel_mean            =  -2.2435938931478E-03
(PID.TID 0000.0001) %MON dynstat_vvel_sd              =   1.7530510243420E-02
(PID.TID 0000.0001) %MON dynstat_vvel_del2            =   3.0509178464318E-04
(PID.TID 0000.0001) %MON dynstat_wvel_max             =   2.2495491745397E-01
(PID.TID 0000.0001) %MON dynstat_wvel_min             =  -2.0792617324283E-02
(PID.TID 0000.0001) %MON dynstat_wvel_mean            =   7.3985352048091E-05
(PID.TID 0000.0001) %MON dynstat_wvel_sd              =   3.9543346879292E-03
(PID.TID 0000.0001) %MON dynstat_wvel_del2            =   3.3703614945955E-04
(PID.TID 0000.0001) %MON dynstat_theta_max            =   7.0470803591881E-01
(PID.TID 0000.0001) %MON dynstat_theta_min            =  -6.9887711116000E-01
(PID.TID 0000.0001) %MON dynstat_theta_mean           =   1.8766555694517E-02
(PID.TID 0000.0001) %MON dynstat_theta_sd             =   4.5245235475364E-01
(PID.TID 0000.0001) %MON dynstat_theta_del2           =   1.9756939370623E-04
(PID.TID 0000.0001) %MON dynstat_salt_max             =   3.6000000000000E+01
(PID.TID 0000.0001) %MON dynstat_salt_min             =   3.5000000000000E+01
(PID.TID 0000.0001) %MON dynstat_salt_mean            =   3.5014010611722E+01
(PID.TID 0000.0001) %MON dynstat_salt_sd              =   1.1368126342022E-01
(PID.TID 0000.0001) %MON dynstat_salt_del2            =   1.2462177366504E-02
(PID.TID 0000.0001) %MON advcfl_uvel_max              =   6.8775621500560E-02
(PID.TID 0000.0001) %MON advcfl_vvel_max              =   1.0902146720036E-02
(PID.TID 0000.0001) %MON advcfl_wvel_max              =   4.7990382390181E-01
(PID.TID 0000.0001) %MON advcfl_W_hf_max              =   4.1990382390181E-01
(PID.TID 0000.0001) %MON pe_b_mean                    =   7.2783400464476E-03
(PID.TID 0000.0001) %MON ke_max                       =   1.6012182768344E-01
(PID.TID 0000.0001) %MON ke_mean                      =   3.4051709798160E-02
(PID.TID 0000.0001) %MON ke_vol                       =   3.6207071198500E+14
(PID.TID 0000.0001) %MON vort_r_min                   =  -1.1974353156538E-04
(PID.TID 0000.0001) %MON vort_r_max                   =   1.1965913460378E-04
(PID.TID 0000.0001) %MON vort_a_mean                  =   1.0000000000000E-04
(PID.TID 0000.0001) %MON vort_a_sd                    =   6.1520800764052E-06
(PID.TID 0000.0001) %MON vort_p_mean                  =   1.0161982423688E-04
(PID.TID 0000.0001) %MON vort_p_sd                    =   3.4135645811732E-05
(PID.TID 0000.0001) %MON surfExpan_theta_mean         =   9.3595443008590E-05
(PID.TID 0000.0001) %MON surfExpan_salt_mean          =   4.6848758064809E-03
(PID.TID 0000.0001) // =======================================================
(PID.TID 0000.0001) // End MONITOR dynamic field statistics
(PID.TID 0000.0001) // =======================================================
(PID.TID 0000.0001) // =======================================================
(PID.TID 0000.0001) // Begin MONITOR ptracer field statistics
(PID.TID 0000.0001) // =======================================================
(PID.TID 0000.0001) %MON trcstat_ptracer01_max        =   3.6000000000000E+01
(PID.TID 0000.0001) %MON trcstat_ptracer01_min        =   3.5000000000000E+01
(PID.TID 0000.0001) %MON trcstat_ptracer01_mean       =   3.5014034847320E+01
(PID.TID 0000.0001) %MON trcstat_ptracer01_sd         =   1.1368243110815E-01
(PID.TID 0000.0001) %MON trcstat_ptracer01_del2       =   1.2450177366504E-02
(PID.TID 0000.0001) // =======================================================
(PID.TID 0000.0001) // End MONITOR ptracers field statistics
(PID.TID 0000.0001) // =======================================================
 cg2d: Sum(rhs),rhsMax =  -1.02318153949454E-12  2.26311399847253E-01
(PID.TID 0000.0001)                    cg2d_init_res =    1.45124280389667E+01
(PID.TID 0000.0001)                       cg2d_iters =   202
(PID.TID 0000.0001)                         cg2d_res =    7.25492718464622E-14
(PID.TID 0000.0001) // =======================================================
(PID.TID 0000.0001) // Begin MONITOR dynamic field statistics
(PID.TID 0000.0001) // =======================================================
(PID.TID 0000.0001) %MON time_tsnumber                =                     3
(PID.TID 0000.0001) %MON time_secondsf                =   1.8000000000000E+03
(PID.TID 0000.0001) %MON dynstat_eta_max              =   2.2437871914519E+00
(PID.TID 0000.0001) %MON dynstat_eta_min              =  -2.2413534500603E+00
(PID.TID 0000.0001) %MON dynstat_eta_mean             =  -4.6296296296296E-15
(PID.TID 0000.0001) %MON dynstat_eta_sd               =   1.4072441200012E+00
(PID.TID 0000.0001) %MON dynstat_eta_del2             =   5.4391929644829E-02
(PID.TID 0000.0001) %MON dynstat_uvel_max             =   7.9934615405356E-01
(PID.TID 0000.0001) %MON dynstat_uvel_min             =   2.3509710360652E-01
(PID.TID 0000.0001) %MON dynstat_uvel_mean            =   3.0977329624619E-01
(PID.TID 0000.0001) %MON dynstat_uvel_sd              =   5.5572381451430E-02
(PID.TID 0000.0001) %MON dynstat_uvel_del2            =   2.3528320492267E-03
(PID.TID 0000.0001) %MON dynstat_vvel_max             =   1.1181784340726E-01
(PID.TID 0000.0001) %MON dynstat_vvel_min             =  -1.4228891775796E-01
(PID.TID 0000.0001) %MON dynstat_vvel_mean            =  -1.7448186890254E-03
(PID.TID 0000.0001) %MON dynstat_vvel_sd              =   2.4573987379701E-02
(PID.TID 0000.0001) %MON dynstat_vvel_del2            =   3.2762882443516E-04
(PID.TID 0000.0001) %MON dynstat_wvel_max             =   2.2495491745397E-01
(PID.TID 0000.0001) %MON dynstat_wvel_min             =  -2.7525820126288E-02
(PID.TID 0000.0001) %MON dynstat_wvel_mean            =   7.3985352048091E-05
(PID.TID 0000.0001) %MON dynstat_wvel_sd              =   4.3272703146454E-03
(PID.TID 0000.0001) %MON dynstat_wvel_del2            =   3.4317598734710E-04
(PID.TID 0000.0001) %MON dynstat_theta_max            =   7.0380587454096E-01
(PID.TID 0000.0001) %MON dynstat_theta_min            =  -7.0294286478423E-01
(PID.TID 0000.0001) %MON dynstat_theta_mean           =   1.8766109797516E-02
(PID.TID 0000.0001) %MON dynstat_theta_sd             =   4.5245215424350E-01
(PID.TID 0000.0001) %MON dynstat_theta_del2           =   1.7306041340156E-04
(PID.TID 0000.0001) %MON dynstat_salt_max             =   3.6000000000000E+01
(PID.TID 0000.0001) %MON dynstat_salt_min             =   3.5000000000000E+01
(PID.TID 0000.0001) %MON dynstat_salt_mean            =   3.5014483764603E+01
(PID.TID 0000.0001) %MON dynstat_salt_sd              =   1.1396868591999E-01
(PID.TID 0000.0001) %MON dynstat_salt_del2            =   1.2250979684633E-02
(PID.TID 0000.0001) %MON advcfl_uvel_max              =   9.5921538486427E-02
(PID.TID 0000.0001) %MON advcfl_vvel_max              =   1.7074670130955E-02
(PID.TID 0000.0001) %MON advcfl_wvel_max              =   4.7990382390181E-01
(PID.TID 0000.0001) %MON advcfl_W_hf_max              =   4.1990382390181E-01
(PID.TID 0000.0001) %MON pe_b_mean                    =   2.2535322995819E-03
(PID.TID 0000.0001) %MON ke_max                       =   3.1320174675864E-01
(PID.TID 0000.0001) %MON ke_mean                      =   4.9653445369281E-02
(PID.TID 0000.0001) %MON ke_vol                       =   3.6207071198500E+14
(PID.TID 0000.0001) %MON vort_r_min                   =  -1.7127566352582E-04
(PID.TID 0000.0001) %MON vort_r_max                   =   1.7053225926169E-04
(PID.TID 0000.0001) %MON vort_a_mean                  =   1.0000000000000E-04
(PID.TID 0000.0001) %MON vort_a_sd                    =   9.1633203141908E-06
(PID.TID 0000.0001) %MON vort_p_mean                  =   1.0161982423688E-04
(PID.TID 0000.0001) %MON vort_p_sd                    =   3.8288966393148E-05
(PID.TID 0000.0001) %MON surfExpan_theta_mean         =   9.4645270452079E-05
(PID.TID 0000.0001) %MON surfExpan_salt_mean          =   4.6823807129259E-03
(PID.TID 0000.0001) // =======================================================
(PID.TID 0000.0001) // End MONITOR dynamic field statistics
(PID.TID 0000.0001) // =======================================================
(PID.TID 0000.0001) // =======================================================
(PID.TID 0000.0001) // Begin MONITOR ptracer field statistics
(PID.TID 0000.0001) // =======================================================
(PID.TID 0000.0001) %MON trcstat_ptracer01_max        =   3.6000000000000E+01
(PID.TID 0000.0001) %MON trcstat_ptracer01_min        =   3.5000000000000E+01
(PID.TID 0000.0001) %MON trcstat_ptracer01_mean       =   3.5014531859063E+01
(PID.TID 0000.0001) %MON trcstat_ptracer01_sd         =   1.1397817149093E-01
(PID.TID 0000.0001) %MON trcstat_ptracer01_del2       =   1.2227908152895E-02
(PID.TID 0000.0001) // =======================================================
(PID.TID 0000.0001) // End MONITOR ptracers field statistics
(PID.TID 0000.0001) // =======================================================
 cg2d: Sum(rhs),rhsMax =   7.24753590475302E-13  2.39601045148726E-01
(PID.TID 0000.0001)                    cg2d_init_res =    9.18633293231247E+00
(PID.TID 0000.0001)                       cg2d_iters =   199
(PID.TID 0000.0001)                         cg2d_res =    9.64363538437558E-14
(PID.TID 0000.0001) // =======================================================
(PID.TID 0000.0001) // Begin MONITOR dynamic field statistics
(PID.TID 0000.0001) // =======================================================
(PID.TID 0000.0001) %MON time_tsnumber                =                     4
(PID.TID 0000.0001) %MON time_secondsf                =   2.4000000000000E+03
(PID.TID 0000.0001) %MON dynstat_eta_max              =   5.3296066014211E-01
(PID.TID 0000.0001) %MON dynstat_eta_min              =  -5.3202361345845E-01
(PID.TID 0000.0001) %MON dynstat_eta_mean             =  -3.5548941798942E-15
(PID.TID 0000.0001) %MON dynstat_eta_sd               =   2.5347734678718E-01
(PID.TID 0000.0001) %MON dynstat_eta_del2             =   1.1370748789875E-02
(PID.TID 0000.0001) %MON dynstat_uvel_max             =   8.2457373750114E-01
(PID.TID 0000.0001) %MON dynstat_uvel_min             =   2.3412796919473E-01
(PID.TID 0000.0001) %MON dynstat_uvel_mean            =   3.1386954186385E-01
(PID.TID 0000.0001) %MON dynstat_uvel_sd              =   6.0369342849792E-02
(PID.TID 0000.0001) %MON dynstat_uvel_del2            =   2.4052028663117E-03
(PID.TID 0000.0001) %MON dynstat_vvel_max             =   1.1536574093547E-01
(PID.TID 0000.0001) %MON dynstat_vvel_min             =  -1.7543113700360E-01
(PID.TID 0000.0001) %MON dynstat_vvel_mean            =  -4.7348164738500E-04
(PID.TID 0000.0001) %MON dynstat_vvel_sd              =   2.5908776996999E-02
(PID.TID 0000.0001) %MON dynstat_vvel_del2            =   3.1210867217317E-04
(PID.TID 0000.0001) %MON dynstat_wvel_max             =   2.2495491745397E-01
(PID.TID 0000.0001) %MON dynstat_wvel_min             =  -2.7841694912294E-02
(PID.TID 0000.0001) %MON dynstat_wvel_mean            =   7.3985352048093E-05
(PID.TID 0000.0001) %MON dynstat_wvel_sd              =   4.3762252421287E-03
(PID.TID 0000.0001) %MON dynstat_wvel_del2            =   3.4940871827302E-04
(PID.TID 0000.0001) %MON dynstat_theta_max            =   7.0301612999403E-01
(PID.TID 0000.0001) %MON dynstat_theta_min            =  -7.0750050688966E-01
(PID.TID 0000.0001) %MON dynstat_theta_mean           =   1.8763849155494E-02
(PID.TID 0000.0001) %MON dynstat_theta_sd             =   4.5245078904921E-01
(PID.TID 0000.0001) %MON dynstat_theta_del2           =   1.6673691095945E-04
(PID.TID 0000.0001) %MON dynstat_salt_max             =   3.6000000000000E+01
(PID.TID 0000.0001) %MON dynstat_salt_min             =   3.5000000000000E+01
(PID.TID 0000.0001) %MON dynstat_salt_mean            =   3.5014952757882E+01
(PID.TID 0000.0001) %MON dynstat_salt_sd              =   1.1435988461075E-01
(PID.TID 0000.0001) %MON dynstat_salt_del2            =   1.2049623249600E-02
(PID.TID 0000.0001) %MON advcfl_uvel_max              =   9.8948848500137E-02
(PID.TID 0000.0001) %MON advcfl_vvel_max              =   2.1051736440432E-02
(PID.TID 0000.0001) %MON advcfl_wvel_max              =   4.7990382390181E-01
(PID.TID 0000.0001) %MON advcfl_W_hf_max              =   4.1990382390181E-01
(PID.TID 0000.0001) %MON pe_b_mean                    =   7.3114448246567E-05
(PID.TID 0000.0001) %MON ke_max                       =   3.3712770307365E-01
(PID.TID 0000.0001) %MON ke_mean                      =   5.1235566995896E-02
(PID.TID 0000.0001) %MON ke_vol                       =   3.6207071198500E+14
(PID.TID 0000.0001) %MON vort_r_min                   =  -1.8290848722213E-04
(PID.TID 0000.0001) %MON vort_r_max                   =   1.8084035911939E-04
(PID.TID 0000.0001) %MON vort_a_mean                  =   1.0000000000000E-04
(PID.TID 0000.0001) %MON vort_a_sd                    =   9.4391898183353E-06
(PID.TID 0000.0001) %MON vort_p_mean                  =   1.0161982423688E-04
(PID.TID 0000.0001) %MON vort_p_sd                    =   3.8739205963372E-05
(PID.TID 0000.0001) %MON surfExpan_theta_mean         =   9.4168156926876E-05
(PID.TID 0000.0001) %MON surfExpan_salt_mean          =   4.6812460789998E-03
(PID.TID 0000.0001) // =======================================================
(PID.TID 0000.0001) // End MONITOR dynamic field statistics
(PID.TID 0000.0001) // =======================================================
(PID.TID 0000.0001) // =======================================================
(PID.TID 0000.0001) // Begin MONITOR ptracer field statistics
(PID.TID 0000.0001) // =======================================================
(PID.TID 0000.0001) %MON trcstat_ptracer01_max        =   3.6000000000000E+01
(PID.TID 0000.0001) %MON trcstat_ptracer01_min        =   3.5000000000000E+01
(PID.TID 0000.0001) %MON trcstat_ptracer01_mean       =   3.5015025518297E+01
(PID.TID 0000.0001) %MON trcstat_ptracer01_sd         =   1.1438443004431E-01
(PID.TID 0000.0001) %MON trcstat_ptracer01_del2       =   1.2015497114209E-02
(PID.TID 0000.0001) // =======================================================
(PID.TID 0000.0001) // End MONITOR ptracers field statistics
(PID.TID 0000.0001) // =======================================================
 cg2d: Sum(rhs),rhsMax =   7.81597009336110E-13  2.16717165067265E-01
(PID.TID 0000.0001)                    cg2d_init_res =    5.79689670930617E+00
(PID.TID 0000.0001)                       cg2d_iters =   197
(PID.TID 0000.0001)                         cg2d_res =    7.52316338282071E-14
(PID.TID 0000.0001) // =======================================================
(PID.TID 0000.0001) // Begin MONITOR dynamic field statistics
(PID.TID 0000.0001) // =======================================================
(PID.TID 0000.0001) %MON time_tsnumber                =                     5
(PID.TID 0000.0001) %MON time_secondsf                =   3.0000000000000E+03
(PID.TID 0000.0001) %MON dynstat_eta_max              =   1.1289495638916E+00
(PID.TID 0000.0001) %MON dynstat_eta_min              =  -1.1221344649267E+00
(PID.TID 0000.0001) %MON dynstat_eta_mean             =  -5.4976851851852E-15
(PID.TID 0000.0001) %MON dynstat_eta_sd               =   6.1056045728520E-01
(PID.TID 0000.0001) %MON dynstat_eta_del2             =   2.3910988442882E-02
(PID.TID 0000.0001) %MON dynstat_uvel_max             =   7.2650295692742E-01
(PID.TID 0000.0001) %MON dynstat_uvel_min             =   2.2654489795694E-01
(PID.TID 0000.0001) %MON dynstat_uvel_mean            =   2.9185129714009E-01
(PID.TID 0000.0001) %MON dynstat_uvel_sd              =   4.7058298074398E-02
(PID.TID 0000.0001) %MON dynstat_uvel_del2            =   1.7531864674106E-03
(PID.TID 0000.0001) %MON dynstat_vvel_max             =   1.0317663604179E-01
(PID.TID 0000.0001) %MON dynstat_vvel_min             =  -1.9754846105373E-01
(PID.TID 0000.0001) %MON dynstat_vvel_mean            =   4.0601674737600E-04
(PID.TID 0000.0001) %MON dynstat_vvel_sd              =   2.3885698603278E-02
(PID.TID 0000.0001) %MON dynstat_vvel_del2            =   3.0827281088841E-04
(PID.TID 0000.0001) %MON dynstat_wvel_max             =   2.2495491745397E-01
(PID.TID 0000.0001) %MON dynstat_wvel_min             =  -2.5338244080839E-02
(PID.TID 0000.0001) %MON dynstat_wvel_mean            =   7.3985352048093E-05
(PID.TID 0000.0001) %MON dynstat_wvel_sd              =   4.1256132747706E-03
(PID.TID 0000.0001) %MON dynstat_wvel_del2            =   3.2146909318912E-04
(PID.TID 0000.0001) %MON dynstat_theta_max            =   7.0475574916752E-01
(PID.TID 0000.0001) %MON dynstat_theta_min            =  -7.1137836267285E-01
(PID.TID 0000.0001) %MON dynstat_theta_mean           =   1.8762029183843E-02
(PID.TID 0000.0001) %MON dynstat_theta_sd             =   4.5244957727664E-01
(PID.TID 0000.0001) %MON dynstat_theta_del2           =   1.6658686166545E-04
(PID.TID 0000.0001) %MON dynstat_salt_max             =   3.6000000000000E+01
(PID.TID 0000.0001) %MON dynstat_salt_min             =   3.5000000000000E+01
(PID.TID 0000.0001) %MON dynstat_salt_mean            =   3.5015417732094E+01
(PID.TID 0000.0001) %MON dynstat_salt_sd              =   1.1484000258367E-01
(PID.TID 0000.0001) %MON dynstat_salt_del2            =   1.1857565302407E-02
(PID.TID 0000.0001) %MON advcfl_uvel_max              =   8.7180354831291E-02
(PID.TID 0000.0001) %MON advcfl_vvel_max              =   2.3705815326448E-02
(PID.TID 0000.0001) %MON advcfl_wvel_max              =   4.7990382390181E-01
(PID.TID 0000.0001) %MON advcfl_W_hf_max              =   4.1990382390181E-01
(PID.TID 0000.0001) %MON pe_b_mean                    =   4.2421131635727E-04
(PID.TID 0000.0001) %MON ke_max                       =   2.6867454902064E-01
(PID.TID 0000.0001) %MON ke_mean                      =   4.3827672268363E-02
(PID.TID 0000.0001) %MON ke_vol                       =   3.6207071198500E+14
(PID.TID 0000.0001) %MON vort_r_min                   =  -1.6914919060400E-04
(PID.TID 0000.0001) %MON vort_r_max                   =   1.6568483147299E-04
(PID.TID 0000.0001) %MON vort_a_mean                  =   1.0000000000000E-04
(PID.TID 0000.0001) %MON vort_a_sd                    =   8.0383911779646E-06
(PID.TID 0000.0001) %MON vort_p_mean                  =   1.0161982423688E-04
(PID.TID 0000.0001) %MON vort_p_sd                    =   3.6780499891489E-05
(PID.TID 0000.0001) %MON surfExpan_theta_mean         =   9.3581906178114E-05
(PID.TID 0000.0001) %MON surfExpan_salt_mean          =   4.6827818818990E-03
(PID.TID 0000.0001) // =======================================================
(PID.TID 0000.0001) // End MONITOR dynamic field statistics
(PID.TID 0000.0001) // =======================================================
(PID.TID 0000.0001) // =======================================================
(PID.TID 0000.0001) // Begin MONITOR ptracer field statistics
(PID.TID 0000.0001) // =======================================================
(PID.TID 0000.0001) %MON trcstat_ptracer01_max        =   3.6000000000000E+01
(PID.TID 0000.0001) %MON trcstat_ptracer01_min        =   3.5000000000000E+01
(PID.TID 0000.0001) %MON trcstat_ptracer01_mean       =   3.5015515464718E+01
(PID.TID 0000.0001) %MON trcstat_ptracer01_sd         =   1.1488558102972E-01
(PID.TID 0000.0001) %MON trcstat_ptracer01_del2       =   1.1812683998969E-02
(PID.TID 0000.0001) // =======================================================
(PID.TID 0000.0001) // End MONITOR ptracers field statistics
(PID.TID 0000.0001) // =======================================================
 cg2d: Sum(rhs),rhsMax =   1.62003743753303E-12  1.77357071655571E-01
(PID.TID 0000.0001)                    cg2d_init_res =    2.22943447342840E+00
(PID.TID 0000.0001)                       cg2d_iters =   197
(PID.TID 0000.0001)                         cg2d_res =    7.82275902846449E-14
(PID.TID 0000.0001) // =======================================================
(PID.TID 0000.0001) // Begin MONITOR dynamic field statistics
(PID.TID 0000.0001) // =======================================================
(PID.TID 0000.0001) %MON time_tsnumber                =                     6
(PID.TID 0000.0001) %MON time_secondsf                =   3.6000000000000E+03
(PID.TID 0000.0001) %MON dynstat_eta_max              =   1.2400185979193E+00
(PID.TID 0000.0001) %MON dynstat_eta_min              =  -1.2366601388296E+00
(PID.TID 0000.0001) %MON dynstat_eta_mean             =  -6.0350529100529E-15
(PID.TID 0000.0001) %MON dynstat_eta_sd               =   7.0091721432198E-01
(PID.TID 0000.0001) %MON dynstat_eta_del2             =   2.7366347605451E-02
(PID.TID 0000.0001) %MON dynstat_uvel_max             =   6.0945380527479E-01
(PID.TID 0000.0001) %MON dynstat_uvel_min             =   1.8921613690619E-01
(PID.TID 0000.0001) %MON dynstat_uvel_mean            =   2.6615621358334E-01
(PID.TID 0000.0001) %MON dynstat_uvel_sd              =   3.2735393319018E-02
(PID.TID 0000.0001) %MON dynstat_uvel_del2            =   1.0091422682798E-03
(PID.TID 0000.0001) %MON dynstat_vvel_max             =   9.8995200391281E-02
(PID.TID 0000.0001) %MON dynstat_vvel_min             =  -2.1980681949759E-01
(PID.TID 0000.0001) %MON dynstat_vvel_mean            =   6.5903156415951E-04
(PID.TID 0000.0001) %MON dynstat_vvel_sd              =   2.1561132734127E-02
(PID.TID 0000.0001) %MON dynstat_vvel_del2            =   3.1736676910090E-04
(PID.TID 0000.0001) %MON dynstat_wvel_max             =   2.2495491745397E-01
(PID.TID 0000.0001) %MON dynstat_wvel_min             =  -2.3402275828548E-02
(PID.TID 0000.0001) %MON dynstat_wvel_mean            =   7.3985352048091E-05
(PID.TID 0000.0001) %MON dynstat_wvel_sd              =   3.9209548443030E-03
(PID.TID 0000.0001) %MON dynstat_wvel_del2            =   2.8603722692633E-04
(PID.TID 0000.0001) %MON dynstat_theta_max            =   7.0645217682794E-01
(PID.TID 0000.0001) %MON dynstat_theta_min            =  -7.1426439348320E-01
(PID.TID 0000.0001) %MON dynstat_theta_mean           =   1.8760674261913E-02
(PID.TID 0000.0001) %MON dynstat_theta_sd             =   4.5244850770831E-01
(PID.TID 0000.0001) %MON dynstat_theta_del2           =   1.6552627353179E-04
(PID.TID 0000.0001) %MON dynstat_salt_max             =   3.6000000000000E+01
(PID.TID 0000.0001) %MON dynstat_salt_min             =   3.5000000000000E+01
(PID.TID 0000.0001) %MON dynstat_salt_mean            =   3.5015878383687E+01
(PID.TID 0000.0001) %MON dynstat_salt_sd              =   1.1539575653245E-01
(PID.TID 0000.0001) %MON dynstat_salt_del2            =   1.1674408502208E-02
(PID.TID 0000.0001) %MON advcfl_uvel_max              =   7.3134456632975E-02
(PID.TID 0000.0001) %MON advcfl_vvel_max              =   2.6376818339710E-02
(PID.TID 0000.0001) %MON advcfl_wvel_max              =   4.7990382390181E-01
(PID.TID 0000.0001) %MON advcfl_W_hf_max              =   4.1990382390181E-01
(PID.TID 0000.0001) %MON pe_b_mean                    =   5.5905991517027E-04
(PID.TID 0000.0001) %MON ke_max                       =   1.9867502704299E-01
(PID.TID 0000.0001) %MON ke_mean                      =   3.6061721387638E-02
(PID.TID 0000.0001) %MON ke_vol                       =   3.6207071198500E+14
(PID.TID 0000.0001) %MON vort_r_min                   =  -1.5083216909234E-04
(PID.TID 0000.0001) %MON vort_r_max                   =   1.4624357774251E-04
(PID.TID 0000.0001) %MON vort_a_mean                  =   1.0000000000000E-04
(PID.TID 0000.0001) %MON vort_a_sd                    =   6.5818065499398E-06
(PID.TID 0000.0001) %MON vort_p_mean                  =   1.0161982423688E-04
(PID.TID 0000.0001) %MON vort_p_sd                    =   3.4761600746194E-05
(PID.TID 0000.0001) %MON surfExpan_theta_mean         =   9.3339158043268E-05
(PID.TID 0000.0001) %MON surfExpan_salt_mean          =   4.6859097433587E-03
(PID.TID 0000.0001) // =======================================================
(PID.TID 0000.0001) // End MONITOR dynamic field statistics
(PID.TID 0000.0001) // =======================================================
(PID.TID 0000.0001) // =======================================================
(PID.TID 0000.0001) // Begin MONITOR ptracer field statistics
(PID.TID 0000.0001) // =======================================================
(PID.TID 0000.0001) %MON trcstat_ptracer01_max        =   3.6000000000000E+01
(PID.TID 0000.0001) %MON trcstat_ptracer01_min        =   3.5000000000000E+01
(PID.TID 0000.0001) %MON trcstat_ptracer01_mean       =   3.5016001421195E+01
(PID.TID 0000.0001) %MON trcstat_ptracer01_sd         =   1.1546780696050E-01
(PID.TID 0000.0001) %MON trcstat_ptracer01_del2       =   1.1619034476552E-02
(PID.TID 0000.0001) // =======================================================
(PID.TID 0000.0001) // End MONITOR ptracers field statistics
(PID.TID 0000.0001) // =======================================================
 cg2d: Sum(rhs),rhsMax =   1.56319401867222E-12  1.50104519136013E-01
(PID.TID 0000.0001)                    cg2d_init_res =    3.53144424416982E+00
(PID.TID 0000.0001)                       cg2d_iters =   197
(PID.TID 0000.0001)                         cg2d_res =    7.97403181435421E-14
(PID.TID 0000.0001) // =======================================================
(PID.TID 0000.0001) // Begin MONITOR dynamic field statistics
(PID.TID 0000.0001) // =======================================================
(PID.TID 0000.0001) %MON time_tsnumber                =                     7
(PID.TID 0000.0001) %MON time_secondsf                =   4.2000000000000E+03
(PID.TID 0000.0001) %MON dynstat_eta_max              =   8.3139774343941E-01
(PID.TID 0000.0001) %MON dynstat_eta_min              =  -8.3116010793408E-01
(PID.TID 0000.0001) %MON dynstat_eta_mean             =  -2.4388227513228E-15
(PID.TID 0000.0001) %MON dynstat_eta_sd               =   4.3270991950223E-01
(PID.TID 0000.0001) %MON dynstat_eta_del2             =   1.6869972684207E-02
(PID.TID 0000.0001) %MON dynstat_uvel_max             =   5.3526235288587E-01
(PID.TID 0000.0001) %MON dynstat_uvel_min             =   1.6576161276853E-01
(PID.TID 0000.0001) %MON dynstat_uvel_mean            =   2.5061289854757E-01
(PID.TID 0000.0001) %MON dynstat_uvel_sd              =   2.6023608723360E-02
(PID.TID 0000.0001) %MON dynstat_uvel_del2            =   6.8702901449368E-04
(PID.TID 0000.0001) %MON dynstat_vvel_max             =   9.7873055302936E-02
(PID.TID 0000.0001) %MON dynstat_vvel_min             =  -2.4026581438926E-01
(PID.TID 0000.0001) %MON dynstat_vvel_mean            =   4.8042230602212E-04
(PID.TID 0000.0001) %MON dynstat_vvel_sd              =   2.0559613232573E-02
(PID.TID 0000.0001) %MON dynstat_vvel_del2            =   3.2379206835095E-04
(PID.TID 0000.0001) %MON dynstat_wvel_max             =   2.2495491745397E-01
(PID.TID 0000.0001) %MON dynstat_wvel_min             =  -2.2132891144744E-02
(PID.TID 0000.0001) %MON dynstat_wvel_mean            =   7.3985352048093E-05
(PID.TID 0000.0001) %MON dynstat_wvel_sd              =   3.8448443516808E-03
(PID.TID 0000.0001) %MON dynstat_wvel_del2            =   2.7059242424232E-04
(PID.TID 0000.0001) %MON dynstat_theta_max            =   7.0777464857284E-01
(PID.TID 0000.0001) %MON dynstat_theta_min            =  -7.1642380067656E-01
(PID.TID 0000.0001) %MON dynstat_theta_mean           =   1.8759563680737E-02
(PID.TID 0000.0001) %MON dynstat_theta_sd             =   4.5244757294663E-01
(PID.TID 0000.0001) %MON dynstat_theta_del2           =   1.6465812628127E-04
(PID.TID 0000.0001) %MON dynstat_salt_max             =   3.6000000000000E+01
(PID.TID 0000.0001) %MON dynstat_salt_min             =   3.5000000000000E+01
(PID.TID 0000.0001) %MON dynstat_salt_mean            =   3.5016334753061E+01
(PID.TID 0000.0001) %MON dynstat_salt_sd              =   1.1601568051126E-01
(PID.TID 0000.0001) %MON dynstat_salt_del2            =   1.1499696569276E-02
(PID.TID 0000.0001) %MON advcfl_uvel_max              =   6.4231482346304E-02
(PID.TID 0000.0001) %MON advcfl_vvel_max              =   2.8831897726711E-02
(PID.TID 0000.0001) %MON advcfl_wvel_max              =   4.7990382390181E-01
(PID.TID 0000.0001) %MON advcfl_W_hf_max              =   4.1990382390181E-01
(PID.TID 0000.0001) %MON pe_b_mean                    =   2.1306818384185E-04
(PID.TID 0000.0001) %MON ke_max                       =   1.6290455443222E-01
(PID.TID 0000.0001) %MON ke_mean                      =   3.1841965378656E-02
(PID.TID 0000.0001) %MON ke_vol                       =   3.6207071198500E+14
(PID.TID 0000.0001) %MON vort_r_min                   =  -1.4061454891850E-04
(PID.TID 0000.0001) %MON vort_r_max                   =   1.3510090776864E-04
(PID.TID 0000.0001) %MON vort_a_mean                  =   1.0000000000000E-04
(PID.TID 0000.0001) %MON vort_a_sd                    =   5.8365788932457E-06
(PID.TID 0000.0001) %MON vort_p_mean                  =   1.0161982423688E-04
(PID.TID 0000.0001) %MON vort_p_sd                    =   3.3700459164277E-05
(PID.TID 0000.0001) %MON surfExpan_theta_mean         =   9.3201319594413E-05
(PID.TID 0000.0001) %MON surfExpan_salt_mean          =   4.6885609920624E-03
(PID.TID 0000.0001) // =======================================================
(PID.TID 0000.0001) // End MONITOR dynamic field statistics
(PID.TID 0000.0001) // =======================================================
(PID.TID 0000.0001) // =======================================================
(PID.TID 0000.0001) // Begin MONITOR ptracer field statistics
(PID.TID 0000.0001) // =======================================================
(PID.TID 0000.0001) %MON trcstat_ptracer01_max        =   3.6000000000000E+01
(PID.TID 0000.0001) %MON trcstat_ptracer01_min        =   3.5000000000000E+01
(PID.TID 0000.0001) %MON trcstat_ptracer01_mean       =   3.5016483383612E+01
(PID.TID 0000.0001) %MON trcstat_ptracer01_sd         =   1.1611906151224E-01
(PID.TID 0000.0001) %MON trcstat_ptracer01_del2       =   1.1434103337964E-02
(PID.TID 0000.0001) // =======================================================
(PID.TID 0000.0001) // End MONITOR ptracers field statistics
(PID.TID 0000.0001) // =======================================================
 cg2d: Sum(rhs),rhsMax =   1.01962882581574E-12  1.36883656514019E-01
(PID.TID 0000.0001)                    cg2d_init_res =    4.29000439334856E+00
(PID.TID 0000.0001)                       cg2d_iters =   195
(PID.TID 0000.0001)                         cg2d_res =    7.53343204993115E-14
(PID.TID 0000.0001) // =======================================================
(PID.TID 0000.0001) // Begin MONITOR dynamic field statistics
(PID.TID 0000.0001) // =======================================================
(PID.TID 0000.0001) %MON time_tsnumber                =                     8
(PID.TID 0000.0001) %MON time_secondsf                =   4.8000000000000E+03
(PID.TID 0000.0001) %MON dynstat_eta_max              =   3.4017494132988E-01
(PID.TID 0000.0001) %MON dynstat_eta_min              =  -3.4088032227224E-01
(PID.TID 0000.0001) %MON dynstat_eta_mean             =  -1.3744212962963E-15
(PID.TID 0000.0001) %MON dynstat_eta_sd               =   1.4723374153518E-01
(PID.TID 0000.0001) %MON dynstat_eta_del2             =   7.2544562978545E-03
(PID.TID 0000.0001) %MON dynstat_uvel_max             =   5.1388119824814E-01
(PID.TID 0000.0001) %MON dynstat_uvel_min             =   1.5859525415988E-01
(PID.TID 0000.0001) %MON dynstat_uvel_mean            =   2.4778228038143E-01
(PID.TID 0000.0001) %MON dynstat_uvel_sd              =   2.5111804426303E-02
(PID.TID 0000.0001) %MON dynstat_uvel_del2            =   6.6501081693790E-04
(PID.TID 0000.0001) %MON dynstat_vvel_max             =   1.0173210420356E-01
(PID.TID 0000.0001) %MON dynstat_vvel_min             =  -2.6316633556184E-01
(PID.TID 0000.0001) %MON dynstat_vvel_mean            =   1.6224881728806E-04
(PID.TID 0000.0001) %MON dynstat_vvel_sd              =   2.1033200755001E-02
(PID.TID 0000.0001) %MON dynstat_vvel_del2            =   3.3757787959855E-04
(PID.TID 0000.0001) %MON dynstat_wvel_max             =   2.2495491745397E-01
(PID.TID 0000.0001) %MON dynstat_wvel_min             =  -2.2028410235351E-02
(PID.TID 0000.0001) %MON dynstat_wvel_mean            =   7.3985352048092E-05
(PID.TID 0000.0001) %MON dynstat_wvel_sd              =   3.8252750092235E-03
(PID.TID 0000.0001) %MON dynstat_wvel_del2            =   2.5756668709668E-04
(PID.TID 0000.0001) %MON dynstat_theta_max            =   7.0892439740898E-01
(PID.TID 0000.0001) %MON dynstat_theta_min            =  -7.1828197964170E-01
(PID.TID 0000.0001) %MON dynstat_theta_mean           =   1.8758627616230E-02
(PID.TID 0000.0001) %MON dynstat_theta_sd             =   4.5244673968388E-01
(PID.TID 0000.0001) %MON dynstat_theta_del2           =   1.6461191074465E-04
(PID.TID 0000.0001) %MON dynstat_salt_max             =   3.6000000000000E+01
(PID.TID 0000.0001) %MON dynstat_salt_min             =   3.5000000000000E+01
(PID.TID 0000.0001) %MON dynstat_salt_mean            =   3.5016787241454E+01
(PID.TID 0000.0001) %MON dynstat_salt_sd              =   1.1669010244611E-01
(PID.TID 0000.0001) %MON dynstat_salt_del2            =   1.1332931458348E-02
(PID.TID 0000.0001) %MON advcfl_uvel_max              =   6.1665743789777E-02
(PID.TID 0000.0001) %MON advcfl_vvel_max              =   3.1579960267421E-02
(PID.TID 0000.0001) %MON advcfl_wvel_max              =   4.7990382390181E-01
(PID.TID 0000.0001) %MON advcfl_W_hf_max              =   4.1990382390181E-01
(PID.TID 0000.0001) %MON pe_b_mean                    =   2.4668321447109E-05
(PID.TID 0000.0001) %MON ke_max                       =   1.5751836279075E-01
(PID.TID 0000.0001) %MON ke_mean                      =   3.1125525406197E-02
(PID.TID 0000.0001) %MON ke_vol                       =   3.6207071198500E+14
(PID.TID 0000.0001) %MON vort_r_min                   =  -1.4104905003466E-04
(PID.TID 0000.0001) %MON vort_r_max                   =   1.3462138797586E-04
(PID.TID 0000.0001) %MON vort_a_mean                  =   1.0000000000000E-04
(PID.TID 0000.0001) %MON vort_a_sd                    =   5.7297753364133E-06
(PID.TID 0000.0001) %MON vort_p_mean                  =   1.0161982423688E-04
(PID.TID 0000.0001) %MON vort_p_sd                    =   3.3532326265619E-05
(PID.TID 0000.0001) %MON surfExpan_theta_mean         =   9.3124874149128E-05
(PID.TID 0000.0001) %MON surfExpan_salt_mean          =   4.6894230441601E-03
(PID.TID 0000.0001) // =======================================================
(PID.TID 0000.0001) // End MONITOR dynamic field statistics
(PID.TID 0000.0001) // =======================================================
(PID.TID 0000.0001) // =======================================================
(PID.TID 0000.0001) // Begin MONITOR ptracer field statistics
(PID.TID 0000.0001) // =======================================================
(PID.TID 0000.0001) %MON trcstat_ptracer01_max        =   3.6000000000000E+01
(PID.TID 0000.0001) %MON trcstat_ptracer01_min        =   3.5000000000000E+01
(PID.TID 0000.0001) %MON trcstat_ptracer01_mean       =   3.5016961739699E+01
(PID.TID 0000.0001) %MON trcstat_ptracer01_sd         =   1.1682915339466E-01
(PID.TID 0000.0001) %MON trcstat_ptracer01_del2       =   1.1257389181926E-02
(PID.TID 0000.0001) // =======================================================
(PID.TID 0000.0001) // End MONITOR ptracers field statistics
(PID.TID 0000.0001) // =======================================================
 cg2d: Sum(rhs),rhsMax =   5.47117906535277E-13  1.41921083244027E-01
(PID.TID 0000.0001)                    cg2d_init_res =    2.61627618427018E+00
(PID.TID 0000.0001)                       cg2d_iters =   193
(PID.TID 0000.0001)                         cg2d_res =    9.23278312526768E-14
(PID.TID 0000.0001) // =======================================================
(PID.TID 0000.0001) // Begin MONITOR dynamic field statistics
(PID.TID 0000.0001) // =======================================================
(PID.TID 0000.0001) %MON time_tsnumber                =                     9
(PID.TID 0000.0001) %MON time_secondsf                =   5.4000000000000E+03
(PID.TID 0000.0001) %MON dynstat_eta_max              =   4.3942387640490E-01
(PID.TID 0000.0001) %MON dynstat_eta_min              =  -4.3955488578481E-01
(PID.TID 0000.0001) %MON dynstat_eta_mean             =  -1.1057374338624E-15
(PID.TID 0000.0001) %MON dynstat_eta_sd               =   1.9635271706224E-01
(PID.TID 0000.0001) %MON dynstat_eta_del2             =   8.1870792003990E-03
(PID.TID 0000.0001) %MON dynstat_uvel_max             =   5.3229463967713E-01
(PID.TID 0000.0001) %MON dynstat_uvel_min             =   1.6198746064357E-01
(PID.TID 0000.0001) %MON dynstat_uvel_mean            =   2.5297966520389E-01
(PID.TID 0000.0001) %MON dynstat_uvel_sd              =   2.6966132863089E-02
(PID.TID 0000.0001) %MON dynstat_uvel_del2            =   6.9248583116219E-04
(PID.TID 0000.0001) %MON dynstat_vvel_max             =   1.0920021940985E-01
(PID.TID 0000.0001) %MON dynstat_vvel_min             =  -2.8940345659286E-01
(PID.TID 0000.0001) %MON dynstat_vvel_mean            =  -8.0456027814772E-05
(PID.TID 0000.0001) %MON dynstat_vvel_sd              =   2.2431110698117E-02
(PID.TID 0000.0001) %MON dynstat_vvel_del2            =   3.5938946347927E-04
(PID.TID 0000.0001) %MON dynstat_wvel_max             =   2.2495491745397E-01
(PID.TID 0000.0001) %MON dynstat_wvel_min             =  -2.2749520641363E-02
(PID.TID 0000.0001) %MON dynstat_wvel_mean            =   7.3985352048093E-05
(PID.TID 0000.0001) %MON dynstat_wvel_sd              =   3.8266812101930E-03
(PID.TID 0000.0001) %MON dynstat_wvel_del2            =   2.4366172982482E-04
(PID.TID 0000.0001) %MON dynstat_theta_max            =   7.1003810482097E-01
(PID.TID 0000.0001) %MON dynstat_theta_min            =  -7.2014670972679E-01
(PID.TID 0000.0001) %MON dynstat_theta_mean           =   1.8757834392070E-02
(PID.TID 0000.0001) %MON dynstat_theta_sd             =   4.5244595572184E-01
(PID.TID 0000.0001) %MON dynstat_theta_del2           =   1.6701623108304E-04
(PID.TID 0000.0001) %MON dynstat_salt_max             =   3.6000000000000E+01
(PID.TID 0000.0001) %MON dynstat_salt_min             =   3.5000000000000E+01
(PID.TID 0000.0001) %MON dynstat_salt_mean            =   3.5017236358917E+01
(PID.TID 0000.0001) %MON dynstat_salt_sd              =   1.1741086308865E-01
(PID.TID 0000.0001) %MON dynstat_salt_del2            =   1.1173630033474E-02
(PID.TID 0000.0001) %MON advcfl_uvel_max              =   6.3875356761255E-02
(PID.TID 0000.0001) %MON advcfl_vvel_max              =   3.4728414791144E-02
(PID.TID 0000.0001) %MON advcfl_wvel_max              =   4.7990382390181E-01
(PID.TID 0000.0001) %MON advcfl_W_hf_max              =   4.1990382390181E-01
(PID.TID 0000.0001) %MON pe_b_mean                    =   4.3873141447326E-05
(PID.TID 0000.0001) %MON ke_max                       =   1.6932571897493E-01
(PID.TID 0000.0001) %MON ke_mean                      =   3.2500689691952E-02
(PID.TID 0000.0001) %MON ke_vol                       =   3.6207071198500E+14
(PID.TID 0000.0001) %MON vort_r_min                   =  -1.4841922473449E-04
(PID.TID 0000.0001) %MON vort_r_max                   =   1.4093782588709E-04
(PID.TID 0000.0001) %MON vort_a_mean                  =   1.0000000000000E-04
(PID.TID 0000.0001) %MON vort_a_sd                    =   5.9824116405559E-06
(PID.TID 0000.0001) %MON vort_p_mean                  =   1.0161982423688E-04
(PID.TID 0000.0001) %MON vort_p_sd                    =   3.3882602816292E-05
(PID.TID 0000.0001) %MON surfExpan_theta_mean         =   9.3166792733306E-05
(PID.TID 0000.0001) %MON surfExpan_salt_mean          =   4.6885933577605E-03
(PID.TID 0000.0001) // =======================================================
(PID.TID 0000.0001) // End MONITOR dynamic field statistics
(PID.TID 0000.0001) // =======================================================
(PID.TID 0000.0001) // =======================================================
(PID.TID 0000.0001) // Begin MONITOR ptracer field statistics
(PID.TID 0000.0001) // =======================================================
(PID.TID 0000.0001) %MON trcstat_ptracer01_max        =   3.6000000000000E+01
(PID.TID 0000.0001) %MON trcstat_ptracer01_min        =   3.5000000000000E+01
(PID.TID 0000.0001) %MON trcstat_ptracer01_mean       =   3.5017437003662E+01
(PID.TID 0000.0001) %MON trcstat_ptracer01_sd         =   1.1758945586797E-01
(PID.TID 0000.0001) %MON trcstat_ptracer01_del2       =   1.1088402974436E-02
(PID.TID 0000.0001) // =======================================================
(PID.TID 0000.0001) // End MONITOR ptracers field statistics
(PID.TID 0000.0001) // =======================================================
 cg2d: Sum(rhs),rhsMax =   6.60804744256893E-13  1.50188334882633E-01
(PID.TID 0000.0001)                    cg2d_init_res =    8.35736372065500E-01
(PID.TID 0000.0001)                       cg2d_iters =   192
(PID.TID 0000.0001)                         cg2d_res =    9.89776831092500E-14
(PID.TID 0000.0001) // =======================================================
(PID.TID 0000.0001) // Begin MONITOR dynamic field statistics
(PID.TID 0000.0001) // =======================================================
(PID.TID 0000.0001) %MON time_tsnumber                =                    10
(PID.TID 0000.0001) %MON time_secondsf                =   6.0000000000000E+03
(PID.TID 0000.0001) %MON dynstat_eta_max              =   5.1607275517911E-01
(PID.TID 0000.0001) %MON dynstat_eta_min              =  -5.1535833201998E-01
(PID.TID 0000.0001) %MON dynstat_eta_mean             =  -1.8187830687831E-15
(PID.TID 0000.0001) %MON dynstat_eta_sd               =   2.3825533039451E-01
(PID.TID 0000.0001) %MON dynstat_eta_del2             =   9.3577577748521E-03
(PID.TID 0000.0001) %MON dynstat_uvel_max             =   5.5759752400204E-01
(PID.TID 0000.0001) %MON dynstat_uvel_min             =   1.6735829274765E-01
(PID.TID 0000.0001) %MON dynstat_uvel_mean            =   2.5992998687589E-01
(PID.TID 0000.0001) %MON dynstat_uvel_sd              =   2.9917795684879E-02
(PID.TID 0000.0001) %MON dynstat_uvel_del2            =   8.2465933136061E-04
(PID.TID 0000.0001) %MON dynstat_vvel_max             =   1.1785076402684E-01
(PID.TID 0000.0001) %MON dynstat_vvel_min             =  -3.1759906980366E-01
(PID.TID 0000.0001) %MON dynstat_vvel_mean            =  -1.6922126188909E-04
(PID.TID 0000.0001) %MON dynstat_vvel_sd              =   2.4100355969174E-02
(PID.TID 0000.0001) %MON dynstat_vvel_del2            =   3.8186005039542E-04
(PID.TID 0000.0001) %MON dynstat_wvel_max             =   2.2495491745397E-01
(PID.TID 0000.0001) %MON dynstat_wvel_min             =  -2.3695582894239E-02
(PID.TID 0000.0001) %MON dynstat_wvel_mean            =   7.3985352048092E-05
(PID.TID 0000.0001) %MON dynstat_wvel_sd              =   3.8405376023259E-03
(PID.TID 0000.0001) %MON dynstat_wvel_del2            =   2.3171125339948E-04
(PID.TID 0000.0001) %MON dynstat_theta_max            =   7.1115639409362E-01
(PID.TID 0000.0001) %MON dynstat_theta_min            =  -7.2212265126300E-01
(PID.TID 0000.0001) %MON dynstat_theta_mean           =   1.8757159315357E-02
(PID.TID 0000.0001) %MON dynstat_theta_sd             =   4.5244518575320E-01
(PID.TID 0000.0001) %MON dynstat_theta_del2           =   1.7018368032254E-04
(PID.TID 0000.0001) %MON dynstat_salt_max             =   3.6000000000000E+01
(PID.TID 0000.0001) %MON dynstat_salt_min             =   3.5000000000000E+01
(PID.TID 0000.0001) %MON dynstat_salt_mean            =   3.5017682474449E+01
(PID.TID 0000.0001) %MON dynstat_salt_sd              =   1.1817092105759E-01
(PID.TID 0000.0001) %MON dynstat_salt_del2            =   1.1021367103926E-02
(PID.TID 0000.0001) %MON advcfl_uvel_max              =   6.6911702880245E-02
(PID.TID 0000.0001) %MON advcfl_vvel_max              =   3.8111888376439E-02
(PID.TID 0000.0001) %MON advcfl_wvel_max              =   4.7990382390181E-01
(PID.TID 0000.0001) %MON advcfl_W_hf_max              =   4.1990382390181E-01
(PID.TID 0000.0001) %MON pe_b_mean                    =   6.4596673389906E-05
(PID.TID 0000.0001) %MON ke_max                       =   1.8554507817223E-01
(PID.TID 0000.0001) %MON ke_mean                      =   3.4399281874036E-02
(PID.TID 0000.0001) %MON ke_vol                       =   3.6207071198500E+14
(PID.TID 0000.0001) %MON vort_r_min                   =  -1.5750212766127E-04
(PID.TID 0000.0001) %MON vort_r_max                   =   1.4875231511989E-04
(PID.TID 0000.0001) %MON vort_a_mean                  =   1.0000000000000E-04
(PID.TID 0000.0001) %MON vort_a_sd                    =   6.3350769163383E-06
(PID.TID 0000.0001) %MON vort_p_mean                  =   1.0161982423688E-04
(PID.TID 0000.0001) %MON vort_p_sd                    =   3.4365685195141E-05
(PID.TID 0000.0001) %MON surfExpan_theta_mean         =   9.3273108369868E-05
(PID.TID 0000.0001) %MON surfExpan_salt_mean          =   4.6870629778546E-03
(PID.TID 0000.0001) // =======================================================
(PID.TID 0000.0001) // End MONITOR dynamic field statistics
(PID.TID 0000.0001) // =======================================================
(PID.TID 0000.0001) // =======================================================
(PID.TID 0000.0001) // Begin MONITOR ptracer field statistics
(PID.TID 0000.0001) // =======================================================
(PID.TID 0000.0001) %MON trcstat_ptracer01_max        =   3.6000000000000E+01
(PID.TID 0000.0001) %MON trcstat_ptracer01_min        =   3.5000000000000E+01
(PID.TID 0000.0001) %MON trcstat_ptracer01_mean       =   3.5017909555231E+01
(PID.TID 0000.0001) %MON trcstat_ptracer01_sd         =   1.1839251190564E-01
(PID.TID 0000.0001) %MON trcstat_ptracer01_del2       =   1.0926712279734E-02
(PID.TID 0000.0001) // =======================================================
(PID.TID 0000.0001) // End MONITOR ptracers field statistics
(PID.TID 0000.0001) // =======================================================
(PID.TID 0000.0001) %CHECKPOINT        10 ckptA
(PID.TID 0000.0001)   Seconds in section "ALL                    [THE_MODEL_MAIN]":
(PID.TID 0000.0001)           User time:  6.53800606
(PID.TID 0000.0001)         System time:  0.150977004
(PID.TID 0000.0001)     Wall clock time:  6.69548011
(PID.TID 0000.0001)          No. starts: 1
(PID.TID 0000.0001)           No. stops: 1
(PID.TID 0000.0001)   Seconds in section "INITIALISE_FIXED       [THE_MODEL_MAIN]":
(PID.TID 0000.0001)           User time:  0.144977997
(PID.TID 0000.0001)         System time:  0.0249969995
(PID.TID 0000.0001)     Wall clock time:  0.170414925
(PID.TID 0000.0001)          No. starts: 1
(PID.TID 0000.0001)           No. stops: 1
(PID.TID 0000.0001)   Seconds in section "THE_MAIN_LOOP          [THE_MODEL_MAIN]":
(PID.TID 0000.0001)           User time:  6.30504112
(PID.TID 0000.0001)         System time:  0.0749880001
(PID.TID 0000.0001)     Wall clock time:  6.38590002
(PID.TID 0000.0001)          No. starts: 1
(PID.TID 0000.0001)           No. stops: 1
(PID.TID 0000.0001)   Seconds in section "INITIALISE_VARIA    [THE_MAIN_LOOP]":
(PID.TID 0000.0001)           User time:  0.0529920012
(PID.TID 0000.0001)         System time:  0.0119980015
(PID.TID 0000.0001)     Wall clock time:  0.0653979778
(PID.TID 0000.0001)          No. starts: 1
(PID.TID 0000.0001)           No. stops: 1
(PID.TID 0000.0001)   Seconds in section "MONITOR             [THE_MAIN_LOOP]":
(PID.TID 0000.0001)           User time:  0.0659899861
(PID.TID 0000.0001)         System time:  0.
(PID.TID 0000.0001)     Wall clock time:  0.065967083
(PID.TID 0000.0001)          No. starts: 1
(PID.TID 0000.0001)           No. stops: 1
(PID.TID 0000.0001)   Seconds in section "DO_THE_MODEL_IO     [THE_MAIN_LOOP]":
(PID.TID 0000.0001)           User time:  0.0399940014
(PID.TID 0000.0001)         System time:  0.0179970004
(PID.TID 0000.0001)     Wall clock time:  0.0608620644
(PID.TID 0000.0001)          No. starts: 1
(PID.TID 0000.0001)           No. stops: 1
(PID.TID 0000.0001)   Seconds in section "MAIN LOOP           [THE_MAIN_LOOP]":
(PID.TID 0000.0001)           User time:  6.14506513
(PID.TID 0000.0001)         System time:  0.0449929982
(PID.TID 0000.0001)     Wall clock time:  6.19344521
(PID.TID 0000.0001)          No. starts: 1
(PID.TID 0000.0001)           No. stops: 1
(PID.TID 0000.0001)   Seconds in section "FORWARD_STEP        [THE_MAIN_LOOP]":
(PID.TID 0000.0001)           User time:  6.1440652
(PID.TID 0000.0001)         System time:  0.0449929982
(PID.TID 0000.0001)     Wall clock time:  6.19304585
(PID.TID 0000.0001)          No. starts: 10
(PID.TID 0000.0001)           No. stops: 10
(PID.TID 0000.0001)   Seconds in section "EXTERNAL_FIELDS_LOAD[FORWARD_STEP]":
(PID.TID 0000.0001)           User time:  0.
(PID.TID 0000.0001)         System time:  0.
(PID.TID 0000.0001)     Wall clock time:  0.000340938568
(PID.TID 0000.0001)          No. starts: 10
(PID.TID 0000.0001)           No. stops: 10
(PID.TID 0000.0001)   Seconds in section "DO_ATMOSPHERIC_PHYS [FORWARD_STEP]":
(PID.TID 0000.0001)           User time:  0.
(PID.TID 0000.0001)         System time:  0.
(PID.TID 0000.0001)     Wall clock time:  0.000332355499
(PID.TID 0000.0001)          No. starts: 10
(PID.TID 0000.0001)           No. stops: 10
(PID.TID 0000.0001)   Seconds in section "DO_OCEANIC_PHYS     [FORWARD_STEP]":
(PID.TID 0000.0001)           User time:  0.0329954624
(PID.TID 0000.0001)         System time:  0.000999998301
(PID.TID 0000.0001)     Wall clock time:  0.0362946987
(PID.TID 0000.0001)          No. starts: 10
(PID.TID 0000.0001)           No. stops: 10
(PID.TID 0000.0001)   Seconds in section "THERMODYNAMICS      [FORWARD_STEP]":
(PID.TID 0000.0001)           User time:  0.867868155
(PID.TID 0000.0001)         System time:  0.00499800593
(PID.TID 0000.0001)     Wall clock time:  0.87177968
(PID.TID 0000.0001)          No. starts: 10
(PID.TID 0000.0001)           No. stops: 10
(PID.TID 0000.0001)   Seconds in section "DYNAMICS            [FORWARD_STEP]":
(PID.TID 0000.0001)           User time:  1.08283374
(PID.TID 0000.0001)         System time:  0.00399999693
(PID.TID 0000.0001)     Wall clock time:  1.09006953
(PID.TID 0000.0001)          No. starts: 10
(PID.TID 0000.0001)           No. stops: 10
(PID.TID 0000.0001)   Seconds in section "SOLVE_FOR_PRESSURE  [FORWARD_STEP]":
(PID.TID 0000.0001)           User time:  3.23350942
(PID.TID 0000.0001)         System time:  0.00299999863
(PID.TID 0000.0001)     Wall clock time:  3.23768592
(PID.TID 0000.0001)          No. starts: 10
(PID.TID 0000.0001)           No. stops: 10
(PID.TID 0000.0001)   Seconds in section "UV_CORRECTION_STEP  [FORWARD_STEP]":
(PID.TID 0000.0001)           User time:  0.0909867883
(PID.TID 0000.0001)         System time:  0.
(PID.TID 0000.0001)     Wall clock time:  0.0931305885
(PID.TID 0000.0001)          No. starts: 10
(PID.TID 0000.0001)           No. stops: 10
(PID.TID 0000.0001)   Seconds in section "TS_CORRECTION_STEP  [FORWARD_STEP]":
(PID.TID 0000.0001)           User time:  0.0349937081
(PID.TID 0000.0001)         System time:  0.
(PID.TID 0000.0001)     Wall clock time:  0.0322024822
(PID.TID 0000.0001)          No. starts: 10
(PID.TID 0000.0001)           No. stops: 10
(PID.TID 0000.0001)   Seconds in section "BLOCKING_EXCHANGES  [FORWARD_STEP]":
(PID.TID 0000.0001)           User time:  0.0309972763
(PID.TID 0000.0001)         System time:  0.
(PID.TID 0000.0001)     Wall clock time:  0.0308153629
(PID.TID 0000.0001)          No. starts: 10
(PID.TID 0000.0001)           No. stops: 10
(PID.TID 0000.0001)   Seconds in section "DO_STATEVARS_TAVE   [FORWARD_STEP]":
(PID.TID 0000.0001)           User time:  0.
(PID.TID 0000.0001)         System time:  0.
(PID.TID 0000.0001)     Wall clock time:  0.000338077545
(PID.TID 0000.0001)          No. starts: 10
(PID.TID 0000.0001)           No. stops: 10
(PID.TID 0000.0001)   Seconds in section "MONITOR             [FORWARD_STEP]":
(PID.TID 0000.0001)           User time:  0.650901318
(PID.TID 0000.0001)         System time:  0.
(PID.TID 0000.0001)     Wall clock time:  0.6498878
(PID.TID 0000.0001)          No. starts: 10
(PID.TID 0000.0001)           No. stops: 10
(PID.TID 0000.0001)   Seconds in section "DO_THE_MODEL_IO     [FORWARD_STEP]":
(PID.TID 0000.0001)           User time:  0.11297977
(PID.TID 0000.0001)         System time:  0.0309949964
(PID.TID 0000.0001)     Wall clock time:  0.144702911
(PID.TID 0000.0001)          No. starts: 10
(PID.TID 0000.0001)           No. stops: 10
(PID.TID 0000.0001)   Seconds in section "WRITE_CHECKPOINT    [FORWARD_STEP]":
(PID.TID 0000.0001)           User time:  0.
(PID.TID 0000.0001)         System time:  0.
(PID.TID 0000.0001)     Wall clock time:  0.000358819962
(PID.TID 0000.0001)          No. starts: 10
(PID.TID 0000.0001)           No. stops: 10
(PID.TID 0000.0001)   Seconds in section "WRITE_CHECKPOINT       [THE_MODEL_MAIN]":
(PID.TID 0000.0001)           User time:  0.0879869461
(PID.TID 0000.0001)         System time:  0.0509920046
(PID.TID 0000.0001)     Wall clock time:  0.138984919
(PID.TID 0000.0001)          No. starts: 1
(PID.TID 0000.0001)           No. stops: 1
(PID.TID 0000.0001) // ======================================================
(PID.TID 0000.0001) // Tile <-> Tile communication statistics
(PID.TID 0000.0001) // ======================================================
(PID.TID 0000.0001) // o Tile number: 000001
(PID.TID 0000.0001) //         No. X exchanges =              0
(PID.TID 0000.0001) //            Max. X spins =              0
(PID.TID 0000.0001) //            Min. X spins =     1000000000
(PID.TID 0000.0001) //          Total. X spins =              0
(PID.TID 0000.0001) //            Avg. X spins =       0.00E+00
(PID.TID 0000.0001) //         No. Y exchanges =              0
(PID.TID 0000.0001) //            Max. Y spins =              0
(PID.TID 0000.0001) //            Min. Y spins =     1000000000
(PID.TID 0000.0001) //          Total. Y spins =              0
(PID.TID 0000.0001) //            Avg. Y spins =       0.00E+00
(PID.TID 0000.0001) // o Tile number: 000002
(PID.TID 0000.0001) //         No. X exchanges =              0
(PID.TID 0000.0001) //            Max. X spins =              0
(PID.TID 0000.0001) //            Min. X spins =     1000000000
(PID.TID 0000.0001) //          Total. X spins =              0
(PID.TID 0000.0001) //            Avg. X spins =       0.00E+00
(PID.TID 0000.0001) //         No. Y exchanges =              0
(PID.TID 0000.0001) //            Max. Y spins =              0
(PID.TID 0000.0001) //            Min. Y spins =     1000000000
(PID.TID 0000.0001) //          Total. Y spins =              0
(PID.TID 0000.0001) //            Avg. Y spins =       0.00E+00
(PID.TID 0000.0001) // o Thread number: 000001
(PID.TID 0000.0001) //            No. barriers =          27544
(PID.TID 0000.0001) //      Max. barrier spins =              1
(PID.TID 0000.0001) //      Min. barrier spins =              1
(PID.TID 0000.0001) //     Total barrier spins =          27544
(PID.TID 0000.0001) //      Avg. barrier spins =       1.00E+00
