(PID.TID 0000.0001) 
(PID.TID 0000.0001) // ======================================================
(PID.TID 0000.0001) //                      MITgcm UV
(PID.TID 0000.0001) //                      =========
(PID.TID 0000.0001) // ======================================================
(PID.TID 0000.0001) // execution environment starting up...
(PID.TID 0000.0001) // Run starting Wed Apr  1 14:19:48 1998
(PID.TID 0000.0001) // on melville.lcs.mit.edu
(PID.TID 0000.0001) // account cnh
(PID.TID 0000.0001) // MITgcm UV Release: $Name:  $
(PID.TID 0000.0001) 
(PID.TID 0000.0001) // =======================================================
(PID.TID 0000.0001) // Execution Environment parameter file "eedata"
(PID.TID 0000.0001) // =======================================================
(PID.TID 0000.0001) ># Example "eedata" file
(PID.TID 0000.0001) ># Lines beginning "#" are comments
(PID.TID 0000.0001) ># nTx - No. threads per process in X
(PID.TID 0000.0001) ># nTy - No. threads per process in Y
(PID.TID 0000.0001) > &EEPARMS
(PID.TID 0000.0001) > &
(PID.TID 0000.0001) ># Note: Some systems use & as the
(PID.TID 0000.0001) ># namelist terminator. Other systems
(PID.TID 0000.0001) ># use a / character (as shown here).
(PID.TID 0000.0001) 
(PID.TID 0000.0001) // =======================================================
(PID.TID 0000.0001) // Computational Grid Specification ( see files "SIZE.h" )
(PID.TID 0000.0001) //                                  ( and "eedata"       )
(PID.TID 0000.0001) // =======================================================
(PID.TID 0000.0001)      nPx =    1 ; /* No. processes in X */
(PID.TID 0000.0001)      nPy =    1 ; /* No. processes in Y */
(PID.TID 0000.0001)      nSx =    1 ; /* No. tiles in X per process */
(PID.TID 0000.0001)      nSy =    1 ; /* No. tiles in Y per process */
(PID.TID 0000.0001)      sNx =   80 ; /* Tile size in X */
(PID.TID 0000.0001)      sNy =   42 ; /* Tile size in Y */
(PID.TID 0000.0001)      OLx =    3 ; /* Tile overlap distance in X */
(PID.TID 0000.0001)      OLy =    3 ; /* Tile overlap distance in Y */
(PID.TID 0000.0001)      nTx =    1 ; /* No. threads in X per process */
(PID.TID 0000.0001)      nTy =    1 ; /* No. threads in Y per process */
(PID.TID 0000.0001)       Nr =    8 ; /* No. levels in the vertical   */
(PID.TID 0000.0001)       nX =   80 ; /* Total domain size in X ( = nPx*nSx*sNx ) */
(PID.TID 0000.0001)       nY =   42 ; /* Total domain size in Y ( = nPy*nSy*sNy ) */
(PID.TID 0000.0001)   nTiles =    1 ; /* Total no. tiles per process ( = nSx*nSy ) */
(PID.TID 0000.0001)   nProcs =    1 ; /* Total no. processes ( = nPx*nPy ) */
(PID.TID 0000.0001) nThreads =    1 ; /* Total no. threads per process ( = nTx*nTy ) */
(PID.TID 0000.0001) usingMPI =    F ; /* Flag used to control whether MPI is in use */
(PID.TID 0000.0001)                   /*  note: To execute a program with MPI calls */
(PID.TID 0000.0001)                   /*  it must be launched appropriately e.g     */
(PID.TID 0000.0001)                   /*  "mpirun -np 64 ......"                    */
(PID.TID 0000.0001) 
(PID.TID 0000.0001) // ======================================================
(PID.TID 0000.0001) // Mapping of tiles to threads
(PID.TID 0000.0001) // ======================================================
(PID.TID 0000.0001) // -o- Thread   1, tiles (   1:   1,   1:   1)
(PID.TID 0000.0001) 
(PID.TID 0000.0001) // ======================================================
(PID.TID 0000.0001) // Tile <-> Tile connectvity table
(PID.TID 0000.0001) // ======================================================
(PID.TID 0000.0001) // Tile number: 000001 (process no. = 000001)
(PID.TID 0000.0001) //        WEST: Tile = 000001, Process = 000001, Comm = put
(PID.TID 0000.0001) //                bi = 000001, bj = 000001
(PID.TID 0000.0001) //        EAST: Tile = 000001, Process = 000001, Comm = put
(PID.TID 0000.0001) //                bi = 000001, bj = 000001
(PID.TID 0000.0001) //       SOUTH: Tile = 000001, Process = 000001, Comm = put
(PID.TID 0000.0001) //                bi = 000001, bj = 000001
(PID.TID 0000.0001) //       NORTH: Tile = 000001, Process = 000001, Comm = put
(PID.TID 0000.0001) //                bi = 000001, bj = 000001
(PID.TID 0000.0001) 
(PID.TID 0000.0001) // =======================================================
(PID.TID 0000.0001) // Model parameter file "data"
(PID.TID 0000.0001) // =======================================================
(PID.TID 0000.0001) ># ====================
(PID.TID 0000.0001) ># | Model parameters |
(PID.TID 0000.0001) ># ====================
(PID.TID 0000.0001) >#
(PID.TID 0000.0001) ># Continuous equation parameters
(PID.TID 0000.0001) > &PARM01
(PID.TID 0000.0001) > tRef= 0.696834, 0.497738, 0.298643, 0.0995477, -0.0995477, -0.298643, -0.497738, -0.696834,
(PID.TID 0000.0001) > sRef= 8*35.,
(PID.TID 0000.0001) > viscAz=1.E-3,
(PID.TID 0000.0001) > viscAh=1.E3,
(PID.TID 0000.0001) > no_slip_sides=.FALSE.,
(PID.TID 0000.0001) > no_slip_bottom=.FALSE.,
(PID.TID 0000.0001) > viscA4=0.E12,
(PID.TID 0000.0001) > diffKhT=1.E3,
(PID.TID 0000.0001) > diffKzT=1.E-5,
(PID.TID 0000.0001) > diffKhS=1.E3,
(PID.TID 0000.0001) > diffKzS=1.E-5,
(PID.TID 0000.0001) > f0=1.e-4,
(PID.TID 0000.0001) > beta=0.E-11,
(PID.TID 0000.0001) > tAlpha=2.E-4,
(PID.TID 0000.0001) > sBeta =0.E-4,
(PID.TID 0000.0001) > gravity=9.81,
(PID.TID 0000.0001) > gBaro=9.81,
(PID.TID 0000.0001) > rigidLid=.FALSE.,
(PID.TID 0000.0001) > implicitFreeSurface=.TRUE.,
(PID.TID 0000.0001) > eosType='LINEAR',
(PID.TID 0000.0001) > hFacMin=0.2,
(PID.TID 0000.0001) > nonHydrostatic=.FALSE.,
(PID.TID 0000.0001) > readBinaryPrec=64,
(PID.TID 0000.0001) > globalFiles=.TRUE.,
(PID.TID 0000.0001) > &
(PID.TID 0000.0001) >
(PID.TID 0000.0001) ># Elliptic solver parameters
(PID.TID 0000.0001) > &PARM02
(PID.TID 0000.0001) > cg2dMaxIters=1000,
(PID.TID 0000.0001) > cg2dTargetResidual=1.E-13,
(PID.TID 0000.0001) > cg3dMaxIters=400,
(PID.TID 0000.0001) > cg3dTargetResidual=1.E-13,
(PID.TID 0000.0001) > &
(PID.TID 0000.0001) >
(PID.TID 0000.0001) ># Time stepping parameters
(PID.TID 0000.0001) > &PARM03
(PID.TID 0000.0001) > niter0=0,
(PID.TID 0000.0001) > nTimeSteps=10,
(PID.TID 0000.0001) > deltaT=600.0,
(PID.TID 0000.0001) > abEps=0.1,
(PID.TID 0000.0001) > pChkptFreq=3000.0,
(PID.TID 0000.0001) > chkptFreq=0.0,
(PID.TID 0000.0001) > dumpFreq=10800.0,
(PID.TID 0000.0001) > monitorFreq=1.,
(PID.TID 0000.0001) > &
(PID.TID 0000.0001) >
(PID.TID 0000.0001) ># Gridding parameters
(PID.TID 0000.0001) > &PARM04
(PID.TID 0000.0001) > usingCartesianGrid=.TRUE.,
(PID.TID 0000.0001) > usingSphericalPolarGrid=.FALSE.,
(PID.TID 0000.0001) > delX=80*5.e3,
(PID.TID 0000.0001) > delY=42*5.e3,
(PID.TID 0000.0001) > delZ= 8*562.5,
(PID.TID 0000.0001) > &
(PID.TID 0000.0001) >
(PID.TID 0000.0001) ># Input datasets
(PID.TID 0000.0001) > &PARM05
(PID.TID 0000.0001) > bathyFile='topog.bump',
(PID.TID 0000.0001) > &
(PID.TID 0000.0001) 
(PID.TID 0000.0001) %MON XC_max                       =   3.9750000000000E+05
(PID.TID 0000.0001) %MON XC_min                       =   2.5000000000000E+03
(PID.TID 0000.0001) %MON XC_mean                      =   2.0000000000000E+05
(PID.TID 0000.0001) %MON XC_sd                        =   1.1546103238755E+05
(PID.TID 0000.0001) %MON XG_max                       =   3.9500000000000E+05
(PID.TID 0000.0001) %MON XG_min                       =   5.0000000000000E+03
(PID.TID 0000.0001) %MON XG_mean                      =   2.0000000000000E+05
(PID.TID 0000.0001) %MON XG_sd                        =   1.1401754250991E+05
(PID.TID 0000.0001) %MON DXC_max                      =   5.0000000000000E+03
(PID.TID 0000.0001) %MON DXC_min                      =   5.0000000000000E+03
(PID.TID 0000.0001) %MON DXC_mean                     =   5.0000000000000E+03
(PID.TID 0000.0001) %MON DXC_sd                       =   0.0000000000000E+00
(PID.TID 0000.0001) %MON DXF_max                      =   5.0000000000000E+03
(PID.TID 0000.0001) %MON DXF_min                      =   5.0000000000000E+03
(PID.TID 0000.0001) %MON DXF_mean                     =   5.0000000000000E+03
(PID.TID 0000.0001) %MON DXF_sd                       =   0.0000000000000E+00
(PID.TID 0000.0001) %MON DXG_max                      =   5.0000000000000E+03
(PID.TID 0000.0001) %MON DXG_min                      =   5.0000000000000E+03
(PID.TID 0000.0001) %MON DXG_mean                     =   5.0000000000000E+03
(PID.TID 0000.0001) %MON DXG_sd                       =   0.0000000000000E+00
(PID.TID 0000.0001) %MON DXV_max                      =   5.0000000000000E+03
(PID.TID 0000.0001) %MON DXV_min                      =   5.0000000000000E+03
(PID.TID 0000.0001) %MON DXV_mean                     =   5.0000000000000E+03
(PID.TID 0000.0001) %MON DXV_sd                       =   0.0000000000000E+00
(PID.TID 0000.0001) %MON YC_max                       =   2.0750000000000E+05
(PID.TID 0000.0001) %MON YC_min                       =   2.5000000000000E+03
(PID.TID 0000.0001) %MON YC_mean                      =   1.0500000000000E+05
(PID.TID 0000.0001) %MON YC_sd                        =   6.0604592785256E+04
(PID.TID 0000.0001) %MON YG_max                       =   2.0500000000000E+05
(PID.TID 0000.0001) %MON YG_min                       =   5.0000000000000E+03
(PID.TID 0000.0001) %MON YG_mean                      =   1.0500000000000E+05
(PID.TID 0000.0001) %MON YG_sd                        =   5.9160797830996E+04
(PID.TID 0000.0001) %MON DYC_max                      =   5.0000000000000E+03
(PID.TID 0000.0001) %MON DYC_min                      =   5.0000000000000E+03
(PID.TID 0000.0001) %MON DYC_mean                     =   5.0000000000000E+03
(PID.TID 0000.0001) %MON DYC_sd                       =   0.0000000000000E+00
(PID.TID 0000.0001) %MON DYF_max                      =   5.0000000000000E+03
(PID.TID 0000.0001) %MON DYF_min                      =   5.0000000000000E+03
(PID.TID 0000.0001) %MON DYF_mean                     =   5.0000000000000E+03
(PID.TID 0000.0001) %MON DYF_sd                       =   0.0000000000000E+00
(PID.TID 0000.0001) %MON DYG_max                      =   5.0000000000000E+03
(PID.TID 0000.0001) %MON DYG_min                      =   5.0000000000000E+03
(PID.TID 0000.0001) %MON DYG_mean                     =   5.0000000000000E+03
(PID.TID 0000.0001) %MON DYG_sd                       =   0.0000000000000E+00
(PID.TID 0000.0001) %MON DYU_max                      =   5.0000000000000E+03
(PID.TID 0000.0001) %MON DYU_min                      =   5.0000000000000E+03
(PID.TID 0000.0001) %MON DYU_mean                     =   5.0000000000000E+03
(PID.TID 0000.0001) %MON DYU_sd                       =   0.0000000000000E+00
(PID.TID 0000.0001) %MON RA_max                       =   2.5000000000000E+07
(PID.TID 0000.0001) %MON RA_min                       =   2.5000000000000E+07
(PID.TID 0000.0001) %MON RA_mean                      =   2.5000000000000E+07
(PID.TID 0000.0001) %MON RA_sd                        =   0.0000000000000E+00
(PID.TID 0000.0001) %MON RAW_max                      =   2.5000000000000E+07
(PID.TID 0000.0001) %MON RAW_min                      =   2.5000000000000E+07
(PID.TID 0000.0001) %MON RAW_mean                     =   2.5000000000000E+07
(PID.TID 0000.0001) %MON RAW_sd                       =   0.0000000000000E+00
(PID.TID 0000.0001) %MON RAS_max                      =   2.5000000000000E+07
(PID.TID 0000.0001) %MON RAS_min                      =   2.5000000000000E+07
(PID.TID 0000.0001) %MON RAS_mean                     =   2.5000000000000E+07
(PID.TID 0000.0001) %MON RAS_sd                       =   0.0000000000000E+00
(PID.TID 0000.0001) %MON RAZ_max                      =   2.5000000000000E+07
(PID.TID 0000.0001) %MON RAZ_min                      =   2.5000000000000E+07
(PID.TID 0000.0001) %MON RAZ_mean                     =   2.5000000000000E+07
(PID.TID 0000.0001) %MON RAZ_sd                       =   0.0000000000000E+00
(PID.TID 0000.0001)  MDSREADFIELD: opening global file: topog.bump
(PID.TID 0000.0001) // =======================================================
(PID.TID 0000.0001) // Field Model R_low (ini_masks_etc) at iteration          1
(PID.TID 0000.0001) // CMIN =         -4.500000000000000E+03
(PID.TID 0000.0001) // CMAX =         -4.902981733158691E+02
(PID.TID 0000.0001) // CINT =          1.485074750623752E+02
(PID.TID 0000.0001) // SYMBOLS (CMIN->CMAX): -abcdefghijklmnopqrstuvwxyz+
(PID.TID 0000.0001) //                  0.0: .
(PID.TID 0000.0001) // RANGE I (Lo:Hi:Step):(  -2:  83:   1)
(PID.TID 0000.0001) // RANGE J (Lo:Hi:Step):(  45:  -2:  -1)
(PID.TID 0000.0001) // RANGE K (Lo:Hi:Step):(   1:   1:   1)
(PID.TID 0000.0001) // =======================================================
(PID.TID 0000.0001) K =   1
(PID.TID 0000.0001) //                I=7       I=17      I=27      I=37      I=47      I=57      I=67      I=77
(PID.TID 0000.0001) // |--J--|**0123456|890123456|890123456|890123456|890123456|890123456|890123456|890123456|890123
(PID.TID 0000.0001) //     45 --------------------------------------------------------------------------------------
(PID.TID 0000.0001) //     44 --------------------------------------------------------------------------------------
(PID.TID 0000.0001) //     43 --------------------------------------------------------------------------------------
(PID.TID 0000.0001) //     42 --------------------------------------------------------------------------------------
(PID.TID 0000.0001) //     41 --------------------------------------------------------------------------------------
(PID.TID 0000.0001) //     40 --------------------------------------------------------------------------------------
(PID.TID 0000.0001) //     39 --------------------------------------------------------------------------------------
(PID.TID 0000.0001) //     38 --------------------------------------------------------------------------------------
(PID.TID 0000.0001) //     37 --------------------------------------------------------------------------------------
(PID.TID 0000.0001) //     36 --------------------------------------------------------------------------------------
(PID.TID 0000.0001) //     35 ---------------------------------------aaaaaaaa---------------------------------------
(PID.TID 0000.0001) //     34 ------------------------------------aaaaaaaaaaaaaa------------------------------------
(PID.TID 0000.0001) //     33 -----------------------------------aaaabbbbbbbbaaaa-----------------------------------
(PID.TID 0000.0001) //     32 ----------------------------------aaabbbccccccbbbaaa----------------------------------
(PID.TID 0000.0001) //     31 ---------------------------------aaabbcddddddddcbbaaa---------------------------------
(PID.TID 0000.0001) //     30 --------------------------------aabbcddeffffffeddcbbaa--------------------------------
(PID.TID 0000.0001) //     29 -------------------------------aaabcdefghhiihhgfedcbaaa-------------------------------
(PID.TID 0000.0001) //     28 ------------------------------aaabcdefhijkllkjihfedcbaaa------------------------------
(PID.TID 0000.0001) //     27 ------------------------------aabbdefhjlmnoonmljhfedbbaa------------------------------
(PID.TID 0000.0001) //     26 ------------------------------aabcdfhjlnpqrrqpnljhfdcbaa------------------------------
(PID.TID 0000.0001) //     25 -----------------------------aabbdegilnqstuutsqnligedbbaa-----------------------------
(PID.TID 0000.0001) //     24 -----------------------------aabcdfhjmpsuwxxwuspmjhfdcbaa-----------------------------
(PID.TID 0000.0001) //     23 -----------------------------aabcdfhknqtwyzzywtqnkhfdcbaa-----------------------------
(PID.TID 0000.0001) //     22 -----------------------------aabcdfiloruxz++zxurolifdcbaa-----------------------------
(PID.TID 0000.0001) //     21 -----------------------------aabcdfiloruxz++zxurolifdcbaa-----------------------------
(PID.TID 0000.0001) //     20 -----------------------------aabcdfhknqtwyzzywtqnkhfdcbaa-----------------------------
(PID.TID 0000.0001) //     19 -----------------------------aabcdfhjmpsuwxxwuspmjhfdcbaa-----------------------------
(PID.TID 0000.0001) //     18 -----------------------------aabbdegilnqstuutsqnligedbbaa-----------------------------
(PID.TID 0000.0001) //     17 ------------------------------aabcdfhjlnpqrrqpnljhfdcbaa------------------------------
(PID.TID 0000.0001) //     16 ------------------------------aabbdefhjlmnoonmljhfedbbaa------------------------------
(PID.TID 0000.0001) //     15 ------------------------------aaabcdefhijkllkjihfedcbaaa------------------------------
(PID.TID 0000.0001) //     14 -------------------------------aaabcdefghhiihhgfedcbaaa-------------------------------
(PID.TID 0000.0001) //     13 --------------------------------aabbcddeffffffeddcbbaa--------------------------------
(PID.TID 0000.0001) //     12 ---------------------------------aaabbcddddddddcbbaaa---------------------------------
(PID.TID 0000.0001) //     11 ----------------------------------aaabbbccccccbbbaaa----------------------------------
(PID.TID 0000.0001) //     10 -----------------------------------aaaabbbbbbbbaaaa-----------------------------------
(PID.TID 0000.0001) //      9 ------------------------------------aaaaaaaaaaaaaa------------------------------------
(PID.TID 0000.0001) //      8 ---------------------------------------aaaaaaaa---------------------------------------
(PID.TID 0000.0001) //      7 --------------------------------------------------------------------------------------
(PID.TID 0000.0001) //      6 --------------------------------------------------------------------------------------
(PID.TID 0000.0001) //      5 --------------------------------------------------------------------------------------
(PID.TID 0000.0001) //      4 --------------------------------------------------------------------------------------
(PID.TID 0000.0001) //      3 --------------------------------------------------------------------------------------
(PID.TID 0000.0001) //      2 --------------------------------------------------------------------------------------
(PID.TID 0000.0001) //      1 --------------------------------------------------------------------------------------
(PID.TID 0000.0001) //      0 --------------------------------------------------------------------------------------
(PID.TID 0000.0001) //     -1 --------------------------------------------------------------------------------------
(PID.TID 0000.0001) //     -2 --------------------------------------------------------------------------------------
(PID.TID 0000.0001) // =======================================================
(PID.TID 0000.0001) // END OF FIELD                                          =
(PID.TID 0000.0001) // =======================================================
(PID.TID 0000.0001) 
(PID.TID 0000.0001) // =======================================================
(PID.TID 0000.0001) // Field Model Ro_surf (ini_masks_etc) at iteration          1
(PID.TID 0000.0001) // CMIN =         -2.142730437526552E-14
(PID.TID 0000.0001) // CMAX =         -2.142730437526552E-14
(PID.TID 0000.0001) // CINT =          0.000000000000000E+00
(PID.TID 0000.0001) // SYMBOLS (CMIN->CMAX): -abcdefghijklmnopqrstuvwxyz+
(PID.TID 0000.0001) //                  0.0: .
(PID.TID 0000.0001) // RANGE I (Lo:Hi:Step):(  -2:  83:   1)
(PID.TID 0000.0001) // RANGE J (Lo:Hi:Step):(  45:  -2:  -1)
(PID.TID 0000.0001) // RANGE K (Lo:Hi:Step):(   1:   1:   1)
(PID.TID 0000.0001) // =======================================================
(PID.TID 0000.0001) K =   1
(PID.TID 0000.0001) //                I=7       I=17      I=27      I=37      I=47      I=57      I=67      I=77
(PID.TID 0000.0001) // |--J--|**0123456|890123456|890123456|890123456|890123456|890123456|890123456|890123456|890123
(PID.TID 0000.0001) //     45 ......................................................................................
(PID.TID 0000.0001) //     44 ......................................................................................
(PID.TID 0000.0001) //     43 ......................................................................................
(PID.TID 0000.0001) //     42 ......................................................................................
(PID.TID 0000.0001) //     41 ......................................................................................
(PID.TID 0000.0001) //     40 ......................................................................................
(PID.TID 0000.0001) //     39 ......................................................................................
(PID.TID 0000.0001) //     38 ......................................................................................
(PID.TID 0000.0001) //     37 ......................................................................................
(PID.TID 0000.0001) //     36 ......................................................................................
(PID.TID 0000.0001) //     35 ......................................................................................
(PID.TID 0000.0001) //     34 ......................................................................................
(PID.TID 0000.0001) //     33 ......................................................................................
(PID.TID 0000.0001) //     32 ......................................................................................
(PID.TID 0000.0001) //     31 ......................................................................................
(PID.TID 0000.0001) //     30 ......................................................................................
(PID.TID 0000.0001) //     29 ......................................................................................
(PID.TID 0000.0001) //     28 ......................................................................................
(PID.TID 0000.0001) //     27 ......................................................................................
(PID.TID 0000.0001) //     26 ......................................................................................
(PID.TID 0000.0001) //     25 ......................................................................................
(PID.TID 0000.0001) //     24 ......................................................................................
(PID.TID 0000.0001) //     23 ......................................................................................
(PID.TID 0000.0001) //     22 ..........................................--..........................................
(PID.TID 0000.0001) //     21 ..........................................--..........................................
(PID.TID 0000.0001) //     20 ......................................................................................
(PID.TID 0000.0001) //     19 ......................................................................................
(PID.TID 0000.0001) //     18 ......................................................................................
(PID.TID 0000.0001) //     17 ......................................................................................
(PID.TID 0000.0001) //     16 ......................................................................................
(PID.TID 0000.0001) //     15 ......................................................................................
(PID.TID 0000.0001) //     14 ......................................................................................
(PID.TID 0000.0001) //     13 ......................................................................................
(PID.TID 0000.0001) //     12 ......................................................................................
(PID.TID 0000.0001) //     11 ......................................................................................
(PID.TID 0000.0001) //     10 ......................................................................................
(PID.TID 0000.0001) //      9 ......................................................................................
(PID.TID 0000.0001) //      8 ......................................................................................
(PID.TID 0000.0001) //      7 ......................................................................................
(PID.TID 0000.0001) //      6 ......................................................................................
(PID.TID 0000.0001) //      5 ......................................................................................
(PID.TID 0000.0001) //      4 ......................................................................................
(PID.TID 0000.0001) //      3 ......................................................................................
(PID.TID 0000.0001) //      2 ......................................................................................
(PID.TID 0000.0001) //      1 ......................................................................................
(PID.TID 0000.0001) //      0 ......................................................................................
(PID.TID 0000.0001) //     -1 ......................................................................................
(PID.TID 0000.0001) //     -2 ......................................................................................
(PID.TID 0000.0001) // =======================================================
(PID.TID 0000.0001) // END OF FIELD                                          =
(PID.TID 0000.0001) // =======================================================
(PID.TID 0000.0001) 
(PID.TID 0000.0001) // =======================================================
(PID.TID 0000.0001) // Field hFacC at iteration          1
(PID.TID 0000.0001) // CMIN =          8.716411970059894E-01
(PID.TID 0000.0001) // CMAX =          1.000000000000000E+00
(PID.TID 0000.0001) // CINT =          4.754029740518911E-03
(PID.TID 0000.0001) // SYMBOLS (CMIN->CMAX): -abcdefghijklmnopqrstuvwxyz+
(PID.TID 0000.0001) //                  0.0: .
(PID.TID 0000.0001) // RANGE I (Lo:Hi:Step):(  -2:  83:   1)
(PID.TID 0000.0001) // RANGE J (Lo:Hi:Step):(  45:  -2:  -1)
(PID.TID 0000.0001) // RANGE K (Lo:Hi:Step):(   1:   1:   1)
(PID.TID 0000.0001) // =======================================================
(PID.TID 0000.0001) K =   1
(PID.TID 0000.0001) //                I=7       I=17      I=27      I=37      I=47      I=57      I=67      I=77
(PID.TID 0000.0001) // |--J--|**0123456|890123456|890123456|890123456|890123456|890123456|890123456|890123456|890123
(PID.TID 0000.0001) //     45 ++++++++++++++++++++++++++++++++++++++++++++++++++++++++++++++++++++++++++++++++++++++
(PID.TID 0000.0001) //     44 ++++++++++++++++++++++++++++++++++++++++++++++++++++++++++++++++++++++++++++++++++++++
(PID.TID 0000.0001) //     43 ++++++++++++++++++++++++++++++++++++++++++++++++++++++++++++++++++++++++++++++++++++++
(PID.TID 0000.0001) //     42 ++++++++++++++++++++++++++++++++++++++++++++++++++++++++++++++++++++++++++++++++++++++
(PID.TID 0000.0001) //     41 ++++++++++++++++++++++++++++++++++++++++++++++++++++++++++++++++++++++++++++++++++++++
(PID.TID 0000.0001) //     40 ++++++++++++++++++++++++++++++++++++++++++++++++++++++++++++++++++++++++++++++++++++++
(PID.TID 0000.0001) //     39 ++++++++++++++++++++++++++++++++++++++++++++++++++++++++++++++++++++++++++++++++++++++
(PID.TID 0000.0001) //     38 ++++++++++++++++++++++++++++++++++++++++++++++++++++++++++++++++++++++++++++++++++++++
(PID.TID 0000.0001) //     37 ++++++++++++++++++++++++++++++++++++++++++++++++++++++++++++++++++++++++++++++++++++++
(PID.TID 0000.0001) //     36 ++++++++++++++++++++++++++++++++++++++++++++++++++++++++++++++++++++++++++++++++++++++
(PID.TID 0000.0001) //     35 ++++++++++++++++++++++++++++++++++++++++++++++++++++++++++++++++++++++++++++++++++++++
(PID.TID 0000.0001) //     34 ++++++++++++++++++++++++++++++++++++++++++++++++++++++++++++++++++++++++++++++++++++++
(PID.TID 0000.0001) //     33 ++++++++++++++++++++++++++++++++++++++++++++++++++++++++++++++++++++++++++++++++++++++
(PID.TID 0000.0001) //     32 ++++++++++++++++++++++++++++++++++++++++++++++++++++++++++++++++++++++++++++++++++++++
(PID.TID 0000.0001) //     31 ++++++++++++++++++++++++++++++++++++++++++++++++++++++++++++++++++++++++++++++++++++++
(PID.TID 0000.0001) //     30 ++++++++++++++++++++++++++++++++++++++++++++++++++++++++++++++++++++++++++++++++++++++
(PID.TID 0000.0001) //     29 ++++++++++++++++++++++++++++++++++++++++++++++++++++++++++++++++++++++++++++++++++++++
(PID.TID 0000.0001) //     28 ++++++++++++++++++++++++++++++++++++++++++++++++++++++++++++++++++++++++++++++++++++++
(PID.TID 0000.0001) //     27 ++++++++++++++++++++++++++++++++++++++++++++++++++++++++++++++++++++++++++++++++++++++
(PID.TID 0000.0001) //     26 ++++++++++++++++++++++++++++++++++++++++++++++++++++++++++++++++++++++++++++++++++++++
(PID.TID 0000.0001) //     25 ++++++++++++++++++++++++++++++++++++++++++++++++++++++++++++++++++++++++++++++++++++++
(PID.TID 0000.0001) //     24 ++++++++++++++++++++++++++++++++++++++++++++++++++++++++++++++++++++++++++++++++++++++
(PID.TID 0000.0001) //     23 ++++++++++++++++++++++++++++++++++++++++++++++++++++++++++++++++++++++++++++++++++++++
(PID.TID 0000.0001) //     22 ++++++++++++++++++++++++++++++++++++++++++--++++++++++++++++++++++++++++++++++++++++++
(PID.TID 0000.0001) //     21 ++++++++++++++++++++++++++++++++++++++++++--++++++++++++++++++++++++++++++++++++++++++
(PID.TID 0000.0001) //     20 ++++++++++++++++++++++++++++++++++++++++++++++++++++++++++++++++++++++++++++++++++++++
(PID.TID 0000.0001) //     19 ++++++++++++++++++++++++++++++++++++++++++++++++++++++++++++++++++++++++++++++++++++++
(PID.TID 0000.0001) //     18 ++++++++++++++++++++++++++++++++++++++++++++++++++++++++++++++++++++++++++++++++++++++
(PID.TID 0000.0001) //     17 ++++++++++++++++++++++++++++++++++++++++++++++++++++++++++++++++++++++++++++++++++++++
(PID.TID 0000.0001) //     16 ++++++++++++++++++++++++++++++++++++++++++++++++++++++++++++++++++++++++++++++++++++++
(PID.TID 0000.0001) //     15 ++++++++++++++++++++++++++++++++++++++++++++++++++++++++++++++++++++++++++++++++++++++
(PID.TID 0000.0001) //     14 ++++++++++++++++++++++++++++++++++++++++++++++++++++++++++++++++++++++++++++++++++++++
(PID.TID 0000.0001) //     13 ++++++++++++++++++++++++++++++++++++++++++++++++++++++++++++++++++++++++++++++++++++++
(PID.TID 0000.0001) //     12 ++++++++++++++++++++++++++++++++++++++++++++++++++++++++++++++++++++++++++++++++++++++
(PID.TID 0000.0001) //     11 ++++++++++++++++++++++++++++++++++++++++++++++++++++++++++++++++++++++++++++++++++++++
(PID.TID 0000.0001) //     10 ++++++++++++++++++++++++++++++++++++++++++++++++++++++++++++++++++++++++++++++++++++++
(PID.TID 0000.0001) //      9 ++++++++++++++++++++++++++++++++++++++++++++++++++++++++++++++++++++++++++++++++++++++
(PID.TID 0000.0001) //      8 ++++++++++++++++++++++++++++++++++++++++++++++++++++++++++++++++++++++++++++++++++++++
(PID.TID 0000.0001) //      7 ++++++++++++++++++++++++++++++++++++++++++++++++++++++++++++++++++++++++++++++++++++++
(PID.TID 0000.0001) //      6 ++++++++++++++++++++++++++++++++++++++++++++++++++++++++++++++++++++++++++++++++++++++
(PID.TID 0000.0001) //      5 ++++++++++++++++++++++++++++++++++++++++++++++++++++++++++++++++++++++++++++++++++++++
(PID.TID 0000.0001) //      4 ++++++++++++++++++++++++++++++++++++++++++++++++++++++++++++++++++++++++++++++++++++++
(PID.TID 0000.0001) //      3 ++++++++++++++++++++++++++++++++++++++++++++++++++++++++++++++++++++++++++++++++++++++
(PID.TID 0000.0001) //      2 ++++++++++++++++++++++++++++++++++++++++++++++++++++++++++++++++++++++++++++++++++++++
(PID.TID 0000.0001) //      1 ++++++++++++++++++++++++++++++++++++++++++++++++++++++++++++++++++++++++++++++++++++++
(PID.TID 0000.0001) //      0 ++++++++++++++++++++++++++++++++++++++++++++++++++++++++++++++++++++++++++++++++++++++
(PID.TID 0000.0001) //     -1 ++++++++++++++++++++++++++++++++++++++++++++++++++++++++++++++++++++++++++++++++++++++
(PID.TID 0000.0001) //     -2 ++++++++++++++++++++++++++++++++++++++++++++++++++++++++++++++++++++++++++++++++++++++
(PID.TID 0000.0001) // =======================================================
(PID.TID 0000.0001) // END OF FIELD                                          =
(PID.TID 0000.0001) // =======================================================
(PID.TID 0000.0001) 
(PID.TID 0000.0001) // =======================================================
(PID.TID 0000.0001) // Field hFacW at iteration          1
(PID.TID 0000.0001) // CMIN =          8.716411970059894E-01
(PID.TID 0000.0001) // CMAX =          1.000000000000000E+00
(PID.TID 0000.0001) // CINT =          4.754029740518911E-03
(PID.TID 0000.0001) // SYMBOLS (CMIN->CMAX): -abcdefghijklmnopqrstuvwxyz+
(PID.TID 0000.0001) //                  0.0: .
(PID.TID 0000.0001) // RANGE I (Lo:Hi:Step):(  -2:  83:   1)
(PID.TID 0000.0001) // RANGE J (Lo:Hi:Step):(  45:  -2:  -1)
(PID.TID 0000.0001) // RANGE K (Lo:Hi:Step):(   1:   1:   1)
(PID.TID 0000.0001) // =======================================================
(PID.TID 0000.0001) K =   1
(PID.TID 0000.0001) //                I=7       I=17      I=27      I=37      I=47      I=57      I=67      I=77
(PID.TID 0000.0001) // |--J--|**0123456|890123456|890123456|890123456|890123456|890123456|890123456|890123456|890123
(PID.TID 0000.0001) //     45 ++++++++++++++++++++++++++++++++++++++++++++++++++++++++++++++++++++++++++++++++++++++
(PID.TID 0000.0001) //     44 ++++++++++++++++++++++++++++++++++++++++++++++++++++++++++++++++++++++++++++++++++++++
(PID.TID 0000.0001) //     43 ++++++++++++++++++++++++++++++++++++++++++++++++++++++++++++++++++++++++++++++++++++++
(PID.TID 0000.0001) //     42 ++++++++++++++++++++++++++++++++++++++++++++++++++++++++++++++++++++++++++++++++++++++
(PID.TID 0000.0001) //     41 ++++++++++++++++++++++++++++++++++++++++++++++++++++++++++++++++++++++++++++++++++++++
(PID.TID 0000.0001) //     40 ++++++++++++++++++++++++++++++++++++++++++++++++++++++++++++++++++++++++++++++++++++++
(PID.TID 0000.0001) //     39 ++++++++++++++++++++++++++++++++++++++++++++++++++++++++++++++++++++++++++++++++++++++
(PID.TID 0000.0001) //     38 ++++++++++++++++++++++++++++++++++++++++++++++++++++++++++++++++++++++++++++++++++++++
(PID.TID 0000.0001) //     37 ++++++++++++++++++++++++++++++++++++++++++++++++++++++++++++++++++++++++++++++++++++++
(PID.TID 0000.0001) //     36 ++++++++++++++++++++++++++++++++++++++++++++++++++++++++++++++++++++++++++++++++++++++
(PID.TID 0000.0001) //     35 ++++++++++++++++++++++++++++++++++++++++++++++++++++++++++++++++++++++++++++++++++++++
(PID.TID 0000.0001) //     34 ++++++++++++++++++++++++++++++++++++++++++++++++++++++++++++++++++++++++++++++++++++++
(PID.TID 0000.0001) //     33 ++++++++++++++++++++++++++++++++++++++++++++++++++++++++++++++++++++++++++++++++++++++
(PID.TID 0000.0001) //     32 ++++++++++++++++++++++++++++++++++++++++++++++++++++++++++++++++++++++++++++++++++++++
(PID.TID 0000.0001) //     31 ++++++++++++++++++++++++++++++++++++++++++++++++++++++++++++++++++++++++++++++++++++++
(PID.TID 0000.0001) //     30 ++++++++++++++++++++++++++++++++++++++++++++++++++++++++++++++++++++++++++++++++++++++
(PID.TID 0000.0001) //     29 ++++++++++++++++++++++++++++++++++++++++++++++++++++++++++++++++++++++++++++++++++++++
(PID.TID 0000.0001) //     28 ++++++++++++++++++++++++++++++++++++++++++++++++++++++++++++++++++++++++++++++++++++++
(PID.TID 0000.0001) //     27 ++++++++++++++++++++++++++++++++++++++++++++++++++++++++++++++++++++++++++++++++++++++
(PID.TID 0000.0001) //     26 ++++++++++++++++++++++++++++++++++++++++++++++++++++++++++++++++++++++++++++++++++++++
(PID.TID 0000.0001) //     25 ++++++++++++++++++++++++++++++++++++++++++++++++++++++++++++++++++++++++++++++++++++++
(PID.TID 0000.0001) //     24 ++++++++++++++++++++++++++++++++++++++++++++++++++++++++++++++++++++++++++++++++++++++
(PID.TID 0000.0001) //     23 ++++++++++++++++++++++++++++++++++++++++++++++++++++++++++++++++++++++++++++++++++++++
(PID.TID 0000.0001) //     22 ++++++++++++++++++++++++++++++++++++++++++---+++++++++++++++++++++++++++++++++++++++++
(PID.TID 0000.0001) //     21 ++++++++++++++++++++++++++++++++++++++++++---+++++++++++++++++++++++++++++++++++++++++
(PID.TID 0000.0001) //     20 ++++++++++++++++++++++++++++++++++++++++++++++++++++++++++++++++++++++++++++++++++++++
(PID.TID 0000.0001) //     19 ++++++++++++++++++++++++++++++++++++++++++++++++++++++++++++++++++++++++++++++++++++++
(PID.TID 0000.0001) //     18 ++++++++++++++++++++++++++++++++++++++++++++++++++++++++++++++++++++++++++++++++++++++
(PID.TID 0000.0001) //     17 ++++++++++++++++++++++++++++++++++++++++++++++++++++++++++++++++++++++++++++++++++++++
(PID.TID 0000.0001) //     16 ++++++++++++++++++++++++++++++++++++++++++++++++++++++++++++++++++++++++++++++++++++++
(PID.TID 0000.0001) //     15 ++++++++++++++++++++++++++++++++++++++++++++++++++++++++++++++++++++++++++++++++++++++
(PID.TID 0000.0001) //     14 ++++++++++++++++++++++++++++++++++++++++++++++++++++++++++++++++++++++++++++++++++++++
(PID.TID 0000.0001) //     13 ++++++++++++++++++++++++++++++++++++++++++++++++++++++++++++++++++++++++++++++++++++++
(PID.TID 0000.0001) //     12 ++++++++++++++++++++++++++++++++++++++++++++++++++++++++++++++++++++++++++++++++++++++
(PID.TID 0000.0001) //     11 ++++++++++++++++++++++++++++++++++++++++++++++++++++++++++++++++++++++++++++++++++++++
(PID.TID 0000.0001) //     10 ++++++++++++++++++++++++++++++++++++++++++++++++++++++++++++++++++++++++++++++++++++++
(PID.TID 0000.0001) //      9 ++++++++++++++++++++++++++++++++++++++++++++++++++++++++++++++++++++++++++++++++++++++
(PID.TID 0000.0001) //      8 ++++++++++++++++++++++++++++++++++++++++++++++++++++++++++++++++++++++++++++++++++++++
(PID.TID 0000.0001) //      7 ++++++++++++++++++++++++++++++++++++++++++++++++++++++++++++++++++++++++++++++++++++++
(PID.TID 0000.0001) //      6 ++++++++++++++++++++++++++++++++++++++++++++++++++++++++++++++++++++++++++++++++++++++
(PID.TID 0000.0001) //      5 ++++++++++++++++++++++++++++++++++++++++++++++++++++++++++++++++++++++++++++++++++++++
(PID.TID 0000.0001) //      4 ++++++++++++++++++++++++++++++++++++++++++++++++++++++++++++++++++++++++++++++++++++++
(PID.TID 0000.0001) //      3 ++++++++++++++++++++++++++++++++++++++++++++++++++++++++++++++++++++++++++++++++++++++
(PID.TID 0000.0001) //      2 ++++++++++++++++++++++++++++++++++++++++++++++++++++++++++++++++++++++++++++++++++++++
(PID.TID 0000.0001) //      1 ++++++++++++++++++++++++++++++++++++++++++++++++++++++++++++++++++++++++++++++++++++++
(PID.TID 0000.0001) //      0 ++++++++++++++++++++++++++++++++++++++++++++++++++++++++++++++++++++++++++++++++++++++
(PID.TID 0000.0001) //     -1 ++++++++++++++++++++++++++++++++++++++++++++++++++++++++++++++++++++++++++++++++++++++
(PID.TID 0000.0001) //     -2 ++++++++++++++++++++++++++++++++++++++++++++++++++++++++++++++++++++++++++++++++++++++
(PID.TID 0000.0001) // =======================================================
(PID.TID 0000.0001) // END OF FIELD                                          =
(PID.TID 0000.0001) // =======================================================
(PID.TID 0000.0001) 
(PID.TID 0000.0001) // =======================================================
(PID.TID 0000.0001) // Field hFacS at iteration          1
(PID.TID 0000.0001) // CMIN =          8.716411970059894E-01
(PID.TID 0000.0001) // CMAX =          1.000000000000000E+00
(PID.TID 0000.0001) // CINT =          4.754029740518911E-03
(PID.TID 0000.0001) // SYMBOLS (CMIN->CMAX): -abcdefghijklmnopqrstuvwxyz+
(PID.TID 0000.0001) //                  0.0: .
(PID.TID 0000.0001) // RANGE I (Lo:Hi:Step):(  -2:  83:   1)
(PID.TID 0000.0001) // RANGE J (Lo:Hi:Step):(  45:  -2:  -1)
(PID.TID 0000.0001) // RANGE K (Lo:Hi:Step):(   1:   1:   1)
(PID.TID 0000.0001) // =======================================================
(PID.TID 0000.0001) K =   1
(PID.TID 0000.0001) //                I=7       I=17      I=27      I=37      I=47      I=57      I=67      I=77
(PID.TID 0000.0001) // |--J--|**0123456|890123456|890123456|890123456|890123456|890123456|890123456|890123456|890123
(PID.TID 0000.0001) //     45 ++++++++++++++++++++++++++++++++++++++++++++++++++++++++++++++++++++++++++++++++++++++
(PID.TID 0000.0001) //     44 ++++++++++++++++++++++++++++++++++++++++++++++++++++++++++++++++++++++++++++++++++++++
(PID.TID 0000.0001) //     43 ++++++++++++++++++++++++++++++++++++++++++++++++++++++++++++++++++++++++++++++++++++++
(PID.TID 0000.0001) //     42 ++++++++++++++++++++++++++++++++++++++++++++++++++++++++++++++++++++++++++++++++++++++
(PID.TID 0000.0001) //     41 ++++++++++++++++++++++++++++++++++++++++++++++++++++++++++++++++++++++++++++++++++++++
(PID.TID 0000.0001) //     40 ++++++++++++++++++++++++++++++++++++++++++++++++++++++++++++++++++++++++++++++++++++++
(PID.TID 0000.0001) //     39 ++++++++++++++++++++++++++++++++++++++++++++++++++++++++++++++++++++++++++++++++++++++
(PID.TID 0000.0001) //     38 ++++++++++++++++++++++++++++++++++++++++++++++++++++++++++++++++++++++++++++++++++++++
(PID.TID 0000.0001) //     37 ++++++++++++++++++++++++++++++++++++++++++++++++++++++++++++++++++++++++++++++++++++++
(PID.TID 0000.0001) //     36 ++++++++++++++++++++++++++++++++++++++++++++++++++++++++++++++++++++++++++++++++++++++
(PID.TID 0000.0001) //     35 ++++++++++++++++++++++++++++++++++++++++++++++++++++++++++++++++++++++++++++++++++++++
(PID.TID 0000.0001) //     34 ++++++++++++++++++++++++++++++++++++++++++++++++++++++++++++++++++++++++++++++++++++++
(PID.TID 0000.0001) //     33 ++++++++++++++++++++++++++++++++++++++++++++++++++++++++++++++++++++++++++++++++++++++
(PID.TID 0000.0001) //     32 ++++++++++++++++++++++++++++++++++++++++++++++++++++++++++++++++++++++++++++++++++++++
(PID.TID 0000.0001) //     31 ++++++++++++++++++++++++++++++++++++++++++++++++++++++++++++++++++++++++++++++++++++++
(PID.TID 0000.0001) //     30 ++++++++++++++++++++++++++++++++++++++++++++++++++++++++++++++++++++++++++++++++++++++
(PID.TID 0000.0001) //     29 ++++++++++++++++++++++++++++++++++++++++++++++++++++++++++++++++++++++++++++++++++++++
(PID.TID 0000.0001) //     28 ++++++++++++++++++++++++++++++++++++++++++++++++++++++++++++++++++++++++++++++++++++++
(PID.TID 0000.0001) //     27 ++++++++++++++++++++++++++++++++++++++++++++++++++++++++++++++++++++++++++++++++++++++
(PID.TID 0000.0001) //     26 ++++++++++++++++++++++++++++++++++++++++++++++++++++++++++++++++++++++++++++++++++++++
(PID.TID 0000.0001) //     25 ++++++++++++++++++++++++++++++++++++++++++++++++++++++++++++++++++++++++++++++++++++++
(PID.TID 0000.0001) //     24 ++++++++++++++++++++++++++++++++++++++++++++++++++++++++++++++++++++++++++++++++++++++
(PID.TID 0000.0001) //     23 ++++++++++++++++++++++++++++++++++++++++++--++++++++++++++++++++++++++++++++++++++++++
(PID.TID 0000.0001) //     22 ++++++++++++++++++++++++++++++++++++++++++--++++++++++++++++++++++++++++++++++++++++++
(PID.TID 0000.0001) //     21 ++++++++++++++++++++++++++++++++++++++++++--++++++++++++++++++++++++++++++++++++++++++
(PID.TID 0000.0001) //     20 ++++++++++++++++++++++++++++++++++++++++++++++++++++++++++++++++++++++++++++++++++++++
(PID.TID 0000.0001) //     19 ++++++++++++++++++++++++++++++++++++++++++++++++++++++++++++++++++++++++++++++++++++++
(PID.TID 0000.0001) //     18 ++++++++++++++++++++++++++++++++++++++++++++++++++++++++++++++++++++++++++++++++++++++
(PID.TID 0000.0001) //     17 ++++++++++++++++++++++++++++++++++++++++++++++++++++++++++++++++++++++++++++++++++++++
(PID.TID 0000.0001) //     16 ++++++++++++++++++++++++++++++++++++++++++++++++++++++++++++++++++++++++++++++++++++++
(PID.TID 0000.0001) //     15 ++++++++++++++++++++++++++++++++++++++++++++++++++++++++++++++++++++++++++++++++++++++
(PID.TID 0000.0001) //     14 ++++++++++++++++++++++++++++++++++++++++++++++++++++++++++++++++++++++++++++++++++++++
(PID.TID 0000.0001) //     13 ++++++++++++++++++++++++++++++++++++++++++++++++++++++++++++++++++++++++++++++++++++++
(PID.TID 0000.0001) //     12 ++++++++++++++++++++++++++++++++++++++++++++++++++++++++++++++++++++++++++++++++++++++
(PID.TID 0000.0001) //     11 ++++++++++++++++++++++++++++++++++++++++++++++++++++++++++++++++++++++++++++++++++++++
(PID.TID 0000.0001) //     10 ++++++++++++++++++++++++++++++++++++++++++++++++++++++++++++++++++++++++++++++++++++++
(PID.TID 0000.0001) //      9 ++++++++++++++++++++++++++++++++++++++++++++++++++++++++++++++++++++++++++++++++++++++
(PID.TID 0000.0001) //      8 ++++++++++++++++++++++++++++++++++++++++++++++++++++++++++++++++++++++++++++++++++++++
(PID.TID 0000.0001) //      7 ++++++++++++++++++++++++++++++++++++++++++++++++++++++++++++++++++++++++++++++++++++++
(PID.TID 0000.0001) //      6 ++++++++++++++++++++++++++++++++++++++++++++++++++++++++++++++++++++++++++++++++++++++
(PID.TID 0000.0001) //      5 ++++++++++++++++++++++++++++++++++++++++++++++++++++++++++++++++++++++++++++++++++++++
(PID.TID 0000.0001) //      4 ++++++++++++++++++++++++++++++++++++++++++++++++++++++++++++++++++++++++++++++++++++++
(PID.TID 0000.0001) //      3 ++++++++++++++++++++++++++++++++++++++++++++++++++++++++++++++++++++++++++++++++++++++
(PID.TID 0000.0001) //      2 ++++++++++++++++++++++++++++++++++++++++++++++++++++++++++++++++++++++++++++++++++++++
(PID.TID 0000.0001) //      1 ++++++++++++++++++++++++++++++++++++++++++++++++++++++++++++++++++++++++++++++++++++++
(PID.TID 0000.0001) //      0 ++++++++++++++++++++++++++++++++++++++++++++++++++++++++++++++++++++++++++++++++++++++
(PID.TID 0000.0001) //     -1 ++++++++++++++++++++++++++++++++++++++++++++++++++++++++++++++++++++++++++++++++++++++
(PID.TID 0000.0001) //     -2 ++++++++++++++++++++++++++++++++++++++++++++++++++++++++++++++++++++++++++++++++++++++
(PID.TID 0000.0001) // =======================================================
(PID.TID 0000.0001) // END OF FIELD                                          =
(PID.TID 0000.0001) // =======================================================
(PID.TID 0000.0001) 
(PID.TID 0000.0001) %MON fCori_max                    =   1.0000000000000E-04
(PID.TID 0000.0001) %MON fCori_min                    =   1.0000000000000E-04
(PID.TID 0000.0001) %MON fCori_mean                   =   9.9999999999994E-05
(PID.TID 0000.0001) %MON fCori_sd                     =   6.1663998560113E-18
(PID.TID 0000.0001) %MON fCoriG_max                   =   1.0000000000000E-04
(PID.TID 0000.0001) %MON fCoriG_min                   =   1.0000000000000E-04
(PID.TID 0000.0001) %MON fCoriG_mean                  =   9.9999999999994E-05
(PID.TID 0000.0001) %MON fCoriG_sd                    =   6.1663998560113E-18
(PID.TID 0000.0001)  PACKAGE_INIT: opening data.pkg
(PID.TID 0000.0001)  OPEN_COPY_DATA_FILE: opening file data.pkg
(PID.TID 0000.0001) // =======================================================
(PID.TID 0000.0001) // Parameter file "data.pkg"
(PID.TID 0000.0001) // =======================================================
(PID.TID 0000.0001) ># Packages
(PID.TID 0000.0001) > &PACKAGES
(PID.TID 0000.0001) > useOBCS=.TRUE.,
(PID.TID 0000.0001) > &
(PID.TID 0000.0001) 
(PID.TID 0000.0001)  PACKAGE_INIT: finished reading data.pkg
(PID.TID 0000.0001)  OBCS_READPARMS: opening data.obcs
(PID.TID 0000.0001)  OPEN_COPY_DATA_FILE: opening file data.obcs
(PID.TID 0000.0001) // =======================================================
(PID.TID 0000.0001) // Parameter file "data.obcs"
(PID.TID 0000.0001) // =======================================================
(PID.TID 0000.0001) ># Open-boundaries
(PID.TID 0000.0001) > &OBCS_PARM01
(PID.TID 0000.0001) > OB_Jnorth=80*-1,
(PID.TID 0000.0001) > OB_Jsouth=80*1,
(PID.TID 0000.0001) > OB_Ieast=42*-1,
(PID.TID 0000.0001) > OB_Iwest=42*1,
(PID.TID 0000.0001) >#useOrlanskiNorth=.TRUE.,
(PID.TID 0000.0001) >#useOrlanskiSouth=.TRUE.,
(PID.TID 0000.0001) >#useOrlanskiEast=.TRUE.,
(PID.TID 0000.0001) >#useOrlanskiWest=.FALSE.,
(PID.TID 0000.0001) > &
(PID.TID 0000.0001) >
(PID.TID 0000.0001) ># Orlanski parameters
(PID.TID 0000.0001) > &OBCS_PARM02
(PID.TID 0000.0001) >#Cmax=0.45,
(PID.TID 0000.0001) >#cVelTimeScale=1000.,
(PID.TID 0000.0001) > &
(PID.TID 0000.0001) 
 OB Jn = 42 42 42 42 42 42 42 42 42 42 42 42 42 42 42 42 42 42 42 42 42 42 42 42
 42 42 42 42 42 42 42 42 42 42 42 42 42 42 42 42 42 42 42 42 42 42 42 42 42 42
 42 42 42 42 42 42 42 42 42 42 42 42 42 42 42 42 42 42 42 42 42 42 42 42 42 42
 42 42 42 42
 OB Js = 1 1 1 1 1 1 1 1 1 1 1 1 1 1 1 1 1 1 1 1 1 1 1 1 1 1 1 1 1 1 1 1 1 1 1 1
 1 1 1 1 1 1 1 1 1 1 1 1 1 1 1 1 1 1 1 1 1 1 1 1 1 1 1 1 1 1 1 1 1 1 1 1 1 1 1 1
 1 1 1 1
 OB Ie = 80 80 80 80 80 80 80 80 80 80 80 80 80 80 80 80 80 80 80 80 80 80 80 80
 80 80 80 80 80 80 80 80 80 80 80 80 80 80 80 80 80 80
 OB Iw = 1 1 1 1 1 1 1 1 1 1 1 1 1 1 1 1 1 1 1 1 1 1 1 1 1 1 1 1 1 1 1 1 1 1 1 1
 1 1 1 1 1 1
(PID.TID 0000.0001)  OBCS_READPARMS: finished reading data.obcs
(PID.TID 0000.0001) OBCS_CHECK: #define ALLOW_OBCS
(PID.TID 0000.0001) OBCS_CHECK: #define ALLOW_ORLANSKI
(PID.TID 0000.0001) OBCS_CHECK: OK
(PID.TID 0000.0001) // CG2D normalisation factor =          0.2222222222222222328714969E-03
(PID.TID 0000.0001) 
(PID.TID 0000.0001) // CG3D normalisation factor =          0.2249999999999999802892045E-04
(PID.TID 0000.0001) 
(PID.TID 0000.0001) // =======================================================
(PID.TID 0000.0001) // Model configuration
(PID.TID 0000.0001) // =======================================================
(PID.TID 0000.0001) //
(PID.TID 0000.0001) // "Physical" paramters ( PARM01 in namelist )
(PID.TID 0000.0001) //
(PID.TID 0000.0001) tRef =   /* Reference temperature profile ( oC or oK ) */
(PID.TID 0000.0001)                 6.968340000000000E-01,      /* K =  1 */
(PID.TID 0000.0001)                 4.977380000000000E-01,      /* K =  2 */
(PID.TID 0000.0001)                 2.986430000000000E-01,      /* K =  3 */
(PID.TID 0000.0001)                 9.954770000000000E-02,      /* K =  4 */
(PID.TID 0000.0001)                -9.954770000000000E-02,      /* K =  5 */
(PID.TID 0000.0001)                -2.986430000000000E-01,      /* K =  6 */
(PID.TID 0000.0001)                -4.977380000000000E-01,      /* K =  7 */
(PID.TID 0000.0001)                -6.968340000000000E-01       /* K =  8 */
(PID.TID 0000.0001)     ;
(PID.TID 0000.0001) sRef =   /* Reference salinity profile ( ppt ) */
(PID.TID 0000.0001)     8 @  3.500000000000000E+01              /* K =  1:  8 */
(PID.TID 0000.0001)     ;
(PID.TID 0000.0001) viscAh =   /* Lateral eddy viscosity ( m^2/s ) */
(PID.TID 0000.0001)                 1.000000000000000E+03
(PID.TID 0000.0001)     ;
(PID.TID 0000.0001) viscAh =   /* Lateral biharmonic viscosity ( m^4/s ) */
(PID.TID 0000.0001)                 0.000000000000000E+00
(PID.TID 0000.0001)     ;
(PID.TID 0000.0001) no_slip_sides =  /* Viscous BCs: No-slip sides */
(PID.TID 0000.0001)                   F
(PID.TID 0000.0001)     ;
(PID.TID 0000.0001) viscAz =   /* Vertical eddy viscosity ( m^2/s ) */
(PID.TID 0000.0001)                 1.000000000000000E-03
(PID.TID 0000.0001)     ;
(PID.TID 0000.0001) viscAr =   /* Vertical eddy viscosity ( units of r^2/s ) */
(PID.TID 0000.0001)                 1.000000000000000E-03
(PID.TID 0000.0001)     ;
(PID.TID 0000.0001) diffKhT =   /* Laplacian diffusion of heat laterally ( m^2/s ) */
(PID.TID 0000.0001)                 1.000000000000000E+03
(PID.TID 0000.0001)     ;
(PID.TID 0000.0001) diffK4T =   /* Bihaarmonic diffusion of heat laterally ( m^4/s ) */
(PID.TID 0000.0001)                 0.000000000000000E+00
(PID.TID 0000.0001)     ;
(PID.TID 0000.0001) diffKzT =   /* Laplacian diffusion of heat vertically ( m^2/s ) */
(PID.TID 0000.0001)                 1.000000000000000E-05
(PID.TID 0000.0001)     ;
(PID.TID 0000.0001) diffKrT =   /* Laplacian diffusion of heat vertically ( m^2/s ) */
(PID.TID 0000.0001)                 1.000000000000000E-05
(PID.TID 0000.0001)     ;
(PID.TID 0000.0001) diffKhS =   /* Laplacian diffusion of salt laterally ( m^2/s ) */
(PID.TID 0000.0001)                 1.000000000000000E+03
(PID.TID 0000.0001)     ;
(PID.TID 0000.0001) diffK4S =   /* Bihaarmonic diffusion of salt laterally ( m^4/s ) */
(PID.TID 0000.0001)                 0.000000000000000E+00
(PID.TID 0000.0001)     ;
(PID.TID 0000.0001) diffKzS =   /* Laplacian diffusion of salt vertically ( m^2/s ) */
(PID.TID 0000.0001)                 1.000000000000000E-05
(PID.TID 0000.0001)     ;
(PID.TID 0000.0001) diffKrS =   /* Laplacian diffusion of salt vertically ( m^2/s ) */
(PID.TID 0000.0001)                 1.000000000000000E-05
(PID.TID 0000.0001)     ;
(PID.TID 0000.0001) tAlpha =   /* Linear EOS thermal expansion coefficient ( 1/degree ) */
(PID.TID 0000.0001)                 2.000000000000000E-04
(PID.TID 0000.0001)     ;
(PID.TID 0000.0001) sBeta =   /* Linear EOS haline contraction coefficient ( 1/ppt ) */
(PID.TID 0000.0001)                 0.000000000000000E+00
(PID.TID 0000.0001)     ;
(PID.TID 0000.0001) rhonil =   /* Reference density ( kg/m^3 ) */
(PID.TID 0000.0001)                 9.998000000000000E+02
(PID.TID 0000.0001)     ;
(PID.TID 0000.0001) rhoConst =   /* Reference density ( kg/m^3 ) */
(PID.TID 0000.0001)                 9.998000000000000E+02
(PID.TID 0000.0001)     ;
(PID.TID 0000.0001) gravity =   /* Gravitational acceleration ( m/s^2 ) */
(PID.TID 0000.0001)                 9.810000000000000E+00
(PID.TID 0000.0001)     ;
(PID.TID 0000.0001) gBaro =   /* Barotropic gravity ( m/s^2 ) */
(PID.TID 0000.0001)                 9.810000000000000E+00
(PID.TID 0000.0001)     ;
(PID.TID 0000.0001) f0 =   /* Reference coriolis parameter ( 1/s ) */
(PID.TID 0000.0001)                 1.000000000000000E-04
(PID.TID 0000.0001)     ;
(PID.TID 0000.0001) beta =   /* Beta ( 1/(m.s) ) */
(PID.TID 0000.0001)                 0.000000000000000E+00
(PID.TID 0000.0001)     ;
(PID.TID 0000.0001) freeSurfFac =   /* Implicit free surface factor */
(PID.TID 0000.0001)                 1.000000000000000E+00
(PID.TID 0000.0001)     ;
(PID.TID 0000.0001) implicitFreeSurface =   /* Implicit free surface on/off flag */
(PID.TID 0000.0001)                   T
(PID.TID 0000.0001)     ;
(PID.TID 0000.0001) rigidLid =   /* Rigid lid on/off flag */
(PID.TID 0000.0001)                   F
(PID.TID 0000.0001)     ;
(PID.TID 0000.0001) implicSurfPress =   /* Surface Pressure implicit factor (0-1)*/
(PID.TID 0000.0001)                 1.000000000000000E+00
(PID.TID 0000.0001)     ;
(PID.TID 0000.0001) implicDiv2Dflow =   /* Barot. Flow Div. implicit factor (0-1)*/
(PID.TID 0000.0001)                 1.000000000000000E+00
(PID.TID 0000.0001)     ;
(PID.TID 0000.0001) staggerTimeStep =   /* Stagger time stepping on/off flag */
(PID.TID 0000.0001)                   F
(PID.TID 0000.0001)     ;
(PID.TID 0000.0001) momStepping =  /* Momentum equation on/off flag */
(PID.TID 0000.0001)                   T
(PID.TID 0000.0001)     ;
(PID.TID 0000.0001) momAdvection =  /* Momentum advection on/off flag */
(PID.TID 0000.0001)                   T
(PID.TID 0000.0001)     ;
(PID.TID 0000.0001) momViscosity =  /* Momentum viscosity on/off flag */
(PID.TID 0000.0001)                   T
(PID.TID 0000.0001)     ;
(PID.TID 0000.0001) useCoriolis =  /* Coriolis on/off flag */
(PID.TID 0000.0001)                   T
(PID.TID 0000.0001)     ;
(PID.TID 0000.0001) momForcing =  /* Momentum forcing on/off flag */
(PID.TID 0000.0001)                   T
(PID.TID 0000.0001)     ;
(PID.TID 0000.0001) momPressureForcing =  /* Momentum pressure term on/off flag */
(PID.TID 0000.0001)                   T
(PID.TID 0000.0001)     ;
(PID.TID 0000.0001) tempStepping =  /* Temperature equation on/off flag */
(PID.TID 0000.0001)                   T
(PID.TID 0000.0001)     ;
(PID.TID 0000.0001) nonHydrostatic =  /* Non-Hydrostatic on/off flag */
(PID.TID 0000.0001)                   F
(PID.TID 0000.0001)     ;
(PID.TID 0000.0001) //
(PID.TID 0000.0001) // Elliptic solver(s) paramters ( PARM02 in namelist )
(PID.TID 0000.0001) //
(PID.TID 0000.0001) cg2dMaxIters =   /* Upper limit on 2d con. grad iterations  */
(PID.TID 0000.0001)                    1000
(PID.TID 0000.0001)     ;
(PID.TID 0000.0001) cg2dChkResFreq =   /* 2d con. grad convergence test frequency */
(PID.TID 0000.0001)                       1
(PID.TID 0000.0001)     ;
(PID.TID 0000.0001) cg2dTargetResidual =   /* 2d con. grad target residual  */
(PID.TID 0000.0001)                 1.000000000000000E-13
(PID.TID 0000.0001)     ;
(PID.TID 0000.0001) //
(PID.TID 0000.0001) // Time stepping paramters ( PARM03 in namelist )
(PID.TID 0000.0001) //
(PID.TID 0000.0001) nIter0 =   /* Base timestep number  */
(PID.TID 0000.0001)                       0
(PID.TID 0000.0001)     ;
(PID.TID 0000.0001) nTimeSteps =   /* Number of timesteps */
(PID.TID 0000.0001)                      10
(PID.TID 0000.0001)     ;
(PID.TID 0000.0001) deltatTmom =   /* Momentum equation timestep ( s ) */
(PID.TID 0000.0001)                 6.000000000000000E+02
(PID.TID 0000.0001)     ;
(PID.TID 0000.0001) deltatTtracer =   /* Tracer equation timestep ( s ) */
(PID.TID 0000.0001)                 6.000000000000000E+02
(PID.TID 0000.0001)     ;
(PID.TID 0000.0001) deltatTClock  =   /* Model clock timestep ( s ) */
(PID.TID 0000.0001)                 6.000000000000000E+02
(PID.TID 0000.0001)     ;
(PID.TID 0000.0001) cAdjFreq =   /* Convective adjustment interval ( s ) */
(PID.TID 0000.0001)                 0.000000000000000E+00
(PID.TID 0000.0001)     ;
(PID.TID 0000.0001) abeps =   /* Adams-Bashforth stabilizing weight */
(PID.TID 0000.0001)                 1.000000000000000E-01
(PID.TID 0000.0001)     ;
(PID.TID 0000.0001) tauCD =   /* CD coupling time-scale ( s ) */
(PID.TID 0000.0001)                 6.000000000000000E+02
(PID.TID 0000.0001)     ;
(PID.TID 0000.0001) rCD =   /* Normalised CD coupling parameter */
(PID.TID 0000.0001)                 0.000000000000000E+00
(PID.TID 0000.0001)     ;
(PID.TID 0000.0001) startTime =   /* Run start time ( s ). */
(PID.TID 0000.0001)                 0.000000000000000E+00
(PID.TID 0000.0001)     ;
(PID.TID 0000.0001) endTime =   /* Integration ending time ( s ). */
(PID.TID 0000.0001)                 6.000000000000000E+03
(PID.TID 0000.0001)     ;
(PID.TID 0000.0001) pChkPtFreq =   /* Permanent restart/checkpoint file interval ( s ). */
(PID.TID 0000.0001)                 3.000000000000000E+03
(PID.TID 0000.0001)     ;
(PID.TID 0000.0001) chkPtFreq =   /* Rolling restart/checkpoint file interval ( s ). */
(PID.TID 0000.0001)                 0.000000000000000E+00
(PID.TID 0000.0001)     ;
(PID.TID 0000.0001) dumpFreq =   /* Model state write out interval ( s ). */
(PID.TID 0000.0001)                 1.080000000000000E+04
(PID.TID 0000.0001)     ;
(PID.TID 0000.0001) //
(PID.TID 0000.0001) // Gridding paramters ( PARM04 in namelist )
(PID.TID 0000.0001) //
(PID.TID 0000.0001) usingCartesianGrid =   /* Cartesian coordinates flag ( True / False ) */
(PID.TID 0000.0001)                   T
(PID.TID 0000.0001)     ;
(PID.TID 0000.0001) usingSphericalPolarGrid =   /* Spherical coordinates flag ( True / False ) */
(PID.TID 0000.0001)                   F
(PID.TID 0000.0001)     ;
(PID.TID 0000.0001) groundAtK1 =   /* Lower Boundary (ground) at the surface(k=1) ( T / F ) */
(PID.TID 0000.0001)                   F
(PID.TID 0000.0001)     ;
(PID.TID 0000.0001) Ro_SeaLevel =   /* r(1) ( units of r ) */
(PID.TID 0000.0001)                 0.000000000000000E+00
(PID.TID 0000.0001)     ;
(PID.TID 0000.0001) rkFac =   /* minus Vertical index orientation  */
(PID.TID 0000.0001)                 1.000000000000000E+00
(PID.TID 0000.0001)     ;
(PID.TID 0000.0001) horiVertRatio =   /* Ratio on units : Horiz - Vertical */
(PID.TID 0000.0001)                 1.000000000000000E+00
(PID.TID 0000.0001)     ;
(PID.TID 0000.0001) delZ =   /* W spacing ( m ) */
(PID.TID 0000.0001)     8 @  5.625000000000000E+02              /* K =  1:  8 */
(PID.TID 0000.0001)     ;
(PID.TID 0000.0001) delP =   /* W spacing ( Pa ) */
(PID.TID 0000.0001)     8 @  1.234567000000000E+05              /* K =  1:  8 */
(PID.TID 0000.0001)     ;
(PID.TID 0000.0001) delR =   /* W spacing ( units of r ) */
(PID.TID 0000.0001)     8 @  5.625000000000000E+02              /* K =  1:  8 */
(PID.TID 0000.0001)     ;
(PID.TID 0000.0001) delX =   /* U spacing ( m - cartesian, degrees - spherical ) */
(PID.TID 0000.0001)    80 @  5.000000000000000E+03              /* I =  1: 80 */
(PID.TID 0000.0001)     ;
(PID.TID 0000.0001) delY =   /* V spacing ( m - cartesian, degrees - spherical ) */
(PID.TID 0000.0001)    42 @  5.000000000000000E+03              /* J =  1: 42 */
(PID.TID 0000.0001)     ;
(PID.TID 0000.0001) phiMin =    /* South edge (ignored - cartesian, degrees - spherical ) */
(PID.TID 0000.0001)                 0.000000000000000E+00
(PID.TID 0000.0001)     ;
(PID.TID 0000.0001) thetaMin =    /* West edge ( ignored - cartesian, degrees - spherical ) */
(PID.TID 0000.0001)                 0.000000000000000E+00
(PID.TID 0000.0001)     ;
(PID.TID 0000.0001) rSphere =    /* Radius ( ignored - cartesian, m - spherical ) */
(PID.TID 0000.0001)                 6.370000000000000E+06
(PID.TID 0000.0001)     ;
(PID.TID 0000.0001) xcoord =   /* P-point X coord ( m - cartesian, degrees - spherical ) */
(PID.TID 0000.0001)                 2.500000000000000E+03,      /* I =  1 */
(PID.TID 0000.0001)                 7.500000000000000E+03,      /* I =  2 */
(PID.TID 0000.0001)                 1.250000000000000E+04,      /* I =  3 */
(PID.TID 0000.0001)                 1.750000000000000E+04,      /* I =  4 */
(PID.TID 0000.0001)                 2.250000000000000E+04,      /* I =  5 */
(PID.TID 0000.0001)                 2.750000000000000E+04,      /* I =  6 */
(PID.TID 0000.0001)                 3.250000000000000E+04,      /* I =  7 */
(PID.TID 0000.0001)                 3.750000000000000E+04,      /* I =  8 */
(PID.TID 0000.0001)                 4.250000000000000E+04,      /* I =  9 */
(PID.TID 0000.0001)                 4.750000000000000E+04,      /* I = 10 */
(PID.TID 0000.0001)                 5.250000000000000E+04,      /* I = 11 */
(PID.TID 0000.0001)                 5.750000000000000E+04,      /* I = 12 */
(PID.TID 0000.0001)                 6.250000000000000E+04,      /* I = 13 */
(PID.TID 0000.0001)                 6.750000000000000E+04,      /* I = 14 */
(PID.TID 0000.0001)                 7.250000000000000E+04,      /* I = 15 */
(PID.TID 0000.0001)                 7.750000000000000E+04,      /* I = 16 */
(PID.TID 0000.0001)                 8.250000000000000E+04,      /* I = 17 */
(PID.TID 0000.0001)                 8.750000000000000E+04,      /* I = 18 */
(PID.TID 0000.0001)                 9.250000000000000E+04,      /* I = 19 */
(PID.TID 0000.0001)                 9.750000000000000E+04,      /* I = 20 */
(PID.TID 0000.0001)                 1.025000000000000E+05,      /* I = 21 */
(PID.TID 0000.0001)                 1.075000000000000E+05,      /* I = 22 */
(PID.TID 0000.0001)                 1.125000000000000E+05,      /* I = 23 */
(PID.TID 0000.0001)                 1.175000000000000E+05,      /* I = 24 */
(PID.TID 0000.0001)                 1.225000000000000E+05,      /* I = 25 */
(PID.TID 0000.0001)                 1.275000000000000E+05,      /* I = 26 */
(PID.TID 0000.0001)                 1.325000000000000E+05,      /* I = 27 */
(PID.TID 0000.0001)                 1.375000000000000E+05,      /* I = 28 */
(PID.TID 0000.0001)                 1.425000000000000E+05,      /* I = 29 */
(PID.TID 0000.0001)                 1.475000000000000E+05,      /* I = 30 */
(PID.TID 0000.0001)                 1.525000000000000E+05,      /* I = 31 */
(PID.TID 0000.0001)                 1.575000000000000E+05,      /* I = 32 */
(PID.TID 0000.0001)                 1.625000000000000E+05,      /* I = 33 */
(PID.TID 0000.0001)                 1.675000000000000E+05,      /* I = 34 */
(PID.TID 0000.0001)                 1.725000000000000E+05,      /* I = 35 */
(PID.TID 0000.0001)                 1.775000000000000E+05,      /* I = 36 */
(PID.TID 0000.0001)                 1.825000000000000E+05,      /* I = 37 */
(PID.TID 0000.0001)                 1.875000000000000E+05,      /* I = 38 */
(PID.TID 0000.0001)                 1.925000000000000E+05,      /* I = 39 */
(PID.TID 0000.0001)                 1.975000000000000E+05,      /* I = 40 */
(PID.TID 0000.0001)                 2.025000000000000E+05,      /* I = 41 */
(PID.TID 0000.0001)                 2.075000000000000E+05,      /* I = 42 */
(PID.TID 0000.0001)                 2.125000000000000E+05,      /* I = 43 */
(PID.TID 0000.0001)                 2.175000000000000E+05,      /* I = 44 */
(PID.TID 0000.0001)                 2.225000000000000E+05,      /* I = 45 */
(PID.TID 0000.0001)                 2.275000000000000E+05,      /* I = 46 */
(PID.TID 0000.0001)                 2.325000000000000E+05,      /* I = 47 */
(PID.TID 0000.0001)                 2.375000000000000E+05,      /* I = 48 */
(PID.TID 0000.0001)                 2.425000000000000E+05,      /* I = 49 */
(PID.TID 0000.0001)                 2.475000000000000E+05,      /* I = 50 */
(PID.TID 0000.0001)                 2.525000000000000E+05,      /* I = 51 */
(PID.TID 0000.0001)                 2.575000000000000E+05,      /* I = 52 */
(PID.TID 0000.0001)                 2.625000000000000E+05,      /* I = 53 */
(PID.TID 0000.0001)                 2.675000000000000E+05,      /* I = 54 */
(PID.TID 0000.0001)                 2.725000000000000E+05,      /* I = 55 */
(PID.TID 0000.0001)                 2.775000000000000E+05,      /* I = 56 */
(PID.TID 0000.0001)                 2.825000000000000E+05,      /* I = 57 */
(PID.TID 0000.0001)                 2.875000000000000E+05,      /* I = 58 */
(PID.TID 0000.0001)                 2.925000000000000E+05,      /* I = 59 */
(PID.TID 0000.0001)                 2.975000000000000E+05,      /* I = 60 */
(PID.TID 0000.0001)                 3.025000000000000E+05,      /* I = 61 */
(PID.TID 0000.0001)                 3.075000000000000E+05,      /* I = 62 */
(PID.TID 0000.0001)                 3.125000000000000E+05,      /* I = 63 */
(PID.TID 0000.0001)                 3.175000000000000E+05,      /* I = 64 */
(PID.TID 0000.0001)                 3.225000000000000E+05,      /* I = 65 */
(PID.TID 0000.0001)                 3.275000000000000E+05,      /* I = 66 */
(PID.TID 0000.0001)                 3.325000000000000E+05,      /* I = 67 */
(PID.TID 0000.0001)                 3.375000000000000E+05,      /* I = 68 */
(PID.TID 0000.0001)                 3.425000000000000E+05,      /* I = 69 */
(PID.TID 0000.0001)                 3.475000000000000E+05,      /* I = 70 */
(PID.TID 0000.0001)                 3.525000000000000E+05,      /* I = 71 */
(PID.TID 0000.0001)                 3.575000000000000E+05,      /* I = 72 */
(PID.TID 0000.0001)                 3.625000000000000E+05,      /* I = 73 */
(PID.TID 0000.0001)                 3.675000000000000E+05,      /* I = 74 */
(PID.TID 0000.0001)                 3.725000000000000E+05,      /* I = 75 */
(PID.TID 0000.0001)                 3.775000000000000E+05,      /* I = 76 */
(PID.TID 0000.0001)                 3.825000000000000E+05,      /* I = 77 */
(PID.TID 0000.0001)                 3.875000000000000E+05,      /* I = 78 */
(PID.TID 0000.0001)                 3.925000000000000E+05,      /* I = 79 */
(PID.TID 0000.0001)                 3.975000000000000E+05       /* I = 80 */
(PID.TID 0000.0001)     ;
(PID.TID 0000.0001) ycoord =   /* P-point Y coord ( m - cartesian, degrees - spherical ) */
(PID.TID 0000.0001)                 2.500000000000000E+03,      /* J =  1 */
(PID.TID 0000.0001)                 7.500000000000000E+03,      /* J =  2 */
(PID.TID 0000.0001)                 1.250000000000000E+04,      /* J =  3 */
(PID.TID 0000.0001)                 1.750000000000000E+04,      /* J =  4 */
(PID.TID 0000.0001)                 2.250000000000000E+04,      /* J =  5 */
(PID.TID 0000.0001)                 2.750000000000000E+04,      /* J =  6 */
(PID.TID 0000.0001)                 3.250000000000000E+04,      /* J =  7 */
(PID.TID 0000.0001)                 3.750000000000000E+04,      /* J =  8 */
(PID.TID 0000.0001)                 4.250000000000000E+04,      /* J =  9 */
(PID.TID 0000.0001)                 4.750000000000000E+04,      /* J = 10 */
(PID.TID 0000.0001)                 5.250000000000000E+04,      /* J = 11 */
(PID.TID 0000.0001)                 5.750000000000000E+04,      /* J = 12 */
(PID.TID 0000.0001)                 6.250000000000000E+04,      /* J = 13 */
(PID.TID 0000.0001)                 6.750000000000000E+04,      /* J = 14 */
(PID.TID 0000.0001)                 7.250000000000000E+04,      /* J = 15 */
(PID.TID 0000.0001)                 7.750000000000000E+04,      /* J = 16 */
(PID.TID 0000.0001)                 8.250000000000000E+04,      /* J = 17 */
(PID.TID 0000.0001)                 8.750000000000000E+04,      /* J = 18 */
(PID.TID 0000.0001)                 9.250000000000000E+04,      /* J = 19 */
(PID.TID 0000.0001)                 9.750000000000000E+04,      /* J = 20 */
(PID.TID 0000.0001)                 1.025000000000000E+05,      /* J = 21 */
(PID.TID 0000.0001)                 1.075000000000000E+05,      /* J = 22 */
(PID.TID 0000.0001)                 1.125000000000000E+05,      /* J = 23 */
(PID.TID 0000.0001)                 1.175000000000000E+05,      /* J = 24 */
(PID.TID 0000.0001)                 1.225000000000000E+05,      /* J = 25 */
(PID.TID 0000.0001)                 1.275000000000000E+05,      /* J = 26 */
(PID.TID 0000.0001)                 1.325000000000000E+05,      /* J = 27 */
(PID.TID 0000.0001)                 1.375000000000000E+05,      /* J = 28 */
(PID.TID 0000.0001)                 1.425000000000000E+05,      /* J = 29 */
(PID.TID 0000.0001)                 1.475000000000000E+05,      /* J = 30 */
(PID.TID 0000.0001)                 1.525000000000000E+05,      /* J = 31 */
(PID.TID 0000.0001)                 1.575000000000000E+05,      /* J = 32 */
(PID.TID 0000.0001)                 1.625000000000000E+05,      /* J = 33 */
(PID.TID 0000.0001)                 1.675000000000000E+05,      /* J = 34 */
(PID.TID 0000.0001)                 1.725000000000000E+05,      /* J = 35 */
(PID.TID 0000.0001)                 1.775000000000000E+05,      /* J = 36 */
(PID.TID 0000.0001)                 1.825000000000000E+05,      /* J = 37 */
(PID.TID 0000.0001)                 1.875000000000000E+05,      /* J = 38 */
(PID.TID 0000.0001)                 1.925000000000000E+05,      /* J = 39 */
(PID.TID 0000.0001)                 1.975000000000000E+05,      /* J = 40 */
(PID.TID 0000.0001)                 2.025000000000000E+05,      /* J = 41 */
(PID.TID 0000.0001)                 2.075000000000000E+05       /* J = 42 */
(PID.TID 0000.0001)     ;
(PID.TID 0000.0001) rcoord =   /* P-point R coordinate (  units of r ) */
(PID.TID 0000.0001)                -2.812500000000000E+02,      /* K =  1 */
(PID.TID 0000.0001)                -8.437500000000000E+02,      /* K =  2 */
(PID.TID 0000.0001)                -1.406250000000000E+03,      /* K =  3 */
(PID.TID 0000.0001)                -1.968750000000000E+03,      /* K =  4 */
(PID.TID 0000.0001)                -2.531250000000000E+03,      /* K =  5 */
(PID.TID 0000.0001)                -3.093750000000000E+03,      /* K =  6 */
(PID.TID 0000.0001)                -3.656250000000000E+03,      /* K =  7 */
(PID.TID 0000.0001)                -4.218750000000000E+03       /* K =  8 */
(PID.TID 0000.0001)     ;
(PID.TID 0000.0001) dxF =  /* dxF(:,1,:,1) ( m - cartesian, degrees - spherical ) */
(PID.TID 0000.0001)    80 @  5.000000000000000E+03              /* I =  1: 80 */
(PID.TID 0000.0001)     ;
(PID.TID 0000.0001) dxF =  /* dxF(1,:,1,:) ( m - cartesian, degrees - spherical ) */
(PID.TID 0000.0001)    42 @  5.000000000000000E+03              /* J =  1: 42 */
(PID.TID 0000.0001)     ;
(PID.TID 0000.0001) dyF =  /* dyF(:,1,:,1) ( m - cartesian, degrees - spherical ) */
(PID.TID 0000.0001)    80 @  5.000000000000000E+03              /* I =  1: 80 */
(PID.TID 0000.0001)     ;
(PID.TID 0000.0001) dyF =  /* dyF(1,:,1,:) ( m - cartesian, degrees - spherical ) */
(PID.TID 0000.0001)    42 @  5.000000000000000E+03              /* J =  1: 42 */
(PID.TID 0000.0001)     ;
(PID.TID 0000.0001) dxG =  /* dxG(:,1,:,1) ( m - cartesian, degrees - spherical ) */
(PID.TID 0000.0001)    80 @  5.000000000000000E+03              /* I =  1: 80 */
(PID.TID 0000.0001)     ;
(PID.TID 0000.0001) dxG =  /* dxG(1,:,1,:) ( m - cartesian, degrees - spherical ) */
(PID.TID 0000.0001)    42 @  5.000000000000000E+03              /* J =  1: 42 */
(PID.TID 0000.0001)     ;
(PID.TID 0000.0001) dyG =  /* dyG(:,1,:,1) ( m - cartesian, degrees - spherical ) */
(PID.TID 0000.0001)    80 @  5.000000000000000E+03              /* I =  1: 80 */
(PID.TID 0000.0001)     ;
(PID.TID 0000.0001) dyG =  /* dyG(1,:,1,:) ( m - cartesian, degrees - spherical ) */
(PID.TID 0000.0001)    42 @  5.000000000000000E+03              /* J =  1: 42 */
(PID.TID 0000.0001)     ;
(PID.TID 0000.0001) dxC =  /* dxC(:,1,:,1) ( m - cartesian, degrees - spherical ) */
(PID.TID 0000.0001)    80 @  5.000000000000000E+03              /* I =  1: 80 */
(PID.TID 0000.0001)     ;
(PID.TID 0000.0001) dxC =  /* dxC(1,:,1,:) ( m - cartesian, degrees - spherical ) */
(PID.TID 0000.0001)    42 @  5.000000000000000E+03              /* J =  1: 42 */
(PID.TID 0000.0001)     ;
(PID.TID 0000.0001) dyC =  /* dyC(:,1,:,1) ( m - cartesian, degrees - spherical ) */
(PID.TID 0000.0001)    80 @  5.000000000000000E+03              /* I =  1: 80 */
(PID.TID 0000.0001)     ;
(PID.TID 0000.0001) dyC =  /* dyC(1,:,1,:) ( m - cartesian, degrees - spherical ) */
(PID.TID 0000.0001)    42 @  5.000000000000000E+03              /* J =  1: 42 */
(PID.TID 0000.0001)     ;
(PID.TID 0000.0001) dxV =  /* dxV(:,1,:,1) ( m - cartesian, degrees - spherical ) */
(PID.TID 0000.0001)    80 @  5.000000000000000E+03              /* I =  1: 80 */
(PID.TID 0000.0001)     ;
(PID.TID 0000.0001) dxV =  /* dxV(1,:,1,:) ( m - cartesian, degrees - spherical ) */
(PID.TID 0000.0001)    42 @  5.000000000000000E+03              /* J =  1: 42 */
(PID.TID 0000.0001)     ;
(PID.TID 0000.0001) dyU =  /* dyU(:,1,:,1) ( m - cartesian, degrees - spherical ) */
(PID.TID 0000.0001)    80 @  5.000000000000000E+03              /* I =  1: 80 */
(PID.TID 0000.0001)     ;
(PID.TID 0000.0001) dyU =  /* dyU(1,:,1,:) ( m - cartesian, degrees - spherical ) */
(PID.TID 0000.0001)    42 @  5.000000000000000E+03              /* J =  1: 42 */
(PID.TID 0000.0001)     ;
(PID.TID 0000.0001) rA =  /* rA(:,1,:,1) ( m - cartesian, degrees - spherical ) */
(PID.TID 0000.0001)    80 @  2.500000000000000E+07              /* I =  1: 80 */
(PID.TID 0000.0001)     ;
(PID.TID 0000.0001) rA =  /* rA(1,:,1,:) ( m - cartesian, degrees - spherical ) */
(PID.TID 0000.0001)    42 @  2.500000000000000E+07              /* J =  1: 42 */
(PID.TID 0000.0001)     ;
(PID.TID 0000.0001) rAw =  /* rAw(:,1,:,1) ( m - cartesian, degrees - spherical ) */
(PID.TID 0000.0001)    80 @  2.500000000000000E+07              /* I =  1: 80 */
(PID.TID 0000.0001)     ;
(PID.TID 0000.0001) rAw =  /* rAw(1,:,1,:) ( m - cartesian, degrees - spherical ) */
(PID.TID 0000.0001)    42 @  2.500000000000000E+07              /* J =  1: 42 */
(PID.TID 0000.0001)     ;
(PID.TID 0000.0001) rAs =  /* rAs(:,1,:,1) ( m - cartesian, degrees - spherical ) */
(PID.TID 0000.0001)    80 @  2.500000000000000E+07              /* I =  1: 80 */
(PID.TID 0000.0001)     ;
(PID.TID 0000.0001) rAs =  /* rAs(1,:,1,:) ( m - cartesian, degrees - spherical ) */
(PID.TID 0000.0001)    42 @  2.500000000000000E+07              /* J =  1: 42 */
(PID.TID 0000.0001)     ;
(PID.TID 0000.0001) 
(PID.TID 0000.0001) // =======================================================
(PID.TID 0000.0001) // Field Initial Temperature at iteration          1
(PID.TID 0000.0001) // CMIN =          6.968340000000000E-01
(PID.TID 0000.0001) // CMAX =          6.968340000000000E-01
(PID.TID 0000.0001) // CINT =          0.000000000000000E+00
(PID.TID 0000.0001) // SYMBOLS (CMIN->CMAX): -abcdefghijklmnopqrstuvwxyz+
(PID.TID 0000.0001) //                  0.0: .
(PID.TID 0000.0001) // RANGE I (Lo:Hi:Step):(   1:  80:   1)
(PID.TID 0000.0001) // RANGE J (Lo:Hi:Step):(  42:   1:  -1)
(PID.TID 0000.0001) // RANGE K (Lo:Hi:Step):(   1:   1:   1)
(PID.TID 0000.0001) // =======================================================
(PID.TID 0000.0001) K =   1
(PID.TID 0000.0001)                I=10      I=20      I=30      I=40      I=50      I=60      I=70      I=80
(PID.TID 0000.0001) |--J--|123456789|123456789|123456789|123456789|123456789|123456789|123456789|123456789|
(PID.TID 0000.0001)     42 --------------------------------------------------------------------------------
(PID.TID 0000.0001)     41 --------------------------------------------------------------------------------
(PID.TID 0000.0001)     40 --------------------------------------------------------------------------------
(PID.TID 0000.0001)     39 --------------------------------------------------------------------------------
(PID.TID 0000.0001)     38 --------------------------------------------------------------------------------
(PID.TID 0000.0001)     37 --------------------------------------------------------------------------------
(PID.TID 0000.0001)     36 --------------------------------------------------------------------------------
(PID.TID 0000.0001)     35 --------------------------------------------------------------------------------
(PID.TID 0000.0001)     34 --------------------------------------------------------------------------------
(PID.TID 0000.0001)     33 --------------------------------------------------------------------------------
(PID.TID 0000.0001)     32 --------------------------------------------------------------------------------
(PID.TID 0000.0001)     31 --------------------------------------------------------------------------------
(PID.TID 0000.0001)     30 --------------------------------------------------------------------------------
(PID.TID 0000.0001)     29 --------------------------------------------------------------------------------
(PID.TID 0000.0001)     28 --------------------------------------------------------------------------------
(PID.TID 0000.0001)     27 --------------------------------------------------------------------------------
(PID.TID 0000.0001)     26 --------------------------------------------------------------------------------
(PID.TID 0000.0001)     25 --------------------------------------------------------------------------------
(PID.TID 0000.0001)     24 --------------------------------------------------------------------------------
(PID.TID 0000.0001)     23 --------------------------------------------------------------------------------
(PID.TID 0000.0001)     22 --------------------------------------------------------------------------------
(PID.TID 0000.0001)     21 --------------------------------------------------------------------------------
(PID.TID 0000.0001)     20 --------------------------------------------------------------------------------
(PID.TID 0000.0001)     19 --------------------------------------------------------------------------------
(PID.TID 0000.0001)     18 --------------------------------------------------------------------------------
(PID.TID 0000.0001)     17 --------------------------------------------------------------------------------
(PID.TID 0000.0001)     16 --------------------------------------------------------------------------------
(PID.TID 0000.0001)     15 --------------------------------------------------------------------------------
(PID.TID 0000.0001)     14 --------------------------------------------------------------------------------
(PID.TID 0000.0001)     13 --------------------------------------------------------------------------------
(PID.TID 0000.0001)     12 --------------------------------------------------------------------------------
(PID.TID 0000.0001)     11 --------------------------------------------------------------------------------
(PID.TID 0000.0001)     10 --------------------------------------------------------------------------------
(PID.TID 0000.0001)      9 --------------------------------------------------------------------------------
(PID.TID 0000.0001)      8 --------------------------------------------------------------------------------
(PID.TID 0000.0001)      7 --------------------------------------------------------------------------------
(PID.TID 0000.0001)      6 --------------------------------------------------------------------------------
(PID.TID 0000.0001)      5 --------------------------------------------------------------------------------
(PID.TID 0000.0001)      4 --------------------------------------------------------------------------------
(PID.TID 0000.0001)      3 --------------------------------------------------------------------------------
(PID.TID 0000.0001)      2 --------------------------------------------------------------------------------
(PID.TID 0000.0001)      1 --------------------------------------------------------------------------------
(PID.TID 0000.0001) // =======================================================
(PID.TID 0000.0001) // END OF FIELD                                          =
(PID.TID 0000.0001) // =======================================================
(PID.TID 0000.0001) 
(PID.TID 0000.0001) // =======================================================
(PID.TID 0000.0001) // Field Initial Salinity at iteration          1
(PID.TID 0000.0001) // CMIN =          3.500000000000000E+01
(PID.TID 0000.0001) // CMAX =          3.500000000000000E+01
(PID.TID 0000.0001) // CINT =          0.000000000000000E+00
(PID.TID 0000.0001) // SYMBOLS (CMIN->CMAX): -abcdefghijklmnopqrstuvwxyz+
(PID.TID 0000.0001) //                  0.0: .
(PID.TID 0000.0001) // RANGE I (Lo:Hi:Step):(   1:  80:   1)
(PID.TID 0000.0001) // RANGE J (Lo:Hi:Step):(  42:   1:  -1)
(PID.TID 0000.0001) // RANGE K (Lo:Hi:Step):(   1:   1:   1)
(PID.TID 0000.0001) // =======================================================
(PID.TID 0000.0001) K =   1
(PID.TID 0000.0001)                I=10      I=20      I=30      I=40      I=50      I=60      I=70      I=80
(PID.TID 0000.0001) |--J--|123456789|123456789|123456789|123456789|123456789|123456789|123456789|123456789|
(PID.TID 0000.0001)     42 --------------------------------------------------------------------------------
(PID.TID 0000.0001)     41 --------------------------------------------------------------------------------
(PID.TID 0000.0001)     40 --------------------------------------------------------------------------------
(PID.TID 0000.0001)     39 --------------------------------------------------------------------------------
(PID.TID 0000.0001)     38 --------------------------------------------------------------------------------
(PID.TID 0000.0001)     37 --------------------------------------------------------------------------------
(PID.TID 0000.0001)     36 --------------------------------------------------------------------------------
(PID.TID 0000.0001)     35 --------------------------------------------------------------------------------
(PID.TID 0000.0001)     34 --------------------------------------------------------------------------------
(PID.TID 0000.0001)     33 --------------------------------------------------------------------------------
(PID.TID 0000.0001)     32 --------------------------------------------------------------------------------
(PID.TID 0000.0001)     31 --------------------------------------------------------------------------------
(PID.TID 0000.0001)     30 --------------------------------------------------------------------------------
(PID.TID 0000.0001)     29 --------------------------------------------------------------------------------
(PID.TID 0000.0001)     28 --------------------------------------------------------------------------------
(PID.TID 0000.0001)     27 --------------------------------------------------------------------------------
(PID.TID 0000.0001)     26 --------------------------------------------------------------------------------
(PID.TID 0000.0001)     25 --------------------------------------------------------------------------------
(PID.TID 0000.0001)     24 --------------------------------------------------------------------------------
(PID.TID 0000.0001)     23 --------------------------------------------------------------------------------
(PID.TID 0000.0001)     22 --------------------------------------------------------------------------------
(PID.TID 0000.0001)     21 --------------------------------------------------------------------------------
(PID.TID 0000.0001)     20 --------------------------------------------------------------------------------
(PID.TID 0000.0001)     19 --------------------------------------------------------------------------------
(PID.TID 0000.0001)     18 --------------------------------------------------------------------------------
(PID.TID 0000.0001)     17 --------------------------------------------------------------------------------
(PID.TID 0000.0001)     16 --------------------------------------------------------------------------------
(PID.TID 0000.0001)     15 --------------------------------------------------------------------------------
(PID.TID 0000.0001)     14 --------------------------------------------------------------------------------
(PID.TID 0000.0001)     13 --------------------------------------------------------------------------------
(PID.TID 0000.0001)     12 --------------------------------------------------------------------------------
(PID.TID 0000.0001)     11 --------------------------------------------------------------------------------
(PID.TID 0000.0001)     10 --------------------------------------------------------------------------------
(PID.TID 0000.0001)      9 --------------------------------------------------------------------------------
(PID.TID 0000.0001)      8 --------------------------------------------------------------------------------
(PID.TID 0000.0001)      7 --------------------------------------------------------------------------------
(PID.TID 0000.0001)      6 --------------------------------------------------------------------------------
(PID.TID 0000.0001)      5 --------------------------------------------------------------------------------
(PID.TID 0000.0001)      4 --------------------------------------------------------------------------------
(PID.TID 0000.0001)      3 --------------------------------------------------------------------------------
(PID.TID 0000.0001)      2 --------------------------------------------------------------------------------
(PID.TID 0000.0001)      1 --------------------------------------------------------------------------------
(PID.TID 0000.0001) // =======================================================
(PID.TID 0000.0001) // END OF FIELD                                          =
(PID.TID 0000.0001) // =======================================================
(PID.TID 0000.0001) 
(PID.TID 0000.0001) // =======================================================
(PID.TID 0000.0001) // Model current state
(PID.TID 0000.0001) // =======================================================
(PID.TID 0000.0001) 
(PID.TID 0000.0001) // =======================================================
(PID.TID 0000.0001) // Begin MONITOR dynamic field statistics
(PID.TID 0000.0001) // =======================================================
(PID.TID 0000.0001) %MON time_tsnumber                =                     0
(PID.TID 0000.0001) %MON time_secondsf                =   0.0000000000000E+00
(PID.TID 0000.0001) %MON time_secondsi                =                     0
(PID.TID 0000.0001) %MON dynstat_eta_max              =   0.0000000000000E+00
(PID.TID 0000.0001) %MON dynstat_eta_min              =   0.0000000000000E+00
(PID.TID 0000.0001) %MON dynstat_eta_mean             =   0.0000000000000E+00
(PID.TID 0000.0001) %MON dynstat_eta_sd               =   0.0000000000000E+00
(PID.TID 0000.0001) %MON dynstat_uvel_max             =   2.5000000000000E-01
(PID.TID 0000.0001) %MON dynstat_uvel_min             =   2.5000000000000E-01
(PID.TID 0000.0001) %MON dynstat_uvel_mean            =   2.5000000000000E-01
(PID.TID 0000.0001) %MON dynstat_uvel_sd              =   0.0000000000000E+00
(PID.TID 0000.0001) %MON dynstat_vvel_max             =   0.0000000000000E+00
(PID.TID 0000.0001) %MON dynstat_vvel_min             =   0.0000000000000E+00
(PID.TID 0000.0001) %MON dynstat_vvel_mean            =   0.0000000000000E+00
(PID.TID 0000.0001) %MON dynstat_vvel_sd              =   0.0000000000000E+00
(PID.TID 0000.0001) %MON dynstat_wvel_max             =   0.0000000000000E+00
(PID.TID 0000.0001) %MON dynstat_wvel_min             =   0.0000000000000E+00
(PID.TID 0000.0001) %MON dynstat_wvel_mean            =   0.0000000000000E+00
(PID.TID 0000.0001) %MON dynstat_wvel_sd              =   0.0000000000000E+00
(PID.TID 0000.0001) %MON dynstat_theta_max            =   6.9683400000000E-01
(PID.TID 0000.0001) %MON dynstat_theta_min            =  -6.9683400000000E-01
(PID.TID 0000.0001) %MON dynstat_theta_mean           =   1.4273605584617E-02
(PID.TID 0000.0001) %MON dynstat_theta_sd             =   4.5392390372251E-01
(PID.TID 0000.0001) %MON dynstat_salt_max             =   3.5000000000000E+01
(PID.TID 0000.0001) %MON dynstat_salt_min             =   3.5000000000000E+01
(PID.TID 0000.0001) %MON dynstat_salt_mean            =   3.5000000000000E+01
(PID.TID 0000.0001) %MON dynstat_salt_sd              =   0.0000000000000E+00
(PID.TID 0000.0001) %MON advcfl_uvel_max              =   3.0000000000000E-02
(PID.TID 0000.0001) %MON advcfl_vvel_max              =   0.0000000000000E+00
(PID.TID 0000.0001) %MON advcfl_wvel_max              =   0.0000000000000E+00
(PID.TID 0000.0001) %MON ke_max                       =   3.1250000000000E-02
(PID.TID 0000.0001) %MON ke_mean                      =   2.7343750000000E-02
(PID.TID 0000.0001) // =======================================================
(PID.TID 0000.0001) // End MONITOR dynamic field statistics
(PID.TID 0000.0001) // =======================================================
 cg2d: Sum(rhs),rhsMax =  -1.11022302462516E-15  2.04833333333333E+00
(PID.TID 0000.0001)                    cg2d_init_res =    8.73953507228848E+00
(PID.TID 0000.0001)                       cg2d_iters =   176
(PID.TID 0000.0001)                         cg2d_res =    8.40823542147703E-14
(PID.TID 0000.0001) // =======================================================
(PID.TID 0000.0001) // Begin MONITOR dynamic field statistics
(PID.TID 0000.0001) // =======================================================
(PID.TID 0000.0001) %MON time_tsnumber                =                     1
(PID.TID 0000.0001) %MON time_secondsf                =   6.0000000000000E+02
(PID.TID 0000.0001) %MON time_secondsi                =                   600
(PID.TID 0000.0001) %MON dynstat_eta_max              =   4.8679247680810E+00
(PID.TID 0000.0001) %MON dynstat_eta_min              =  -4.8728040503732E+00
(PID.TID 0000.0001) %MON dynstat_eta_mean             =   3.2651943826796E-16
(PID.TID 0000.0001) %MON dynstat_eta_sd               =   2.5536902050082E+00
(PID.TID 0000.0001) %MON dynstat_uvel_max             =   2.5182403838728E-01
(PID.TID 0000.0001) %MON dynstat_uvel_min             =   9.2523833422317E-02
(PID.TID 0000.0001) %MON dynstat_uvel_mean            =   1.5824462652694E-01
(PID.TID 0000.0001) %MON dynstat_uvel_sd              =   4.7326427959234E-02
(PID.TID 0000.0001) %MON dynstat_vvel_max             =   3.2017024799200E-02
(PID.TID 0000.0001) %MON dynstat_vvel_min             =  -3.1806516684552E-02
(PID.TID 0000.0001) %MON dynstat_vvel_mean            =  -5.5290360020164E-05
(PID.TID 0000.0001) %MON dynstat_vvel_sd              =   7.4273801913765E-03
(PID.TID 0000.0001) %MON dynstat_wvel_max             =   2.2500000000000E-01
(PID.TID 0000.0001) %MON dynstat_wvel_min             =  -2.2500000000000E-01
(PID.TID 0000.0001) %MON dynstat_wvel_mean            =  -2.6324807964346E-25
(PID.TID 0000.0001) %MON dynstat_wvel_sd              =   7.2382279611111E-02
(PID.TID 0000.0001) %MON dynstat_theta_max            =   7.3028212195928E-01
(PID.TID 0000.0001) %MON dynstat_theta_min            =  -7.0161229795928E-01
(PID.TID 0000.0001) %MON dynstat_theta_mean           =   1.4273605732611E-02
(PID.TID 0000.0001) %MON dynstat_theta_sd             =   4.5396290108009E-01
(PID.TID 0000.0001) %MON dynstat_salt_max             =   3.5000000000000E+01
(PID.TID 0000.0001) %MON dynstat_salt_min             =   3.5000000000000E+01
(PID.TID 0000.0001) %MON dynstat_salt_mean            =   3.5000000000000E+01
(PID.TID 0000.0001) %MON dynstat_salt_sd              =   8.8131979644294E-17
(PID.TID 0000.0001) %MON advcfl_uvel_max              =   3.0218884606474E-02
(PID.TID 0000.0001) %MON advcfl_vvel_max              =   3.8420429759040E-03
(PID.TID 0000.0001) %MON advcfl_wvel_max              =   4.8000000000000E-01
(PID.TID 0000.0001) %MON ke_max                       =   3.1508206007084E-02
(PID.TID 0000.0001) %MON ke_mean                      =   1.3624457299448E-02
(PID.TID 0000.0001) // =======================================================
(PID.TID 0000.0001) // End MONITOR dynamic field statistics
(PID.TID 0000.0001) // =======================================================
 cg2d: Sum(rhs),rhsMax =  -2.91433543964104E-16  6.07424190967436E-01
(PID.TID 0000.0001)                    cg2d_init_res =    3.22177548955070E+01
(PID.TID 0000.0001)                       cg2d_iters =   199
(PID.TID 0000.0001)                         cg2d_res =    6.47288010202199E-14
(PID.TID 0000.0001) // =======================================================
(PID.TID 0000.0001) // Begin MONITOR dynamic field statistics
(PID.TID 0000.0001) // =======================================================
(PID.TID 0000.0001) %MON time_tsnumber                =                     2
(PID.TID 0000.0001) %MON time_secondsf                =   1.2000000000000E+03
(PID.TID 0000.0001) %MON time_secondsi                =                  1200
(PID.TID 0000.0001) %MON dynstat_eta_max              =   4.0110214947224E+00
(PID.TID 0000.0001) %MON dynstat_eta_min              =  -4.0151201423664E+00
(PID.TID 0000.0001) %MON dynstat_eta_mean             =   5.0102372393340E-17
(PID.TID 0000.0001) %MON dynstat_eta_sd               =   2.6223916082873E+00
(PID.TID 0000.0001) %MON dynstat_uvel_max             =   5.7276068579390E-01
(PID.TID 0000.0001) %MON dynstat_uvel_min             =   2.0722210350751E-01
(PID.TID 0000.0001) %MON dynstat_uvel_mean            =   2.6000992087955E-01
(PID.TID 0000.0001) %MON dynstat_uvel_sd              =   2.5888210393249E-02
(PID.TID 0000.0001) %MON dynstat_vvel_max             =   8.0332740238570E-02
(PID.TID 0000.0001) %MON dynstat_vvel_min             =  -9.0716338227316E-02
(PID.TID 0000.0001) %MON dynstat_vvel_mean            =  -2.4591730417219E-03
(PID.TID 0000.0001) %MON dynstat_vvel_sd              =   1.8894709357744E-02
(PID.TID 0000.0001) %MON dynstat_wvel_max             =   8.9537515095670E-03
(PID.TID 0000.0001) %MON dynstat_wvel_min             =  -8.9535918526080E-03
(PID.TID 0000.0001) %MON dynstat_wvel_mean            =  -2.6494001846301E-20
(PID.TID 0000.0001) %MON dynstat_wvel_sd              =   2.7770285378308E-03
(PID.TID 0000.0001) %MON dynstat_theta_max            =   7.1623885074404E-01
(PID.TID 0000.0001) %MON dynstat_theta_min            =  -6.9961355277318E-01
(PID.TID 0000.0001) %MON dynstat_theta_mean           =   1.4255268894976E-02
(PID.TID 0000.0001) %MON dynstat_theta_sd             =   4.5392919488926E-01
(PID.TID 0000.0001) %MON dynstat_salt_max             =   3.5000000000000E+01
(PID.TID 0000.0001) %MON dynstat_salt_min             =   3.5000000000000E+01
(PID.TID 0000.0001) %MON dynstat_salt_mean            =   3.5000000000000E+01
(PID.TID 0000.0001) %MON dynstat_salt_sd              =   8.8131979644294E-17
(PID.TID 0000.0001) %MON advcfl_uvel_max              =   6.8731282295268E-02
(PID.TID 0000.0001) %MON advcfl_vvel_max              =   1.0885960587278E-02
(PID.TID 0000.0001) %MON advcfl_wvel_max              =   1.7325525512455E-02
(PID.TID 0000.0001) %MON ke_max                       =   1.5991021514712E-01
(PID.TID 0000.0001) %MON ke_mean                      =   3.4198488465900E-02
(PID.TID 0000.0001) // =======================================================
(PID.TID 0000.0001) // End MONITOR dynamic field statistics
(PID.TID 0000.0001) // =======================================================
 cg2d: Sum(rhs),rhsMax =   4.21884749357559E-13  2.27079426272281E-01
(PID.TID 0000.0001)                    cg2d_init_res =    1.66723784147806E+01
(PID.TID 0000.0001)                       cg2d_iters =   202
(PID.TID 0000.0001)                         cg2d_res =    8.46202581555558E-14
(PID.TID 0000.0001) // =======================================================
(PID.TID 0000.0001) // Begin MONITOR dynamic field statistics
(PID.TID 0000.0001) // =======================================================
(PID.TID 0000.0001) %MON time_tsnumber                =                     3
(PID.TID 0000.0001) %MON time_secondsf                =   1.8000000000000E+03
(PID.TID 0000.0001) %MON time_secondsi                =                  1800
(PID.TID 0000.0001) %MON dynstat_eta_max              =   2.2375429780482E+00
(PID.TID 0000.0001) %MON dynstat_eta_min              =  -2.2367561989173E+00
(PID.TID 0000.0001) %MON dynstat_eta_mean             =   2.1378910038295E-16
(PID.TID 0000.0001) %MON dynstat_eta_sd               =   1.4590068178489E+00
(PID.TID 0000.0001) %MON dynstat_uvel_max             =   7.9883353732038E-01
(PID.TID 0000.0001) %MON dynstat_uvel_min             =   2.1629315165474E-01
(PID.TID 0000.0001) %MON dynstat_uvel_mean            =   3.1060851559579E-01
(PID.TID 0000.0001) %MON dynstat_uvel_sd              =   5.7027314322637E-02
(PID.TID 0000.0001) %MON dynstat_vvel_max             =   1.1180934504190E-01
(PID.TID 0000.0001) %MON dynstat_vvel_min             =  -1.4210184910826E-01
(PID.TID 0000.0001) %MON dynstat_vvel_mean            =  -1.9273461068919E-03
(PID.TID 0000.0001) %MON dynstat_vvel_sd              =   2.6473769962437E-02
(PID.TID 0000.0001) %MON dynstat_wvel_max             =   2.0809265502155E-02
(PID.TID 0000.0001) %MON dynstat_wvel_min             =  -2.0779311535318E-02
(PID.TID 0000.0001) %MON dynstat_wvel_mean            =  -8.8062378680597E-21
(PID.TID 0000.0001) %MON dynstat_wvel_sd              =   2.2447452109145E-03
(PID.TID 0000.0001) %MON dynstat_theta_max            =   7.1469626034264E-01
(PID.TID 0000.0001) %MON dynstat_theta_min            =  -7.0293969619226E-01
(PID.TID 0000.0001) %MON dynstat_theta_mean           =   1.4250462980341E-02
(PID.TID 0000.0001) %MON dynstat_theta_sd             =   4.5392654144779E-01
(PID.TID 0000.0001) %MON dynstat_salt_max             =   3.5000000000000E+01
(PID.TID 0000.0001) %MON dynstat_salt_min             =   3.5000000000000E+01
(PID.TID 0000.0001) %MON dynstat_salt_mean            =   3.5000000000000E+01
(PID.TID 0000.0001) %MON dynstat_salt_sd              =   8.8131979644294E-17
(PID.TID 0000.0001) %MON advcfl_uvel_max              =   9.5860024478445E-02
(PID.TID 0000.0001) %MON advcfl_vvel_max              =   1.7052221892992E-02
(PID.TID 0000.0001) %MON advcfl_wvel_max              =   2.2196549868965E-02
(PID.TID 0000.0001) %MON ke_max                       =   3.1278835483175E-01
(PID.TID 0000.0001) %MON ke_mean                      =   5.0032048355004E-02
(PID.TID 0000.0001) // =======================================================
(PID.TID 0000.0001) // End MONITOR dynamic field statistics
(PID.TID 0000.0001) // =======================================================
 cg2d: Sum(rhs),rhsMax =  -8.09907696464052E-14  2.40276497485620E-01
(PID.TID 0000.0001)                    cg2d_init_res =    9.04550091581010E+00
(PID.TID 0000.0001)                       cg2d_iters =   199
(PID.TID 0000.0001)                         cg2d_res =    9.32548097232095E-14
(PID.TID 0000.0001) // =======================================================
(PID.TID 0000.0001) // Begin MONITOR dynamic field statistics
(PID.TID 0000.0001) // =======================================================
(PID.TID 0000.0001) %MON time_tsnumber                =                     4
(PID.TID 0000.0001) %MON time_secondsf                =   2.4000000000000E+03
(PID.TID 0000.0001) %MON time_secondsi                =                  2400
(PID.TID 0000.0001) %MON dynstat_eta_max              =   5.3250591760004E-01
(PID.TID 0000.0001) %MON dynstat_eta_min              =  -5.3152754151058E-01
(PID.TID 0000.0001) %MON dynstat_eta_mean             =   1.8251070170841E-16
(PID.TID 0000.0001) %MON dynstat_eta_sd               =   2.6262381206051E-01
(PID.TID 0000.0001) %MON dynstat_uvel_max             =   8.2404300551595E-01
(PID.TID 0000.0001) %MON dynstat_uvel_min             =   2.1126825332827E-01
(PID.TID 0000.0001) %MON dynstat_uvel_mean            =   3.1474230247082E-01
(PID.TID 0000.0001) %MON dynstat_uvel_sd              =   6.1819844493976E-02
(PID.TID 0000.0001) %MON dynstat_vvel_max             =   1.1534132390304E-01
(PID.TID 0000.0001) %MON dynstat_vvel_min             =  -1.7523586204305E-01
(PID.TID 0000.0001) %MON dynstat_vvel_mean            =  -5.4715679452039E-04
(PID.TID 0000.0001) %MON dynstat_vvel_sd              =   2.7936171434416E-02
(PID.TID 0000.0001) %MON dynstat_wvel_max             =   2.7739620634238E-02
(PID.TID 0000.0001) %MON dynstat_wvel_min             =  -2.7508125614851E-02
(PID.TID 0000.0001) %MON dynstat_wvel_mean            =  -5.9266397570729E-21
(PID.TID 0000.0001) %MON dynstat_wvel_sd              =   2.8897760922603E-03
(PID.TID 0000.0001) %MON dynstat_theta_max            =   7.1325206146122E-01
(PID.TID 0000.0001) %MON dynstat_theta_min            =  -7.0749464799814E-01
(PID.TID 0000.0001) %MON dynstat_theta_mean           =   1.4244423507050E-02
(PID.TID 0000.0001) %MON dynstat_theta_sd             =   4.5392282052792E-01
(PID.TID 0000.0001) %MON dynstat_salt_max             =   3.5000000000000E+01
(PID.TID 0000.0001) %MON dynstat_salt_min             =   3.5000000000000E+01
(PID.TID 0000.0001) %MON dynstat_salt_mean            =   3.5000000000000E+01
(PID.TID 0000.0001) %MON dynstat_salt_sd              =   8.8131979644294E-17
(PID.TID 0000.0001) %MON advcfl_uvel_max              =   9.8885160661913E-02
(PID.TID 0000.0001) %MON advcfl_vvel_max              =   2.1028303445166E-02
(PID.TID 0000.0001) %MON advcfl_wvel_max              =   2.9588928676521E-02
(PID.TID 0000.0001) %MON ke_max                       =   3.3667902933725E-01
(PID.TID 0000.0001) %MON ke_mean                      =   5.1638876220029E-02
(PID.TID 0000.0001) // =======================================================
(PID.TID 0000.0001) // End MONITOR dynamic field statistics
(PID.TID 0000.0001) // =======================================================
 cg2d: Sum(rhs),rhsMax =  -3.61599639120413E-13  2.17381013841032E-01
(PID.TID 0000.0001)                    cg2d_init_res =    5.81577588913152E+00
(PID.TID 0000.0001)                       cg2d_iters =   197
(PID.TID 0000.0001)                         cg2d_res =    7.53334950199567E-14
(PID.TID 0000.0001) // =======================================================
(PID.TID 0000.0001) // Begin MONITOR dynamic field statistics
(PID.TID 0000.0001) // =======================================================
(PID.TID 0000.0001) %MON time_tsnumber                =                     5
(PID.TID 0000.0001) %MON time_secondsf                =   3.0000000000000E+03
(PID.TID 0000.0001) %MON time_secondsi                =                  3000
(PID.TID 0000.0001) %MON dynstat_eta_max              =   1.1326469502943E+00
(PID.TID 0000.0001) %MON dynstat_eta_min              =  -1.1259209821525E+00
(PID.TID 0000.0001) %MON dynstat_eta_mean             =   2.9089978289457E-16
(PID.TID 0000.0001) %MON dynstat_eta_sd               =   6.3341184810391E-01
(PID.TID 0000.0001) %MON dynstat_uvel_max             =   7.2604300845072E-01
(PID.TID 0000.0001) %MON dynstat_uvel_min             =   2.0637155216690E-01
(PID.TID 0000.0001) %MON dynstat_uvel_mean            =   2.9249013409637E-01
(PID.TID 0000.0001) %MON dynstat_uvel_sd              =   4.8409442826773E-02
(PID.TID 0000.0001) %MON dynstat_vvel_max             =   1.0315342774607E-01
(PID.TID 0000.0001) %MON dynstat_vvel_min             =  -1.9733795247912E-01
(PID.TID 0000.0001) %MON dynstat_vvel_mean            =   4.0960972223402E-04
(PID.TID 0000.0001) %MON dynstat_vvel_sd              =   2.5806947988953E-02
(PID.TID 0000.0001) %MON dynstat_wvel_max             =   2.8404912443132E-02
(PID.TID 0000.0001) %MON dynstat_wvel_min             =  -2.7823703268311E-02
(PID.TID 0000.0001) %MON dynstat_wvel_mean            =  -1.7579192359350E-21
(PID.TID 0000.0001) %MON dynstat_wvel_sd              =   3.0137335220107E-03
(PID.TID 0000.0001) %MON dynstat_theta_max            =   7.1187378953800E-01
(PID.TID 0000.0001) %MON dynstat_theta_min            =  -7.1137009239459E-01
(PID.TID 0000.0001) %MON dynstat_theta_mean           =   1.4239128792891E-02
(PID.TID 0000.0001) %MON dynstat_theta_sd             =   4.5391958468605E-01
(PID.TID 0000.0001) %MON dynstat_salt_max             =   3.5000000000000E+01
(PID.TID 0000.0001) %MON dynstat_salt_min             =   3.5000000000000E+01
(PID.TID 0000.0001) %MON dynstat_salt_mean            =   3.5000000000000E+01
(PID.TID 0000.0001) %MON dynstat_salt_sd              =   8.8131979644294E-17
(PID.TID 0000.0001) %MON advcfl_uvel_max              =   8.7125161014087E-02
(PID.TID 0000.0001) %MON advcfl_vvel_max              =   2.3680554297494E-02
(PID.TID 0000.0001) %MON advcfl_wvel_max              =   3.0298573272674E-02
(PID.TID 0000.0001) %MON ke_max                       =   2.6831764840835E-01
(PID.TID 0000.0001) %MON ke_mean                      =   4.4114628435683E-02
(PID.TID 0000.0001) // =======================================================
(PID.TID 0000.0001) // End MONITOR dynamic field statistics
(PID.TID 0000.0001) // =======================================================
 cg2d: Sum(rhs),rhsMax =  -4.70179450928754E-14  1.89219887514034E-01
(PID.TID 0000.0001)                    cg2d_init_res =    2.32967212446840E+00
(PID.TID 0000.0001)                       cg2d_iters =   197
(PID.TID 0000.0001)                         cg2d_res =    7.40000019505193E-14
(PID.TID 0000.0001) // =======================================================
(PID.TID 0000.0001) // Begin MONITOR dynamic field statistics
(PID.TID 0000.0001) // =======================================================
(PID.TID 0000.0001) %MON time_tsnumber                =                     6
(PID.TID 0000.0001) %MON time_secondsf                =   3.6000000000000E+03
(PID.TID 0000.0001) %MON time_secondsi                =                  3600
(PID.TID 0000.0001) %MON dynstat_eta_max              =   1.2430389839311E+00
(PID.TID 0000.0001) %MON dynstat_eta_min              =  -1.2397692662871E+00
(PID.TID 0000.0001) %MON dynstat_eta_mean             =   3.6633801405500E-16
(PID.TID 0000.0001) %MON dynstat_eta_sd               =   7.2707313795167E-01
(PID.TID 0000.0001) %MON dynstat_uvel_max             =   6.0908740413602E-01
(PID.TID 0000.0001) %MON dynstat_uvel_min             =   1.8910374570933E-01
(PID.TID 0000.0001) %MON dynstat_uvel_mean            =   2.6653333053497E-01
(PID.TID 0000.0001) %MON dynstat_uvel_sd              =   3.4025256029597E-02
(PID.TID 0000.0001) %MON dynstat_vvel_max             =   9.8973690376299E-02
(PID.TID 0000.0001) %MON dynstat_vvel_min             =  -2.1958432114483E-01
(PID.TID 0000.0001) %MON dynstat_vvel_mean            =   6.8175577072664E-04
(PID.TID 0000.0001) %MON dynstat_vvel_sd              =   2.3374686080394E-02
(PID.TID 0000.0001) %MON dynstat_wvel_max             =   2.5210258878486E-02
(PID.TID 0000.0001) %MON dynstat_wvel_min             =  -2.5319702187822E-02
(PID.TID 0000.0001) %MON dynstat_wvel_mean            =   1.1819720694358E-20
(PID.TID 0000.0001) %MON dynstat_wvel_sd              =   2.6580117946348E-03
(PID.TID 0000.0001) %MON dynstat_theta_max            =   7.1070005103293E-01
(PID.TID 0000.0001) %MON dynstat_theta_min            =  -7.1425438848985E-01
(PID.TID 0000.0001) %MON dynstat_theta_mean           =   1.4234703682222E-02
(PID.TID 0000.0001) %MON dynstat_theta_sd             =   4.5391679347637E-01
(PID.TID 0000.0001) %MON dynstat_salt_max             =   3.5000000000000E+01
(PID.TID 0000.0001) %MON dynstat_salt_min             =   3.5000000000000E+01
(PID.TID 0000.0001) %MON dynstat_salt_mean            =   3.5000000000000E+01
(PID.TID 0000.0001) %MON dynstat_salt_sd              =   8.8131979644294E-17
(PID.TID 0000.0001) %MON advcfl_uvel_max              =   7.3090488496323E-02
(PID.TID 0000.0001) %MON advcfl_vvel_max              =   2.6350118537379E-02
(PID.TID 0000.0001) %MON advcfl_wvel_max              =   2.7007682333677E-02
(PID.TID 0000.0001) %MON ke_max                       =   1.9841572758184E-01
(PID.TID 0000.0001) %MON ke_mean                      =   3.6236417542903E-02
(PID.TID 0000.0001) // =======================================================
(PID.TID 0000.0001) // End MONITOR dynamic field statistics
(PID.TID 0000.0001) // =======================================================
 cg2d: Sum(rhs),rhsMax =   3.61599639120413E-13  1.65230772130622E-01
(PID.TID 0000.0001)                    cg2d_init_res =    3.36824584932821E+00
(PID.TID 0000.0001)                       cg2d_iters =   197
(PID.TID 0000.0001)                         cg2d_res =    7.09122708490674E-14
(PID.TID 0000.0001) // =======================================================
(PID.TID 0000.0001) // Begin MONITOR dynamic field statistics
(PID.TID 0000.0001) // =======================================================
(PID.TID 0000.0001) %MON time_tsnumber                =                     7
(PID.TID 0000.0001) %MON time_secondsf                =   4.2000000000000E+03
(PID.TID 0000.0001) %MON time_secondsi                =                  4200
(PID.TID 0000.0001) %MON dynstat_eta_max              =   8.3411707674037E-01
(PID.TID 0000.0001) %MON dynstat_eta_min              =  -8.3397075839940E-01
(PID.TID 0000.0001) %MON dynstat_eta_mean             =   4.0852293058363E-16
(PID.TID 0000.0001) %MON dynstat_eta_sd               =   4.4890726434878E-01
(PID.TID 0000.0001) %MON dynstat_uvel_max             =   5.3496065173327E-01
(PID.TID 0000.0001) %MON dynstat_uvel_min             =   1.6566879927454E-01
(PID.TID 0000.0001) %MON dynstat_uvel_mean            =   2.5083165712494E-01
(PID.TID 0000.0001) %MON dynstat_uvel_sd              =   2.7278406215461E-02
(PID.TID 0000.0001) %MON dynstat_vvel_max             =   9.7853056990400E-02
(PID.TID 0000.0001) %MON dynstat_vvel_min             =  -2.4003146576468E-01
(PID.TID 0000.0001) %MON dynstat_vvel_mean            =   4.8032559750450E-04
(PID.TID 0000.0001) %MON dynstat_vvel_sd              =   2.2370277715350E-02
(PID.TID 0000.0001) %MON dynstat_wvel_max             =   2.1490203529223E-02
(PID.TID 0000.0001) %MON dynstat_wvel_min             =  -2.3385493832601E-02
(PID.TID 0000.0001) %MON dynstat_wvel_mean            =   2.7791219738175E-21
(PID.TID 0000.0001) %MON dynstat_wvel_sd              =   2.3337069995020E-03
(PID.TID 0000.0001) %MON dynstat_theta_max            =   7.0971352803834E-01
(PID.TID 0000.0001) %MON dynstat_theta_min            =  -7.1641263997369E-01
(PID.TID 0000.0001) %MON dynstat_theta_mean           =   1.4230953011139E-02
(PID.TID 0000.0001) %MON dynstat_theta_sd             =   4.5391436931426E-01
(PID.TID 0000.0001) %MON dynstat_salt_max             =   3.5000000000000E+01
(PID.TID 0000.0001) %MON dynstat_salt_min             =   3.5000000000000E+01
(PID.TID 0000.0001) %MON dynstat_salt_mean            =   3.5000000000000E+01
(PID.TID 0000.0001) %MON dynstat_salt_sd              =   8.8131979644294E-17
(PID.TID 0000.0001) %MON advcfl_uvel_max              =   6.4195278207993E-02
(PID.TID 0000.0001) %MON advcfl_vvel_max              =   2.8803775891762E-02
(PID.TID 0000.0001) %MON advcfl_wvel_max              =   2.4944526754774E-02
(PID.TID 0000.0001) %MON ke_max                       =   1.6269811808358E-01
(PID.TID 0000.0001) %MON ke_mean                      =   3.1959910082632E-02
(PID.TID 0000.0001) // =======================================================
(PID.TID 0000.0001) // End MONITOR dynamic field statistics
(PID.TID 0000.0001) // =======================================================
 cg2d: Sum(rhs),rhsMax =  -2.10831352376317E-13  1.46292001836834E-01
(PID.TID 0000.0001)                    cg2d_init_res =    4.13191231807386E+00
(PID.TID 0000.0001)                       cg2d_iters =   195
(PID.TID 0000.0001)                         cg2d_res =    7.82624473029393E-14
(PID.TID 0000.0001) // =======================================================
(PID.TID 0000.0001) // Begin MONITOR dynamic field statistics
(PID.TID 0000.0001) // =======================================================
(PID.TID 0000.0001) %MON time_tsnumber                =                     8
(PID.TID 0000.0001) %MON time_secondsf                =   4.8000000000000E+03
(PID.TID 0000.0001) %MON time_secondsi                =                  4800
(PID.TID 0000.0001) %MON dynstat_eta_max              =   3.4272446465707E-01
(PID.TID 0000.0001) %MON dynstat_eta_min              =  -3.4352022691866E-01
(PID.TID 0000.0001) %MON dynstat_eta_mean             =   2.9566804844905E-16
(PID.TID 0000.0001) %MON dynstat_eta_sd               =   1.5279089596128E-01
(PID.TID 0000.0001) %MON dynstat_uvel_max             =   5.1356223236350E-01
(PID.TID 0000.0001) %MON dynstat_uvel_min             =   1.5851127679943E-01
(PID.TID 0000.0001) %MON dynstat_uvel_mean            =   2.4796236043039E-01
(PID.TID 0000.0001) %MON dynstat_uvel_sd              =   2.6352208922711E-02
(PID.TID 0000.0001) %MON dynstat_vvel_max             =   1.0170954520518E-01
(PID.TID 0000.0001) %MON dynstat_vvel_min             =  -2.6292103579809E-01
(PID.TID 0000.0001) %MON dynstat_vvel_mean            =   1.2531258290362E-04
(PID.TID 0000.0001) %MON dynstat_vvel_sd              =   2.2941296594778E-02
(PID.TID 0000.0001) %MON dynstat_wvel_max             =   2.0252562087306E-02
(PID.TID 0000.0001) %MON dynstat_wvel_min             =  -2.2117572867231E-02
(PID.TID 0000.0001) %MON dynstat_wvel_mean            =  -3.0419965549943E-20
(PID.TID 0000.0001) %MON dynstat_wvel_sd              =   2.1922272835992E-03
(PID.TID 0000.0001) %MON dynstat_theta_max            =   7.0891728476991E-01
(PID.TID 0000.0001) %MON dynstat_theta_min            =  -7.1826994455822E-01
(PID.TID 0000.0001) %MON dynstat_theta_mean           =   1.4227760745743E-02
(PID.TID 0000.0001) %MON dynstat_theta_sd             =   4.5391219821751E-01
(PID.TID 0000.0001) %MON dynstat_salt_max             =   3.5000000000000E+01
(PID.TID 0000.0001) %MON dynstat_salt_min             =   3.5000000000000E+01
(PID.TID 0000.0001) %MON dynstat_salt_mean            =   3.5000000000000E+01
(PID.TID 0000.0001) %MON dynstat_salt_sd              =   8.8131979644294E-17
(PID.TID 0000.0001) %MON advcfl_uvel_max              =   6.1627467883620E-02
(PID.TID 0000.0001) %MON advcfl_vvel_max              =   3.1550524295770E-02
(PID.TID 0000.0001) %MON advcfl_wvel_max              =   2.3592077725046E-02
(PID.TID 0000.0001) %MON ke_max                       =   1.5732520152330E-01
(PID.TID 0000.0001) %MON ke_mean                      =   3.1233236679378E-02
(PID.TID 0000.0001) // =======================================================
(PID.TID 0000.0001) // End MONITOR dynamic field statistics
(PID.TID 0000.0001) // =======================================================
 cg2d: Sum(rhs),rhsMax =  -1.06137321154165E-13  1.55425208405790E-01
(PID.TID 0000.0001)                    cg2d_init_res =    2.50500628750026E+00
(PID.TID 0000.0001)                       cg2d_iters =   193
(PID.TID 0000.0001)                         cg2d_res =    9.63233137709869E-14
(PID.TID 0000.0001) // =======================================================
(PID.TID 0000.0001) // Begin MONITOR dynamic field statistics
(PID.TID 0000.0001) // =======================================================
(PID.TID 0000.0001) %MON time_tsnumber                =                     9
(PID.TID 0000.0001) %MON time_secondsf                =   5.4000000000000E+03
(PID.TID 0000.0001) %MON time_secondsi                =                  5400
(PID.TID 0000.0001) %MON dynstat_eta_max              =   4.3839542435891E-01
(PID.TID 0000.0001) %MON dynstat_eta_min              =  -4.3902346146805E-01
(PID.TID 0000.0001) %MON dynstat_eta_mean             =   2.2364588813363E-16
(PID.TID 0000.0001) %MON dynstat_eta_sd               =   2.0349598536813E-01
(PID.TID 0000.0001) %MON dynstat_uvel_max             =   5.3197150783389E-01
(PID.TID 0000.0001) %MON dynstat_uvel_min             =   1.6190396542668E-01
(PID.TID 0000.0001) %MON dynstat_uvel_mean            =   2.5319343675688E-01
(PID.TID 0000.0001) %MON dynstat_uvel_sd              =   2.8212132230082E-02
(PID.TID 0000.0001) %MON dynstat_vvel_max             =   1.0917191792002E-01
(PID.TID 0000.0001) %MON dynstat_vvel_min             =  -2.8914669909112E-01
(PID.TID 0000.0001) %MON dynstat_vvel_mean            =  -1.4695598866786E-04
(PID.TID 0000.0001) %MON dynstat_vvel_sd              =   2.4496646503119E-02
(PID.TID 0000.0001) %MON dynstat_wvel_max             =   2.0194614894964E-02
(PID.TID 0000.0001) %MON dynstat_wvel_min             =  -2.2013784789006E-02
(PID.TID 0000.0001) %MON dynstat_wvel_mean            =   1.5092752268183E-20
(PID.TID 0000.0001) %MON dynstat_wvel_sd              =   2.1223780261529E-03
(PID.TID 0000.0001) %MON dynstat_theta_max            =   7.1003062696757E-01
(PID.TID 0000.0001) %MON dynstat_theta_min            =  -7.2013383946288E-01
(PID.TID 0000.0001) %MON dynstat_theta_mean           =   1.4225021449879E-02
(PID.TID 0000.0001) %MON dynstat_theta_sd             =   4.5391017343262E-01
(PID.TID 0000.0001) %MON dynstat_salt_max             =   3.5000000000000E+01
(PID.TID 0000.0001) %MON dynstat_salt_min             =   3.5000000000000E+01
(PID.TID 0000.0001) %MON dynstat_salt_mean            =   3.5000000000000E+01
(PID.TID 0000.0001) %MON dynstat_salt_sd              =   8.8131979644294E-17
(PID.TID 0000.0001) %MON advcfl_uvel_max              =   6.3836580940066E-02
(PID.TID 0000.0001) %MON advcfl_vvel_max              =   3.4697603890934E-02
(PID.TID 0000.0001) %MON advcfl_wvel_max              =   2.3481370441606E-02
(PID.TID 0000.0001) %MON ke_max                       =   1.6912357787769E-01
(PID.TID 0000.0001) %MON ke_mean                      =   3.2623860536769E-02
(PID.TID 0000.0001) // =======================================================
(PID.TID 0000.0001) // End MONITOR dynamic field statistics
(PID.TID 0000.0001) // =======================================================
 cg2d: Sum(rhs),rhsMax =  -2.25819363208757E-13  1.57031273360116E-01
(PID.TID 0000.0001)                    cg2d_init_res =    9.88466861821827E-01
(PID.TID 0000.0001)                       cg2d_iters =   193
(PID.TID 0000.0001)                         cg2d_res =    7.59690604060430E-14
(PID.TID 0000.0001) // =======================================================
(PID.TID 0000.0001) // Begin MONITOR dynamic field statistics
(PID.TID 0000.0001) // =======================================================
(PID.TID 0000.0001) %MON time_tsnumber                =                    10
(PID.TID 0000.0001) %MON time_secondsf                =   6.0000000000000E+03
(PID.TID 0000.0001) %MON time_secondsi                =                  6000
(PID.TID 0000.0001) %MON dynstat_eta_max              =   5.1435693121421E-01
(PID.TID 0000.0001) %MON dynstat_eta_min              =  -5.1431122666391E-01
(PID.TID 0000.0001) %MON dynstat_eta_mean             =   2.7954846414921E-16
(PID.TID 0000.0001) %MON dynstat_eta_sd               =   2.4692325792182E-01
(PID.TID 0000.0001) %MON dynstat_uvel_max             =   5.5726241898908E-01
(PID.TID 0000.0001) %MON dynstat_uvel_min             =   1.6727296539816E-01
(PID.TID 0000.0001) %MON dynstat_uvel_mean            =   2.6019173939278E-01
(PID.TID 0000.0001) %MON dynstat_uvel_sd              =   3.1154955620453E-02
(PID.TID 0000.0001) %MON dynstat_vvel_max             =   1.1781575902907E-01
(PID.TID 0000.0001) %MON dynstat_vvel_min             =  -3.1732996649394E-01
(PID.TID 0000.0001) %MON dynstat_vvel_mean            =  -2.5004857877609E-04
(PID.TID 0000.0001) %MON dynstat_vvel_sd              =   2.6343210937648E-02
(PID.TID 0000.0001) %MON dynstat_wvel_max             =   2.0927019181126E-02
(PID.TID 0000.0001) %MON dynstat_wvel_min             =  -2.2734957434247E-02
(PID.TID 0000.0001) %MON dynstat_wvel_mean            =   1.9219618165614E-20
(PID.TID 0000.0001) %MON dynstat_wvel_sd              =   2.0750927313038E-03
(PID.TID 0000.0001) %MON dynstat_theta_max            =   7.1114861474700E-01
(PID.TID 0000.0001) %MON dynstat_theta_min            =  -7.2210888700628E-01
(PID.TID 0000.0001) %MON dynstat_theta_mean           =   1.4222647612590E-02
(PID.TID 0000.0001) %MON dynstat_theta_sd             =   4.5390823755506E-01
(PID.TID 0000.0001) %MON dynstat_salt_max             =   3.5000000000000E+01
(PID.TID 0000.0001) %MON dynstat_salt_min             =   3.5000000000000E+01
(PID.TID 0000.0001) %MON dynstat_salt_mean            =   3.5000000000000E+01
(PID.TID 0000.0001) %MON dynstat_salt_sd              =   8.8131979644294E-17
(PID.TID 0000.0001) %MON advcfl_uvel_max              =   6.6871490278689E-02
(PID.TID 0000.0001) %MON advcfl_vvel_max              =   3.8079595979273E-02
(PID.TID 0000.0001) %MON advcfl_wvel_max              =   2.4250621263196E-02
(PID.TID 0000.0001) %MON ke_max                       =   1.8532753601351E-01
(PID.TID 0000.0001) %MON ke_mean                      =   3.4544199347344E-02
(PID.TID 0000.0001) // =======================================================
(PID.TID 0000.0001) // End MONITOR dynamic field statistics
(PID.TID 0000.0001) // =======================================================
(PID.TID 0000.0001)   Seconds in section "ALL                [THE_MODEL_MAIN]":
(PID.TID 0000.0001)           User time:  7.22000002
(PID.TID 0000.0001)         System time:  0.0299999993
(PID.TID 0000.0001)     Wall clock time:  7.25450599
(PID.TID 0000.0001)          No. starts: 1
(PID.TID 0000.0001)           No. stops: 1
(PID.TID 0000.0001)   Seconds in section "INITIALISE_FIXED   [THE_MODEL_MAIN]":
(PID.TID 0000.0001)           User time:  0.179999998
(PID.TID 0000.0001)         System time:  0.
(PID.TID 0000.0001)     Wall clock time:  0.183634043
(PID.TID 0000.0001)          No. starts: 1
(PID.TID 0000.0001)           No. stops: 1
(PID.TID 0000.0001)   Seconds in section "THE_MAIN_LOOP      [THE_MODEL_MAIN]":
(PID.TID 0000.0001)           User time:  7.04000002
(PID.TID 0000.0001)         System time:  0.0299999993
(PID.TID 0000.0001)     Wall clock time:  7.07055998
(PID.TID 0000.0001)          No. starts: 1
(PID.TID 0000.0001)           No. stops: 1
(PID.TID 0000.0001)   Seconds in section "INITIALISE_VARIA    [THE_MAIN_LOOP]":
(PID.TID 0000.0001)           User time:  0.0600000024
(PID.TID 0000.0001)         System time:  0.
(PID.TID 0000.0001)     Wall clock time:  0.0641130209
(PID.TID 0000.0001)          No. starts: 1
(PID.TID 0000.0001)           No. stops: 1
(PID.TID 0000.0001)   Seconds in section "WRITE_STATE         [THE_MAIN_LOOP]":
(PID.TID 0000.0001)           User time:  0.0399999917
(PID.TID 0000.0001)         System time:  0.
(PID.TID 0000.0001)     Wall clock time:  0.0388250351
(PID.TID 0000.0001)          No. starts: 1
(PID.TID 0000.0001)           No. stops: 1
(PID.TID 0000.0001)   Seconds in section "MONITOR             [THE_MAIN_LOOP]":
(PID.TID 0000.0001)           User time:  0.0300000012
(PID.TID 0000.0001)         System time:  0.
(PID.TID 0000.0001)     Wall clock time:  0.0242990255
(PID.TID 0000.0001)          No. starts: 1
(PID.TID 0000.0001)           No. stops: 1
(PID.TID 0000.0001)   Seconds in section "MAIN LOOP           [THE_MAIN_LOOP]":
(PID.TID 0000.0001)           User time:  6.91000003
(PID.TID 0000.0001)         System time:  0.0299999993
(PID.TID 0000.0001)     Wall clock time:  6.94302607
(PID.TID 0000.0001)          No. starts: 1
(PID.TID 0000.0001)           No. stops: 1
(PID.TID 0000.0001)   Seconds in section "EXTERNAL_FIELDS_LOAD[THE_MAIN_LOOP]":
(PID.TID 0000.0001)           User time:  0.
(PID.TID 0000.0001)         System time:  0.
(PID.TID 0000.0001)     Wall clock time:  0.000567913055
(PID.TID 0000.0001)          No. starts: 10
(PID.TID 0000.0001)           No. stops: 10
(PID.TID 0000.0001)   Seconds in section "DYNAMICS            [THE_MAIN_LOOP]":
(PID.TID 0000.0001)           User time:  2.42000061
(PID.TID 0000.0001)         System time:  0.00999999978
(PID.TID 0000.0001)     Wall clock time:  2.43762779
(PID.TID 0000.0001)          No. starts: 10
(PID.TID 0000.0001)           No. stops: 10
(PID.TID 0000.0001)   Seconds in section "SOLVE_FOR_PRESSURE  [THE_MAIN_LOOP]":
(PID.TID 0000.0001)           User time:  3.65999991
(PID.TID 0000.0001)         System time:  0.
(PID.TID 0000.0001)     Wall clock time:  3.65117514
(PID.TID 0000.0001)          No. starts: 10
(PID.TID 0000.0001)           No. stops: 10
(PID.TID 0000.0001)   Seconds in section "THE_CORRECTION_STEP [THE_MAIN_LOOP]":
(PID.TID 0000.0001)           User time:  0.160000145
(PID.TID 0000.0001)         System time:  0.
(PID.TID 0000.0001)     Wall clock time:  0.170598149
(PID.TID 0000.0001)          No. starts: 10
(PID.TID 0000.0001)           No. stops: 10
(PID.TID 0000.0001)   Seconds in section "BLOCKING_EXCHANGES  [THE_MAIN_LOOP]":
(PID.TID 0000.0001)           User time:  0.0400002003
(PID.TID 0000.0001)         System time:  0.
(PID.TID 0000.0001)     Wall clock time:  0.0241680145
(PID.TID 0000.0001)          No. starts: 10
(PID.TID 0000.0001)           No. stops: 10
(PID.TID 0000.0001)   Seconds in section "DO_THE_MODEL_IO     [THE_MAIN_LOOP]":
(PID.TID 0000.0001)           User time:  0.0399999619
(PID.TID 0000.0001)         System time:  0.
(PID.TID 0000.0001)     Wall clock time:  0.0391260386
(PID.TID 0000.0001)          No. starts: 10
(PID.TID 0000.0001)           No. stops: 10
(PID.TID 0000.0001)   Seconds in section "WRITE_CHECKPOINT    [THE_MAIN_LOOP]":
(PID.TID 0000.0001)           User time:  0.300000191
(PID.TID 0000.0001)         System time:  0.0199999996
(PID.TID 0000.0001)     Wall clock time:  0.314925075
(PID.TID 0000.0001)          No. starts: 10
(PID.TID 0000.0001)           No. stops: 10
(PID.TID 0000.0001)   Seconds in section "WRITE_CHECKPOINT   [THE_MODEL_MAIN]":
(PID.TID 0000.0001)           User time:  0.
(PID.TID 0000.0001)         System time:  0.
(PID.TID 0000.0001)     Wall clock time:  5.69820404E-05
(PID.TID 0000.0001)          No. starts: 1
(PID.TID 0000.0001)           No. stops: 1
(PID.TID 0000.0001) // ======================================================
(PID.TID 0000.0001) // Tile <-> Tile communication statistics
(PID.TID 0000.0001) // ======================================================
(PID.TID 0000.0001) // o Tile number: 000001
(PID.TID 0000.0001) //         No. X exchanges =              0
(PID.TID 0000.0001) //            Max. X spins =              0
(PID.TID 0000.0001) //            Min. X spins =     1000000000
(PID.TID 0000.0001) //          Total. X spins =              0
(PID.TID 0000.0001) //            Avg. X spins =       0.00E+00
(PID.TID 0000.0001) //         No. Y exchanges =              0
(PID.TID 0000.0001) //            Max. Y spins =              0
(PID.TID 0000.0001) //            Min. Y spins =     1000000000
(PID.TID 0000.0001) //          Total. Y spins =              0
(PID.TID 0000.0001) //            Avg. Y spins =       0.00E+00
(PID.TID 0000.0001) // o Thread number: 000001
(PID.TID 0000.0001) //            No. barriers =          25864
(PID.TID 0000.0001) //      Max. barrier spins =              1
(PID.TID 0000.0001) //      Min. barrier spins =              1
(PID.TID 0000.0001) //     Total barrier spins =          25864
(PID.TID 0000.0001) //      Avg. barrier spins =       1.00E+00
