(PID.TID 0000.0001) 
(PID.TID 0000.0001) // ======================================================
(PID.TID 0000.0001) //                      MITgcm UV
(PID.TID 0000.0001) //                      =========
(PID.TID 0000.0001) // ======================================================
(PID.TID 0000.0001) // execution environment starting up...
(PID.TID 0000.0001) 
(PID.TID 0000.0001) // MITgcmUV version:  checkpoint62w
(PID.TID 0000.0001) // Build user:        jmc
(PID.TID 0000.0001) // Build host:        baudelaire
(PID.TID 0000.0001) // Build date:        Tue May  3 13:09:59 EDT 2011
(PID.TID 0000.0001) 
(PID.TID 0000.0001) // =======================================================
(PID.TID 0000.0001) // Execution Environment parameter file "eedata"
(PID.TID 0000.0001) // =======================================================
(PID.TID 0000.0001) ># Example "eedata" file
(PID.TID 0000.0001) ># Lines beginning "#" are comments
(PID.TID 0000.0001) ># nTx - No. threads per process in X
(PID.TID 0000.0001) ># nTy - No. threads per process in Y
(PID.TID 0000.0001) > &EEPARMS
(PID.TID 0000.0001) > /
(PID.TID 0000.0001) ># Note: Some systems use & as the
(PID.TID 0000.0001) ># namelist terminator. Other systems
(PID.TID 0000.0001) ># use a / character (as shown here).
(PID.TID 0000.0001) 
(PID.TID 0000.0001) // =======================================================
(PID.TID 0000.0001) // Computational Grid Specification ( see files "SIZE.h" )
(PID.TID 0000.0001) //                                  ( and "eedata"       )
(PID.TID 0000.0001) // =======================================================
(PID.TID 0000.0001)      nPx =    1 ; /* No. processes in X */
(PID.TID 0000.0001)      nPy =    1 ; /* No. processes in Y */
(PID.TID 0000.0001)      nSx =    2 ; /* No. tiles in X per process */
(PID.TID 0000.0001)      nSy =    2 ; /* No. tiles in Y per process */
(PID.TID 0000.0001)      sNx =   40 ; /* Tile size in X */
(PID.TID 0000.0001)      sNy =   21 ; /* Tile size in Y */
(PID.TID 0000.0001)      OLx =    3 ; /* Tile overlap distance in X */
(PID.TID 0000.0001)      OLy =    3 ; /* Tile overlap distance in Y */
(PID.TID 0000.0001)      nTx =    1 ; /* No. threads in X per process */
(PID.TID 0000.0001)      nTy =    1 ; /* No. threads in Y per process */
(PID.TID 0000.0001)       Nr =    8 ; /* No. levels in the vertical   */
(PID.TID 0000.0001)       Nx =   80 ; /* Total domain size in X ( = nPx*nSx*sNx ) */
(PID.TID 0000.0001)       Ny =   42 ; /* Total domain size in Y ( = nPy*nSy*sNy ) */
(PID.TID 0000.0001)   nTiles =    4 ; /* Total no. tiles per process ( = nSx*nSy ) */
(PID.TID 0000.0001)   nProcs =    1 ; /* Total no. processes ( = nPx*nPy ) */
(PID.TID 0000.0001) nThreads =    1 ; /* Total no. threads per process ( = nTx*nTy ) */
(PID.TID 0000.0001) usingMPI =    F ; /* Flag used to control whether MPI is in use */
(PID.TID 0000.0001)                   /*  note: To execute a program with MPI calls */
(PID.TID 0000.0001)                   /*  it must be launched appropriately e.g     */
(PID.TID 0000.0001)                   /*  "mpirun -np 64 ......"                    */
(PID.TID 0000.0001) useCoupler=    F ;/* Flag used to control communications with   */
(PID.TID 0000.0001)                   /*  other model components, through a coupler */
(PID.TID 0000.0001) printMapIncludesZeros=    F ; /* print zeros in Std.Output maps */
(PID.TID 0000.0001) maxLengthPrt1D=   65 /* maxLength of 1D array printed to StdOut */
(PID.TID 0000.0001) 
(PID.TID 0000.0001) // ======================================================
(PID.TID 0000.0001) // Mapping of tiles to threads
(PID.TID 0000.0001) // ======================================================
(PID.TID 0000.0001) // -o- Thread   1, tiles (   1:   2,   1:   2)
(PID.TID 0000.0001) 
(PID.TID 0000.0001) // ======================================================
(PID.TID 0000.0001) // Tile <-> Tile connectvity table
(PID.TID 0000.0001) // ======================================================
(PID.TID 0000.0001) // Tile number: 000001 (process no. = 000001)
(PID.TID 0000.0001) //        WEST: Tile = 000002, Process = 000001, Comm = put
(PID.TID 0000.0001) //                bi = 000002, bj = 000001
(PID.TID 0000.0001) //        EAST: Tile = 000002, Process = 000001, Comm = put
(PID.TID 0000.0001) //                bi = 000002, bj = 000001
(PID.TID 0000.0001) //       SOUTH: Tile = 000003, Process = 000001, Comm = put
(PID.TID 0000.0001) //                bi = 000001, bj = 000002
(PID.TID 0000.0001) //       NORTH: Tile = 000003, Process = 000001, Comm = put
(PID.TID 0000.0001) //                bi = 000001, bj = 000002
(PID.TID 0000.0001) // Tile number: 000002 (process no. = 000001)
(PID.TID 0000.0001) //        WEST: Tile = 000001, Process = 000001, Comm = put
(PID.TID 0000.0001) //                bi = 000001, bj = 000001
(PID.TID 0000.0001) //        EAST: Tile = 000001, Process = 000001, Comm = put
(PID.TID 0000.0001) //                bi = 000001, bj = 000001
(PID.TID 0000.0001) //       SOUTH: Tile = 000004, Process = 000001, Comm = put
(PID.TID 0000.0001) //                bi = 000002, bj = 000002
(PID.TID 0000.0001) //       NORTH: Tile = 000004, Process = 000001, Comm = put
(PID.TID 0000.0001) //                bi = 000002, bj = 000002
(PID.TID 0000.0001) // Tile number: 000003 (process no. = 000001)
(PID.TID 0000.0001) //        WEST: Tile = 000004, Process = 000001, Comm = put
(PID.TID 0000.0001) //                bi = 000002, bj = 000002
(PID.TID 0000.0001) //        EAST: Tile = 000004, Process = 000001, Comm = put
(PID.TID 0000.0001) //                bi = 000002, bj = 000002
(PID.TID 0000.0001) //       SOUTH: Tile = 000001, Process = 000001, Comm = put
(PID.TID 0000.0001) //                bi = 000001, bj = 000001
(PID.TID 0000.0001) //       NORTH: Tile = 000001, Process = 000001, Comm = put
(PID.TID 0000.0001) //                bi = 000001, bj = 000001
(PID.TID 0000.0001) // Tile number: 000004 (process no. = 000001)
(PID.TID 0000.0001) //        WEST: Tile = 000003, Process = 000001, Comm = put
(PID.TID 0000.0001) //                bi = 000001, bj = 000002
(PID.TID 0000.0001) //        EAST: Tile = 000003, Process = 000001, Comm = put
(PID.TID 0000.0001) //                bi = 000001, bj = 000002
(PID.TID 0000.0001) //       SOUTH: Tile = 000002, Process = 000001, Comm = put
(PID.TID 0000.0001) //                bi = 000002, bj = 000001
(PID.TID 0000.0001) //       NORTH: Tile = 000002, Process = 000001, Comm = put
(PID.TID 0000.0001) //                bi = 000002, bj = 000001
(PID.TID 0000.0001) 
(PID.TID 0000.0001) DEBUG_MSG: ENTERED S/R THE_MODEL_MAIN
(PID.TID 0000.0001) DEBUG_MSG: CALLING S/R INITIALISE_FIXED
(PID.TID 0000.0001)  INI_PARMS: opening model parameter file "data"
(PID.TID 0000.0001)  OPEN_COPY_DATA_FILE: opening file data
(PID.TID 0000.0001) // =======================================================
(PID.TID 0000.0001) // Parameter file "data"
(PID.TID 0000.0001) // =======================================================
(PID.TID 0000.0001) ># ====================
(PID.TID 0000.0001) ># | Model parameters |
(PID.TID 0000.0001) ># ====================
(PID.TID 0000.0001) >#
(PID.TID 0000.0001) ># Continuous equation parameters
(PID.TID 0000.0001) > &PARM01
(PID.TID 0000.0001) > tRef= 0.696834, 0.497738, 0.298643, 0.0995477, -0.0995477, -0.298643, -0.497738, -0.696834,
(PID.TID 0000.0001) > sRef= 8*35.,
(PID.TID 0000.0001) > viscAr=1.E-3,
(PID.TID 0000.0001) > viscAh=1.E3,
(PID.TID 0000.0001) >#- put small value (<< stab.limit ~ 3.e10) only to test biharmonic-viscosity
(PID.TID 0000.0001) > viscA4=1.E8,
(PID.TID 0000.0001) > no_slip_sides=.FALSE.,
(PID.TID 0000.0001) > no_slip_bottom=.FALSE.,
(PID.TID 0000.0001) > diffKhT=1.E3,
(PID.TID 0000.0001) > diffKrT=1.E-5,
(PID.TID 0000.0001) > diffKhS=1.E3,
(PID.TID 0000.0001) > diffKrS=1.E-5,
(PID.TID 0000.0001) > saltAdvScheme=4,
(PID.TID 0000.0001) > eosType='LINEAR',
(PID.TID 0000.0001) > tAlpha=2.E-4,
(PID.TID 0000.0001) > sBeta =0.E-4,
(PID.TID 0000.0001) > gravity=9.81,
(PID.TID 0000.0001) > f0=1.e-4,
(PID.TID 0000.0001) > beta=0.E-11,
(PID.TID 0000.0001) > nonHydrostatic=.TRUE.,
(PID.TID 0000.0001) > rigidLid=.FALSE.,
(PID.TID 0000.0001) > implicitFreeSurface=.TRUE.,
(PID.TID 0000.0001) > exactConserv=.TRUE.,
(PID.TID 0000.0001) > hFacMin=0.2,
(PID.TID 0000.0001) > readBinaryPrec=64,
(PID.TID 0000.0001) >#- not safe to use globalFiles in multi-processors runs
(PID.TID 0000.0001) >#globalFiles=.TRUE.,
(PID.TID 0000.0001) >#useSingleCpuIO=.TRUE.,
(PID.TID 0000.0001) > /
(PID.TID 0000.0001) >
(PID.TID 0000.0001) ># Elliptic solver parameters
(PID.TID 0000.0001) > &PARM02
(PID.TID 0000.0001) > cg2dMaxIters=1000,
(PID.TID 0000.0001) > cg2dTargetResidual=1.E-13,
(PID.TID 0000.0001) > cg3dMaxIters=400,
(PID.TID 0000.0001) > cg3dTargetResidual=1.E-13,
(PID.TID 0000.0001) > /
(PID.TID 0000.0001) >
(PID.TID 0000.0001) ># Time stepping parameters
(PID.TID 0000.0001) > &PARM03
(PID.TID 0000.0001) > nIter0=0,
(PID.TID 0000.0001) > nTimeSteps=10,
(PID.TID 0000.0001) > baseTime=10800.,
(PID.TID 0000.0001) > deltaT=600.0,
(PID.TID 0000.0001) > abEps=0.1,
(PID.TID 0000.0001) > momDissip_In_AB=.FALSE.,
(PID.TID 0000.0001) > pChkptFreq=0.0,
(PID.TID 0000.0001) > chkptFreq=0.0,
(PID.TID 0000.0001) > dumpFreq=10800.0,
(PID.TID 0000.0001) > monitorSelect=2,
(PID.TID 0000.0001) > monitorFreq=1.,
(PID.TID 0000.0001) ># for time dependent open boundary conditions, activate the following 3 lines:
(PID.TID 0000.0001) > periodicExternalForcing=.TRUE.,
(PID.TID 0000.0001) > externForcingPeriod=21600.,
(PID.TID 0000.0001) > externForcingCycle =43200.,
(PID.TID 0000.0001) > /
(PID.TID 0000.0001) >
(PID.TID 0000.0001) ># Gridding parameters
(PID.TID 0000.0001) > &PARM04
(PID.TID 0000.0001) > usingCartesianGrid=.TRUE.,
(PID.TID 0000.0001) > delX=80*5.e3,
(PID.TID 0000.0001) > delY=42*5.e3,
(PID.TID 0000.0001) > delR= 8*562.5,
(PID.TID 0000.0001) > /
(PID.TID 0000.0001) >
(PID.TID 0000.0001) ># Input datasets
(PID.TID 0000.0001) > &PARM05
(PID.TID 0000.0001) > bathyFile='topog.bump',
(PID.TID 0000.0001) > /
(PID.TID 0000.0001) 
(PID.TID 0000.0001)  INI_PARMS ; starts to read PARM01
(PID.TID 0000.0001)  INI_PARMS ; read PARM01 : OK
(PID.TID 0000.0001)  INI_PARMS ; starts to read PARM02
(PID.TID 0000.0001)  INI_PARMS ; read PARM02 : OK
(PID.TID 0000.0001)  INI_PARMS ; starts to read PARM03
(PID.TID 0000.0001)  INI_PARMS ; read PARM03 : OK
(PID.TID 0000.0001)  INI_PARMS ; starts to read PARM04
(PID.TID 0000.0001)  INI_PARMS ; read PARM04 : OK
(PID.TID 0000.0001)  INI_PARMS ; starts to read PARM05
(PID.TID 0000.0001)  INI_PARMS ; read PARM05 : OK
(PID.TID 0000.0001)  INI_PARMS: finished reading file "data"
(PID.TID 0000.0001)  PACKAGES_BOOT: opening data.pkg
(PID.TID 0000.0001)  OPEN_COPY_DATA_FILE: opening file data.pkg
(PID.TID 0000.0001) // =======================================================
(PID.TID 0000.0001) // Parameter file "data.pkg"
(PID.TID 0000.0001) // =======================================================
(PID.TID 0000.0001) ># Packages
(PID.TID 0000.0001) > &PACKAGES
(PID.TID 0000.0001) > useOBCS=.TRUE.,
(PID.TID 0000.0001) > usePtracers=.TRUE.,
(PID.TID 0000.0001) > useRBCS=.TRUE.,
(PID.TID 0000.0001) >#useLayers=.TRUE.,
(PID.TID 0000.0001) > /
(PID.TID 0000.0001) 
(PID.TID 0000.0001)  PACKAGES_BOOT: finished reading data.pkg
(PID.TID 0000.0001)  OBCS_READPARMS: opening data.obcs
(PID.TID 0000.0001)  OPEN_COPY_DATA_FILE: opening file data.obcs
(PID.TID 0000.0001) // =======================================================
(PID.TID 0000.0001) // Parameter file "data.obcs"
(PID.TID 0000.0001) // =======================================================
(PID.TID 0000.0001) ># Open-boundaries
(PID.TID 0000.0001) > &OBCS_PARM01
(PID.TID 0000.0001) ># This flag turns off checking and fixing problematic topography across
(PID.TID 0000.0001) ># open boundaries.
(PID.TID 0000.0001) > OBCSfixTopo=.FALSE.,
(PID.TID 0000.0001) > OB_Jnorth= 80*-1,
(PID.TID 0000.0001) > OB_Jsouth= 80*1,
(PID.TID 0000.0001) > OB_Ieast = 42*-1,
(PID.TID 0000.0001) > OB_Iwest = 42*1,
(PID.TID 0000.0001) > useOBCSprescribe = .TRUE.,
(PID.TID 0000.0001) > OBNuFile = 'OBmeridU.bin',
(PID.TID 0000.0001) > OBSuFile = 'OBmeridU.bin',
(PID.TID 0000.0001) >#OBWuFile = 'OBzonalU.bin',
(PID.TID 0000.0001) >#OBEuFile = 'OBzonalU.bin',
(PID.TID 0000.0001) > OBWuFile = 'OB_WestU.bin',
(PID.TID 0000.0001) > OBEuFile = 'OB_EastU.bin',
(PID.TID 0000.0001) > OBWwFile = 'OBzonalW.bin',
(PID.TID 0000.0001) > OBWsFile = 'OBzonalS.bin',
(PID.TID 0000.0001) > OBWptrFile(1) = 'OBzonalS.bin',
(PID.TID 0000.0001) > OBCS_monitorFreq= 1200.,
(PID.TID 0000.0001) > OBCS_monSelect = 1,
(PID.TID 0000.0001) > /
(PID.TID 0000.0001) >
(PID.TID 0000.0001) ># Orlanski parameters
(PID.TID 0000.0001) > &OBCS_PARM02
(PID.TID 0000.0001) >#Cmax=0.45,
(PID.TID 0000.0001) >#cVelTimeScale=1000.,
(PID.TID 0000.0001) > /
(PID.TID 0000.0001) 
(PID.TID 0000.0001)  OBCS_READPARMS: finished reading data.obcs
(PID.TID 0000.0001)  Northern OB global indices : OB_Jnorth =
(PID.TID 0000.0001)    80 @       42                            /* I =  1: 80 */
(PID.TID 0000.0001)  Southern OB global indices : OB_Jsouth =
(PID.TID 0000.0001)    80 @        1                            /* I =  1: 80 */
(PID.TID 0000.0001)  Eastern  OB global indices : OB_Ieast =
(PID.TID 0000.0001)    42 @       80                            /* J =  1: 42 */
(PID.TID 0000.0001)  Western  OB global indices : OB_Iwest =
(PID.TID 0000.0001)    42 @        1                            /* J =  1: 42 */
(PID.TID 0000.0001) 
(PID.TID 0000.0001)  PTRACERS_READPARMS: opening data.ptracers
(PID.TID 0000.0001)  OPEN_COPY_DATA_FILE: opening file data.ptracers
(PID.TID 0000.0001) // =======================================================
(PID.TID 0000.0001) // Parameter file "data.ptracers"
(PID.TID 0000.0001) // =======================================================
(PID.TID 0000.0001) ># This set-up is supposed to mimic salinity. That is, initially
(PID.TID 0000.0001) ># PTRACER(:,:,:,1) is identical to salinity, except that
(PID.TID 0000.0001) ># 1) the default (i.e., not explicitly specified) open boundary conditions
(PID.TID 0000.0001) ># are different, so that PTRACER(:,:,:,1) evolves differently than salinity.
(PID.TID 0000.0001) ># 2) a weak relaxation is applied in the Eastern part of the channel (using rbcs).
(PID.TID 0000.0001) > &PTRACERS_PARM01
(PID.TID 0000.0001) > PTRACERS_numInUse=1,
(PID.TID 0000.0001) >#- use F95 syntax (to be converted with -DNML_EXTENDED_F77 if needed)
(PID.TID 0000.0001) > PTRACERS_ref(1:8,1) = 8*35.,
(PID.TID 0000.0001) > PTRACERS_names(1)='salt_mimic',
(PID.TID 0000.0001) > PTRACERS_advScheme(1)=4,
(PID.TID 0000.0001) > /
(PID.TID 0000.0001) 
(PID.TID 0000.0001)  PTRACERS_READPARMS: finished reading data.ptracers
(PID.TID 0000.0001) // ===================================
(PID.TID 0000.0001) // PTRACERS parameters
(PID.TID 0000.0001) // ===================================
(PID.TID 0000.0001) PTRACERS_numInUse = /* number of tracers */
(PID.TID 0000.0001)                       1
(PID.TID 0000.0001)     ;
(PID.TID 0000.0001) PTRACERS_Iter0 = /* timestep number when tracers are initialized */
(PID.TID 0000.0001)                       0
(PID.TID 0000.0001)     ;
(PID.TID 0000.0001) PTRACERS_addSrelax2EmP =/* add Salt relaxation to EmP */
(PID.TID 0000.0001)                   F
(PID.TID 0000.0001)     ;
(PID.TID 0000.0001) PTRACERS_dTLev =   /* Ptracer timestep ( s ) */
(PID.TID 0000.0001)     8 @  6.000000000000000E+02              /* K =  1:  8 */
(PID.TID 0000.0001)     ;
(PID.TID 0000.0001) PTRACERS_dumpFreq = /* Frequency^-1 for snapshot output (s) */
(PID.TID 0000.0001)                 1.080000000000000E+04
(PID.TID 0000.0001)     ;
(PID.TID 0000.0001) PTRACERS_taveFreq = /* Frequency^-1 for time-Aver. output (s) */
(PID.TID 0000.0001)                 0.000000000000000E+00
(PID.TID 0000.0001)     ;
(PID.TID 0000.0001) PTRACERS_useRecords = /* all tracers in 1 file */
(PID.TID 0000.0001)                   F
(PID.TID 0000.0001)     ;
(PID.TID 0000.0001) PTRACERS_timeave_mnc = /* use MNC for Tave output */
(PID.TID 0000.0001)                   F
(PID.TID 0000.0001)     ;
(PID.TID 0000.0001) PTRACERS_snapshot_mnc = /* use MNC for snapshot output */
(PID.TID 0000.0001)                   F
(PID.TID 0000.0001)     ;
(PID.TID 0000.0001) PTRACERS_pickup_write_mnc = /* use MNC for writing pickups */
(PID.TID 0000.0001)                   F
(PID.TID 0000.0001)     ;
(PID.TID 0000.0001) PTRACERS_pickup_read_mnc = /* use MNC for reading pickups */
(PID.TID 0000.0001)                   F
(PID.TID 0000.0001)     ;
(PID.TID 0000.0001)  -----------------------------------
(PID.TID 0000.0001)  tracer number :    1
(PID.TID 0000.0001) PTRACERS_names = /* Tracer short name */
(PID.TID 0000.0001)               'salt_mimic'
(PID.TID 0000.0001)     ;
(PID.TID 0000.0001) PTRACERS_long_names = /* Tracer long name */
(PID.TID 0000.0001)               ''
(PID.TID 0000.0001)     ;
(PID.TID 0000.0001) PTRACERS_ioLabel = /* tracer IO Label */
(PID.TID 0000.0001)               '01'
(PID.TID 0000.0001)     ;
(PID.TID 0000.0001) PTRACERS_advScheme = /* Advection Scheme */
(PID.TID 0000.0001)                       4
(PID.TID 0000.0001)     ;
(PID.TID 0000.0001) PTRACERS_ImplVertAdv = /* implicit vert. advection flag */
(PID.TID 0000.0001)                   F
(PID.TID 0000.0001)     ;
(PID.TID 0000.0001) PTRACERS_diffKh = /* Laplacian Diffusivity */
(PID.TID 0000.0001)                 1.000000000000000E+03
(PID.TID 0000.0001)     ;
(PID.TID 0000.0001) PTRACERS_diffK4 = /* Biharmonic Diffusivity */
(PID.TID 0000.0001)                 0.000000000000000E+00
(PID.TID 0000.0001)     ;
(PID.TID 0000.0001) PTRACERS_diffKrNr = /* Vertical Diffusivity */
(PID.TID 0000.0001)     8 @  1.000000000000000E-05              /* K =  1:  8 */
(PID.TID 0000.0001)     ;
(PID.TID 0000.0001) PTRACERS_useGMRedi = /* apply GM-Redi */
(PID.TID 0000.0001)                   F
(PID.TID 0000.0001)     ;
(PID.TID 0000.0001) PTRACERS_useDWNSLP = /* apply DOWN-SLOPE Flow */
(PID.TID 0000.0001)                   F
(PID.TID 0000.0001)     ;
(PID.TID 0000.0001) PTRACERS_useKPP = /* apply KPP scheme */
(PID.TID 0000.0001)                   F
(PID.TID 0000.0001)     ;
(PID.TID 0000.0001) PTRACERS_ref = /* Reference vertical profile */
(PID.TID 0000.0001)     8 @  3.500000000000000E+01              /* K =  1:  8 */
(PID.TID 0000.0001)     ;
(PID.TID 0000.0001) PTRACERS_EvPrRn =/* tracer conc. in Evap. & Rain */
(PID.TID 0000.0001)                 1.234567000000000E+05
(PID.TID 0000.0001)     ;
(PID.TID 0000.0001)  -----------------------------------
(PID.TID 0000.0001)  RBCS_READPARMS: opening data.rbcs
(PID.TID 0000.0001)  OPEN_COPY_DATA_FILE: opening file data.rbcs
(PID.TID 0000.0001) // =======================================================
(PID.TID 0000.0001) // Parameter file "data.rbcs"
(PID.TID 0000.0001) // =======================================================
(PID.TID 0000.0001) ># RBCS package parameters:
(PID.TID 0000.0001) > &RBCS_PARM01
(PID.TID 0000.0001) >#   tauRelaxT=864000.,
(PID.TID 0000.0001) >    tauRelaxS=864000.,
(PID.TID 0000.0001) >#   relaxMaskFile='rbcs_mask_T.bin','rbcs_mask_S.bin',
(PID.TID 0000.0001) >    relaxMaskFile(3)='rbcs_mask.bin',
(PID.TID 0000.0001) >#   relaxTFile='sponge_temp.bin',
(PID.TID 0000.0001) >#   relaxSFile='rbcs_Tr1_fld.bin',
(PID.TID 0000.0001) >#   useRBCtemp=.TRUE.,
(PID.TID 0000.0001) >#   useRBCsalt=.TRUE.,
(PID.TID 0000.0001) >#   rbcsIniter=100,
(PID.TID 0000.0001) >#   rbcsForcingPeriod=2592000.,
(PID.TID 0000.0001) >#   rbcsForcingCycle=31104000.,
(PID.TID 0000.0001) > /
(PID.TID 0000.0001) >
(PID.TID 0000.0001) ># RBCS for pTracers (read this namelist only when ptracers pkg is compiled)
(PID.TID 0000.0001) > &RBCS_PARM02
(PID.TID 0000.0001) >  useRBCptrnum(1)    = .TRUE.,
(PID.TID 0000.0001) >  tauRelaxPTR(1)     = 21600.,
(PID.TID 0000.0001) >  relaxPtracerFile(1)='rbcs_Tr1_fld.bin',
(PID.TID 0000.0001) > /
(PID.TID 0000.0001) 
(PID.TID 0000.0001)  RBCS_READPARMS: finished reading data.rbcs
(PID.TID 0000.0001) SET_PARMS: done
(PID.TID 0000.0001) Enter INI_VERTICAL_GRID: setInterFDr=    T ; setCenterDr=    F
(PID.TID 0000.0001) %MON XC_max                       =   3.9750000000000E+05
(PID.TID 0000.0001) %MON XC_min                       =   2.5000000000000E+03
(PID.TID 0000.0001) %MON XC_mean                      =   2.0000000000000E+05
(PID.TID 0000.0001) %MON XC_sd                        =   1.1546103238755E+05
(PID.TID 0000.0001) %MON XG_max                       =   3.9500000000000E+05
(PID.TID 0000.0001) %MON XG_min                       =   0.0000000000000E+00
(PID.TID 0000.0001) %MON XG_mean                      =   1.9750000000000E+05
(PID.TID 0000.0001) %MON XG_sd                        =   1.1546103238755E+05
(PID.TID 0000.0001) %MON DXC_max                      =   5.0000000000000E+03
(PID.TID 0000.0001) %MON DXC_min                      =   5.0000000000000E+03
(PID.TID 0000.0001) %MON DXC_mean                     =   5.0000000000000E+03
(PID.TID 0000.0001) %MON DXC_sd                       =   0.0000000000000E+00
(PID.TID 0000.0001) %MON DXF_max                      =   5.0000000000000E+03
(PID.TID 0000.0001) %MON DXF_min                      =   5.0000000000000E+03
(PID.TID 0000.0001) %MON DXF_mean                     =   5.0000000000000E+03
(PID.TID 0000.0001) %MON DXF_sd                       =   0.0000000000000E+00
(PID.TID 0000.0001) %MON DXG_max                      =   5.0000000000000E+03
(PID.TID 0000.0001) %MON DXG_min                      =   5.0000000000000E+03
(PID.TID 0000.0001) %MON DXG_mean                     =   5.0000000000000E+03
(PID.TID 0000.0001) %MON DXG_sd                       =   0.0000000000000E+00
(PID.TID 0000.0001) %MON DXV_max                      =   5.0000000000000E+03
(PID.TID 0000.0001) %MON DXV_min                      =   5.0000000000000E+03
(PID.TID 0000.0001) %MON DXV_mean                     =   5.0000000000000E+03
(PID.TID 0000.0001) %MON DXV_sd                       =   0.0000000000000E+00
(PID.TID 0000.0001) %MON YC_max                       =   2.0750000000000E+05
(PID.TID 0000.0001) %MON YC_min                       =   2.5000000000000E+03
(PID.TID 0000.0001) %MON YC_mean                      =   1.0500000000000E+05
(PID.TID 0000.0001) %MON YC_sd                        =   6.0604592785256E+04
(PID.TID 0000.0001) %MON YG_max                       =   2.0500000000000E+05
(PID.TID 0000.0001) %MON YG_min                       =   0.0000000000000E+00
(PID.TID 0000.0001) %MON YG_mean                      =   1.0250000000000E+05
(PID.TID 0000.0001) %MON YG_sd                        =   6.0604592785256E+04
(PID.TID 0000.0001) %MON DYC_max                      =   5.0000000000000E+03
(PID.TID 0000.0001) %MON DYC_min                      =   5.0000000000000E+03
(PID.TID 0000.0001) %MON DYC_mean                     =   5.0000000000000E+03
(PID.TID 0000.0001) %MON DYC_sd                       =   0.0000000000000E+00
(PID.TID 0000.0001) %MON DYF_max                      =   5.0000000000000E+03
(PID.TID 0000.0001) %MON DYF_min                      =   5.0000000000000E+03
(PID.TID 0000.0001) %MON DYF_mean                     =   5.0000000000000E+03
(PID.TID 0000.0001) %MON DYF_sd                       =   0.0000000000000E+00
(PID.TID 0000.0001) %MON DYG_max                      =   5.0000000000000E+03
(PID.TID 0000.0001) %MON DYG_min                      =   5.0000000000000E+03
(PID.TID 0000.0001) %MON DYG_mean                     =   5.0000000000000E+03
(PID.TID 0000.0001) %MON DYG_sd                       =   0.0000000000000E+00
(PID.TID 0000.0001) %MON DYU_max                      =   5.0000000000000E+03
(PID.TID 0000.0001) %MON DYU_min                      =   5.0000000000000E+03
(PID.TID 0000.0001) %MON DYU_mean                     =   5.0000000000000E+03
(PID.TID 0000.0001) %MON DYU_sd                       =   0.0000000000000E+00
(PID.TID 0000.0001) %MON RA_max                       =   2.5000000000000E+07
(PID.TID 0000.0001) %MON RA_min                       =   2.5000000000000E+07
(PID.TID 0000.0001) %MON RA_mean                      =   2.5000000000000E+07
(PID.TID 0000.0001) %MON RA_sd                        =   3.7252902984619E-09
(PID.TID 0000.0001) %MON RAW_max                      =   2.5000000000000E+07
(PID.TID 0000.0001) %MON RAW_min                      =   2.5000000000000E+07
(PID.TID 0000.0001) %MON RAW_mean                     =   2.5000000000000E+07
(PID.TID 0000.0001) %MON RAW_sd                       =   3.7252902984619E-09
(PID.TID 0000.0001) %MON RAS_max                      =   2.5000000000000E+07
(PID.TID 0000.0001) %MON RAS_min                      =   2.5000000000000E+07
(PID.TID 0000.0001) %MON RAS_mean                     =   2.5000000000000E+07
(PID.TID 0000.0001) %MON RAS_sd                       =   3.7252902984619E-09
(PID.TID 0000.0001) %MON RAZ_max                      =   2.5000000000000E+07
(PID.TID 0000.0001) %MON RAZ_min                      =   2.5000000000000E+07
(PID.TID 0000.0001) %MON RAZ_mean                     =   2.5000000000000E+07
(PID.TID 0000.0001) %MON RAZ_sd                       =   3.7252902984619E-09
(PID.TID 0000.0001) %MON AngleCS_max                  =   1.0000000000000E+00
(PID.TID 0000.0001) %MON AngleCS_min                  =   1.0000000000000E+00
(PID.TID 0000.0001) %MON AngleCS_mean                 =   1.0000000000000E+00
(PID.TID 0000.0001) %MON AngleCS_sd                   =   0.0000000000000E+00
(PID.TID 0000.0001) %MON AngleSN_max                  =   0.0000000000000E+00
(PID.TID 0000.0001) %MON AngleSN_min                  =   0.0000000000000E+00
(PID.TID 0000.0001) %MON AngleSN_mean                 =   0.0000000000000E+00
(PID.TID 0000.0001) %MON AngleSN_sd                   =   0.0000000000000E+00
(PID.TID 0000.0001)  MDS_READ_FIELD: opening global file: topog.bump
(PID.TID 0000.0001) // =======================================================
(PID.TID 0000.0001) // Field Model R_low (ini_masks_etc) at iteration          1
(PID.TID 0000.0001) // CMIN =         -4.500000000000000E+03
(PID.TID 0000.0001) // CMAX =         -4.902981733158691E+02
(PID.TID 0000.0001) // CINT =          1.485074750623752E+02
(PID.TID 0000.0001) // SYMBOLS (CMIN->CMAX): -abcdefghijklmnopqrstuvwxyz+
(PID.TID 0000.0001) //                  0.0: .
(PID.TID 0000.0001) // RANGE I (Lo:Hi:Step):(    -2:    83:     1)
(PID.TID 0000.0001) // RANGE J (Lo:Hi:Step):(    45:    -2:    -1)
(PID.TID 0000.0001) // RANGE K (Lo:Hi:Step):(   1:   1:   1)
(PID.TID 0000.0001) // =======================================================
(PID.TID 0000.0001) K =   1
(PID.TID 0000.0001) //                I=7       I=17      I=27      I=37      I=41      I=51      I=61      I=71      I=81
(PID.TID 0000.0001) // |--J--|210123456|890123456|890123456|890123456|890123890|234567890|234567890|234567890|234567890|23
(PID.TID 0000.0001) //     45 --------------------------------------------------------------------------------------------
(PID.TID 0000.0001) //     44 --------------------------------------------------------------------------------------------
(PID.TID 0000.0001) //     43 --------------------------------------------------------------------------------------------
(PID.TID 0000.0001) //     42 --------------------------------------------------------------------------------------------
(PID.TID 0000.0001) //     41 --------------------------------------------------------------------------------------------
(PID.TID 0000.0001) //     40 --------------------------------------------------------------------------------------------
(PID.TID 0000.0001) //     39 --------------------------------------------------------------------------------------------
(PID.TID 0000.0001) //     38 --------------------------------------------------------------------------------------------
(PID.TID 0000.0001) //     37 --------------------------------------------------------------------------------------------
(PID.TID 0000.0001) //     36 --------------------------------------------------------------------------------------------
(PID.TID 0000.0001) //     35 ---------------------------------------aaaaaaaaaaaaaa---------------------------------------
(PID.TID 0000.0001) //     34 ------------------------------------aaaaaaaaaaaaaaaaaaaa------------------------------------
(PID.TID 0000.0001) //     33 -----------------------------------aaaabbbbbbbbbbbbbbaaaa-----------------------------------
(PID.TID 0000.0001) //     32 ----------------------------------aaabbbccccccccccccbbbaaa----------------------------------
(PID.TID 0000.0001) //     31 ---------------------------------aaabbcddddddddddddddcbbaaa---------------------------------
(PID.TID 0000.0001) //     30 --------------------------------aabbcddeffffffffffffeddcbbaa--------------------------------
(PID.TID 0000.0001) //     29 -------------------------------aaabcdefghhiihhhhiihhgfedcbaaa-------------------------------
(PID.TID 0000.0001) //     28 ------------------------------aaabcdefhijkllkjjkllkjihfedcbaaa------------------------------
(PID.TID 0000.0001) //     27 ------------------------------aabbdefhjlmnoonmmnoonmljhfedbbaa------------------------------
(PID.TID 0000.0001) //     26 ------------------------------aabcdfhjlnpqrrqppqrrqpnljhfdcbaa------------------------------
(PID.TID 0000.0001) //     25 -----------------------------aabbdegilnqstuutsstuutsqnligedbbaa-----------------------------
(PID.TID 0000.0001) //     24 -----------------------------aabcdfhjmpsuwxxwuuwxxwuspmjhfdcbaa-----------------------------
(PID.TID 0000.0001) //     23 -----------------------------aabcdfhknqtwyzzywwyzzywtqnkhfdcbaa-----------------------------
(PID.TID 0000.0001) //     22 -----------------------------aabcdfiloruxz++zxxz++zxurolifdcbaa-----------------------------
(PID.TID 0000.0001) //     21 -----------------------------aabcdfiloruxz++zxxz++zxurolifdcbaa-----------------------------
(PID.TID 0000.0001) //     20 -----------------------------aabcdfhknqtwyzzywwyzzywtqnkhfdcbaa-----------------------------
(PID.TID 0000.0001) //     19 -----------------------------aabcdfhjmpsuwxxwuuwxxwuspmjhfdcbaa-----------------------------
(PID.TID 0000.0001) //     24 -----------------------------aabcdfhjmpsuwxxwuuwxxwuspmjhfdcbaa-----------------------------
(PID.TID 0000.0001) //     23 -----------------------------aabcdfhknqtwyzzywwyzzywtqnkhfdcbaa-----------------------------
(PID.TID 0000.0001) //     22 -----------------------------aabcdfiloruxz++zxxz++zxurolifdcbaa-----------------------------
(PID.TID 0000.0001) //     21 -----------------------------aabcdfiloruxz++zxxz++zxurolifdcbaa-----------------------------
(PID.TID 0000.0001) //     20 -----------------------------aabcdfhknqtwyzzywwyzzywtqnkhfdcbaa-----------------------------
(PID.TID 0000.0001) //     19 -----------------------------aabcdfhjmpsuwxxwuuwxxwuspmjhfdcbaa-----------------------------
(PID.TID 0000.0001) //     18 -----------------------------aabbdegilnqstuutsstuutsqnligedbbaa-----------------------------
(PID.TID 0000.0001) //     17 ------------------------------aabcdfhjlnpqrrqppqrrqpnljhfdcbaa------------------------------
(PID.TID 0000.0001) //     16 ------------------------------aabbdefhjlmnoonmmnoonmljhfedbbaa------------------------------
(PID.TID 0000.0001) //     15 ------------------------------aaabcdefhijkllkjjkllkjihfedcbaaa------------------------------
(PID.TID 0000.0001) //     14 -------------------------------aaabcdefghhiihhhhiihhgfedcbaaa-------------------------------
(PID.TID 0000.0001) //     13 --------------------------------aabbcddeffffffffffffeddcbbaa--------------------------------
(PID.TID 0000.0001) //     12 ---------------------------------aaabbcddddddddddddddcbbaaa---------------------------------
(PID.TID 0000.0001) //     11 ----------------------------------aaabbbccccccccccccbbbaaa----------------------------------
(PID.TID 0000.0001) //     10 -----------------------------------aaaabbbbbbbbbbbbbbaaaa-----------------------------------
(PID.TID 0000.0001) //      9 ------------------------------------aaaaaaaaaaaaaaaaaaaa------------------------------------
(PID.TID 0000.0001) //      8 ---------------------------------------aaaaaaaaaaaaaa---------------------------------------
(PID.TID 0000.0001) //      7 --------------------------------------------------------------------------------------------
(PID.TID 0000.0001) //      6 --------------------------------------------------------------------------------------------
(PID.TID 0000.0001) //      5 --------------------------------------------------------------------------------------------
(PID.TID 0000.0001) //      4 --------------------------------------------------------------------------------------------
(PID.TID 0000.0001) //      3 --------------------------------------------------------------------------------------------
(PID.TID 0000.0001) //      2 --------------------------------------------------------------------------------------------
(PID.TID 0000.0001) //      1 --------------------------------------------------------------------------------------------
(PID.TID 0000.0001) //      0 --------------------------------------------------------------------------------------------
(PID.TID 0000.0001) //     -1 --------------------------------------------------------------------------------------------
(PID.TID 0000.0001) //     -2 --------------------------------------------------------------------------------------------
(PID.TID 0000.0001) // =======================================================
(PID.TID 0000.0001) // END OF FIELD                                          =
(PID.TID 0000.0001) // =======================================================
(PID.TID 0000.0001) 
(PID.TID 0000.0001) // =======================================================
(PID.TID 0000.0001) // Field Model Ro_surf (ini_masks_etc) at iteration          1
(PID.TID 0000.0001) // CMIN =          1.000000000000000E+32
(PID.TID 0000.0001) // CMAX =         -1.000000000000000E+32
(PID.TID 0000.0001) // CINT =          0.000000000000000E+00
(PID.TID 0000.0001) // SYMBOLS (CMIN->CMAX): -abcdefghijklmnopqrstuvwxyz+
(PID.TID 0000.0001) //                  0.0: .
(PID.TID 0000.0001) // RANGE I (Lo:Hi:Step):(    -2:    83:     1)
(PID.TID 0000.0001) // RANGE J (Lo:Hi:Step):(    45:    -2:    -1)
(PID.TID 0000.0001) // RANGE K (Lo:Hi:Step):(   1:   1:   1)
(PID.TID 0000.0001) // =======================================================
(PID.TID 0000.0001) // =======================================================
(PID.TID 0000.0001) // END OF FIELD                                          =
(PID.TID 0000.0001) // =======================================================
(PID.TID 0000.0001) 
(PID.TID 0000.0001) // =======================================================
(PID.TID 0000.0001) // Field hFacC at iteration          1
(PID.TID 0000.0001) // CMIN =          8.716411970059894E-01
(PID.TID 0000.0001) // CMAX =          1.000000000000000E+00
(PID.TID 0000.0001) // CINT =          4.754029740518911E-03
(PID.TID 0000.0001) // SYMBOLS (CMIN->CMAX): -abcdefghijklmnopqrstuvwxyz+
(PID.TID 0000.0001) //                  0.0: .
(PID.TID 0000.0001) // RANGE I (Lo:Hi:Step):(    -2:    83:     1)
(PID.TID 0000.0001) // RANGE J (Lo:Hi:Step):(    45:    -2:    -1)
(PID.TID 0000.0001) // RANGE K (Lo:Hi:Step):(   1:   1:   1)
(PID.TID 0000.0001) // =======================================================
(PID.TID 0000.0001) K =   1
(PID.TID 0000.0001) //                I=7       I=17      I=27      I=37      I=41      I=51      I=61      I=71      I=81
(PID.TID 0000.0001) // |--J--|210123456|890123456|890123456|890123456|890123890|234567890|234567890|234567890|234567890|23
(PID.TID 0000.0001) //     45 ++++++++++++++++++++++++++++++++++++++++++++++++++++++++++++++++++++++++++++++++++++++++++++
(PID.TID 0000.0001) //     44 ++++++++++++++++++++++++++++++++++++++++++++++++++++++++++++++++++++++++++++++++++++++++++++
(PID.TID 0000.0001) //     43 ++++++++++++++++++++++++++++++++++++++++++++++++++++++++++++++++++++++++++++++++++++++++++++
(PID.TID 0000.0001) //     42 ++++++++++++++++++++++++++++++++++++++++++++++++++++++++++++++++++++++++++++++++++++++++++++
(PID.TID 0000.0001) //     41 ++++++++++++++++++++++++++++++++++++++++++++++++++++++++++++++++++++++++++++++++++++++++++++
(PID.TID 0000.0001) //     40 ++++++++++++++++++++++++++++++++++++++++++++++++++++++++++++++++++++++++++++++++++++++++++++
(PID.TID 0000.0001) //     39 ++++++++++++++++++++++++++++++++++++++++++++++++++++++++++++++++++++++++++++++++++++++++++++
(PID.TID 0000.0001) //     38 ++++++++++++++++++++++++++++++++++++++++++++++++++++++++++++++++++++++++++++++++++++++++++++
(PID.TID 0000.0001) //     37 ++++++++++++++++++++++++++++++++++++++++++++++++++++++++++++++++++++++++++++++++++++++++++++
(PID.TID 0000.0001) //     36 ++++++++++++++++++++++++++++++++++++++++++++++++++++++++++++++++++++++++++++++++++++++++++++
(PID.TID 0000.0001) //     35 ++++++++++++++++++++++++++++++++++++++++++++++++++++++++++++++++++++++++++++++++++++++++++++
(PID.TID 0000.0001) //     34 ++++++++++++++++++++++++++++++++++++++++++++++++++++++++++++++++++++++++++++++++++++++++++++
(PID.TID 0000.0001) //     33 ++++++++++++++++++++++++++++++++++++++++++++++++++++++++++++++++++++++++++++++++++++++++++++
(PID.TID 0000.0001) //     32 ++++++++++++++++++++++++++++++++++++++++++++++++++++++++++++++++++++++++++++++++++++++++++++
(PID.TID 0000.0001) //     31 ++++++++++++++++++++++++++++++++++++++++++++++++++++++++++++++++++++++++++++++++++++++++++++
(PID.TID 0000.0001) //     30 ++++++++++++++++++++++++++++++++++++++++++++++++++++++++++++++++++++++++++++++++++++++++++++
(PID.TID 0000.0001) //     29 ++++++++++++++++++++++++++++++++++++++++++++++++++++++++++++++++++++++++++++++++++++++++++++
(PID.TID 0000.0001) //     28 ++++++++++++++++++++++++++++++++++++++++++++++++++++++++++++++++++++++++++++++++++++++++++++
(PID.TID 0000.0001) //     27 ++++++++++++++++++++++++++++++++++++++++++++++++++++++++++++++++++++++++++++++++++++++++++++
(PID.TID 0000.0001) //     26 ++++++++++++++++++++++++++++++++++++++++++++++++++++++++++++++++++++++++++++++++++++++++++++
(PID.TID 0000.0001) //     25 ++++++++++++++++++++++++++++++++++++++++++++++++++++++++++++++++++++++++++++++++++++++++++++
(PID.TID 0000.0001) //     24 ++++++++++++++++++++++++++++++++++++++++++++++++++++++++++++++++++++++++++++++++++++++++++++
(PID.TID 0000.0001) //     23 ++++++++++++++++++++++++++++++++++++++++++++++++++++++++++++++++++++++++++++++++++++++++++++
(PID.TID 0000.0001) //     22 ++++++++++++++++++++++++++++++++++++++++++--++++--++++++++++++++++++++++++++++++++++++++++++
(PID.TID 0000.0001) //     21 ++++++++++++++++++++++++++++++++++++++++++--++++--++++++++++++++++++++++++++++++++++++++++++
(PID.TID 0000.0001) //     20 ++++++++++++++++++++++++++++++++++++++++++++++++++++++++++++++++++++++++++++++++++++++++++++
(PID.TID 0000.0001) //     19 ++++++++++++++++++++++++++++++++++++++++++++++++++++++++++++++++++++++++++++++++++++++++++++
(PID.TID 0000.0001) //     24 ++++++++++++++++++++++++++++++++++++++++++++++++++++++++++++++++++++++++++++++++++++++++++++
(PID.TID 0000.0001) //     23 ++++++++++++++++++++++++++++++++++++++++++++++++++++++++++++++++++++++++++++++++++++++++++++
(PID.TID 0000.0001) //     22 ++++++++++++++++++++++++++++++++++++++++++--++++--++++++++++++++++++++++++++++++++++++++++++
(PID.TID 0000.0001) //     21 ++++++++++++++++++++++++++++++++++++++++++--++++--++++++++++++++++++++++++++++++++++++++++++
(PID.TID 0000.0001) //     20 ++++++++++++++++++++++++++++++++++++++++++++++++++++++++++++++++++++++++++++++++++++++++++++
(PID.TID 0000.0001) //     19 ++++++++++++++++++++++++++++++++++++++++++++++++++++++++++++++++++++++++++++++++++++++++++++
(PID.TID 0000.0001) //     18 ++++++++++++++++++++++++++++++++++++++++++++++++++++++++++++++++++++++++++++++++++++++++++++
(PID.TID 0000.0001) //     17 ++++++++++++++++++++++++++++++++++++++++++++++++++++++++++++++++++++++++++++++++++++++++++++
(PID.TID 0000.0001) //     16 ++++++++++++++++++++++++++++++++++++++++++++++++++++++++++++++++++++++++++++++++++++++++++++
(PID.TID 0000.0001) //     15 ++++++++++++++++++++++++++++++++++++++++++++++++++++++++++++++++++++++++++++++++++++++++++++
(PID.TID 0000.0001) //     14 ++++++++++++++++++++++++++++++++++++++++++++++++++++++++++++++++++++++++++++++++++++++++++++
(PID.TID 0000.0001) //     13 ++++++++++++++++++++++++++++++++++++++++++++++++++++++++++++++++++++++++++++++++++++++++++++
(PID.TID 0000.0001) //     12 ++++++++++++++++++++++++++++++++++++++++++++++++++++++++++++++++++++++++++++++++++++++++++++
(PID.TID 0000.0001) //     11 ++++++++++++++++++++++++++++++++++++++++++++++++++++++++++++++++++++++++++++++++++++++++++++
(PID.TID 0000.0001) //     10 ++++++++++++++++++++++++++++++++++++++++++++++++++++++++++++++++++++++++++++++++++++++++++++
(PID.TID 0000.0001) //      9 ++++++++++++++++++++++++++++++++++++++++++++++++++++++++++++++++++++++++++++++++++++++++++++
(PID.TID 0000.0001) //      8 ++++++++++++++++++++++++++++++++++++++++++++++++++++++++++++++++++++++++++++++++++++++++++++
(PID.TID 0000.0001) //      7 ++++++++++++++++++++++++++++++++++++++++++++++++++++++++++++++++++++++++++++++++++++++++++++
(PID.TID 0000.0001) //      6 ++++++++++++++++++++++++++++++++++++++++++++++++++++++++++++++++++++++++++++++++++++++++++++
(PID.TID 0000.0001) //      5 ++++++++++++++++++++++++++++++++++++++++++++++++++++++++++++++++++++++++++++++++++++++++++++
(PID.TID 0000.0001) //      4 ++++++++++++++++++++++++++++++++++++++++++++++++++++++++++++++++++++++++++++++++++++++++++++
(PID.TID 0000.0001) //      3 ++++++++++++++++++++++++++++++++++++++++++++++++++++++++++++++++++++++++++++++++++++++++++++
(PID.TID 0000.0001) //      2 ++++++++++++++++++++++++++++++++++++++++++++++++++++++++++++++++++++++++++++++++++++++++++++
(PID.TID 0000.0001) //      1 ++++++++++++++++++++++++++++++++++++++++++++++++++++++++++++++++++++++++++++++++++++++++++++
(PID.TID 0000.0001) //      0 ++++++++++++++++++++++++++++++++++++++++++++++++++++++++++++++++++++++++++++++++++++++++++++
(PID.TID 0000.0001) //     -1 ++++++++++++++++++++++++++++++++++++++++++++++++++++++++++++++++++++++++++++++++++++++++++++
(PID.TID 0000.0001) //     -2 ++++++++++++++++++++++++++++++++++++++++++++++++++++++++++++++++++++++++++++++++++++++++++++
(PID.TID 0000.0001) // =======================================================
(PID.TID 0000.0001) // END OF FIELD                                          =
(PID.TID 0000.0001) // =======================================================
(PID.TID 0000.0001) 
(PID.TID 0000.0001) // =======================================================
(PID.TID 0000.0001) // Field hFacW at iteration          1
(PID.TID 0000.0001) // CMIN =          8.716411970059894E-01
(PID.TID 0000.0001) // CMAX =          1.000000000000000E+00
(PID.TID 0000.0001) // CINT =          4.754029740518911E-03
(PID.TID 0000.0001) // SYMBOLS (CMIN->CMAX): -abcdefghijklmnopqrstuvwxyz+
(PID.TID 0000.0001) //                  0.0: .
(PID.TID 0000.0001) // RANGE I (Lo:Hi:Step):(    -2:    83:     1)
(PID.TID 0000.0001) // RANGE J (Lo:Hi:Step):(    45:    -2:    -1)
(PID.TID 0000.0001) // RANGE K (Lo:Hi:Step):(   1:   1:   1)
(PID.TID 0000.0001) // =======================================================
(PID.TID 0000.0001) K =   1
(PID.TID 0000.0001) //                I=7       I=17      I=27      I=37      I=41      I=51      I=61      I=71      I=81
(PID.TID 0000.0001) // |--J--|210123456|890123456|890123456|890123456|890123890|234567890|234567890|234567890|234567890|23
(PID.TID 0000.0001) //     45 ++++++++++++++++++++++++++++++++++++++++++++++++++++++++++++++++++++++++++++++++++++++++++++
(PID.TID 0000.0001) //     44 ++++++++++++++++++++++++++++++++++++++++++++++++++++++++++++++++++++++++++++++++++++++++++++
(PID.TID 0000.0001) //     43 ++++++++++++++++++++++++++++++++++++++++++++++++++++++++++++++++++++++++++++++++++++++++++++
(PID.TID 0000.0001) //     42 ++++++++++++++++++++++++++++++++++++++++++++++++++++++++++++++++++++++++++++++++++++++++++++
(PID.TID 0000.0001) //     41 ++++++++++++++++++++++++++++++++++++++++++++++++++++++++++++++++++++++++++++++++++++++++++++
(PID.TID 0000.0001) //     40 ++++++++++++++++++++++++++++++++++++++++++++++++++++++++++++++++++++++++++++++++++++++++++++
(PID.TID 0000.0001) //     39 ++++++++++++++++++++++++++++++++++++++++++++++++++++++++++++++++++++++++++++++++++++++++++++
(PID.TID 0000.0001) //     38 ++++++++++++++++++++++++++++++++++++++++++++++++++++++++++++++++++++++++++++++++++++++++++++
(PID.TID 0000.0001) //     37 ++++++++++++++++++++++++++++++++++++++++++++++++++++++++++++++++++++++++++++++++++++++++++++
(PID.TID 0000.0001) //     36 ++++++++++++++++++++++++++++++++++++++++++++++++++++++++++++++++++++++++++++++++++++++++++++
(PID.TID 0000.0001) //     35 ++++++++++++++++++++++++++++++++++++++++++++++++++++++++++++++++++++++++++++++++++++++++++++
(PID.TID 0000.0001) //     34 ++++++++++++++++++++++++++++++++++++++++++++++++++++++++++++++++++++++++++++++++++++++++++++
(PID.TID 0000.0001) //     33 ++++++++++++++++++++++++++++++++++++++++++++++++++++++++++++++++++++++++++++++++++++++++++++
(PID.TID 0000.0001) //     32 ++++++++++++++++++++++++++++++++++++++++++++++++++++++++++++++++++++++++++++++++++++++++++++
(PID.TID 0000.0001) //     31 ++++++++++++++++++++++++++++++++++++++++++++++++++++++++++++++++++++++++++++++++++++++++++++
(PID.TID 0000.0001) //     30 ++++++++++++++++++++++++++++++++++++++++++++++++++++++++++++++++++++++++++++++++++++++++++++
(PID.TID 0000.0001) //     29 ++++++++++++++++++++++++++++++++++++++++++++++++++++++++++++++++++++++++++++++++++++++++++++
(PID.TID 0000.0001) //     28 ++++++++++++++++++++++++++++++++++++++++++++++++++++++++++++++++++++++++++++++++++++++++++++
(PID.TID 0000.0001) //     27 ++++++++++++++++++++++++++++++++++++++++++++++++++++++++++++++++++++++++++++++++++++++++++++
(PID.TID 0000.0001) //     26 ++++++++++++++++++++++++++++++++++++++++++++++++++++++++++++++++++++++++++++++++++++++++++++
(PID.TID 0000.0001) //     25 ++++++++++++++++++++++++++++++++++++++++++++++++++++++++++++++++++++++++++++++++++++++++++++
(PID.TID 0000.0001) //     24 ++++++++++++++++++++++++++++++++++++++++++++++++++++++++++++++++++++++++++++++++++++++++++++
(PID.TID 0000.0001) //     23 ++++++++++++++++++++++++++++++++++++++++++++++++++++++++++++++++++++++++++++++++++++++++++++
(PID.TID 0000.0001) //     22 ++++++++++++++++++++++++++++++++++++++++++---+++---+++++++++++++++++++++++++++++++++++++++++
(PID.TID 0000.0001) //     21 ++++++++++++++++++++++++++++++++++++++++++---+++---+++++++++++++++++++++++++++++++++++++++++
(PID.TID 0000.0001) //     20 ++++++++++++++++++++++++++++++++++++++++++++++++++++++++++++++++++++++++++++++++++++++++++++
(PID.TID 0000.0001) //     19 ++++++++++++++++++++++++++++++++++++++++++++++++++++++++++++++++++++++++++++++++++++++++++++
(PID.TID 0000.0001) //     24 ++++++++++++++++++++++++++++++++++++++++++++++++++++++++++++++++++++++++++++++++++++++++++++
(PID.TID 0000.0001) //     23 ++++++++++++++++++++++++++++++++++++++++++++++++++++++++++++++++++++++++++++++++++++++++++++
(PID.TID 0000.0001) //     22 ++++++++++++++++++++++++++++++++++++++++++---+++---+++++++++++++++++++++++++++++++++++++++++
(PID.TID 0000.0001) //     21 ++++++++++++++++++++++++++++++++++++++++++---+++---+++++++++++++++++++++++++++++++++++++++++
(PID.TID 0000.0001) //     20 ++++++++++++++++++++++++++++++++++++++++++++++++++++++++++++++++++++++++++++++++++++++++++++
(PID.TID 0000.0001) //     19 ++++++++++++++++++++++++++++++++++++++++++++++++++++++++++++++++++++++++++++++++++++++++++++
(PID.TID 0000.0001) //     18 ++++++++++++++++++++++++++++++++++++++++++++++++++++++++++++++++++++++++++++++++++++++++++++
(PID.TID 0000.0001) //     17 ++++++++++++++++++++++++++++++++++++++++++++++++++++++++++++++++++++++++++++++++++++++++++++
(PID.TID 0000.0001) //     16 ++++++++++++++++++++++++++++++++++++++++++++++++++++++++++++++++++++++++++++++++++++++++++++
(PID.TID 0000.0001) //     15 ++++++++++++++++++++++++++++++++++++++++++++++++++++++++++++++++++++++++++++++++++++++++++++
(PID.TID 0000.0001) //     14 ++++++++++++++++++++++++++++++++++++++++++++++++++++++++++++++++++++++++++++++++++++++++++++
(PID.TID 0000.0001) //     13 ++++++++++++++++++++++++++++++++++++++++++++++++++++++++++++++++++++++++++++++++++++++++++++
(PID.TID 0000.0001) //     12 ++++++++++++++++++++++++++++++++++++++++++++++++++++++++++++++++++++++++++++++++++++++++++++
(PID.TID 0000.0001) //     11 ++++++++++++++++++++++++++++++++++++++++++++++++++++++++++++++++++++++++++++++++++++++++++++
(PID.TID 0000.0001) //     10 ++++++++++++++++++++++++++++++++++++++++++++++++++++++++++++++++++++++++++++++++++++++++++++
(PID.TID 0000.0001) //      9 ++++++++++++++++++++++++++++++++++++++++++++++++++++++++++++++++++++++++++++++++++++++++++++
(PID.TID 0000.0001) //      8 ++++++++++++++++++++++++++++++++++++++++++++++++++++++++++++++++++++++++++++++++++++++++++++
(PID.TID 0000.0001) //      7 ++++++++++++++++++++++++++++++++++++++++++++++++++++++++++++++++++++++++++++++++++++++++++++
(PID.TID 0000.0001) //      6 ++++++++++++++++++++++++++++++++++++++++++++++++++++++++++++++++++++++++++++++++++++++++++++
(PID.TID 0000.0001) //      5 ++++++++++++++++++++++++++++++++++++++++++++++++++++++++++++++++++++++++++++++++++++++++++++
(PID.TID 0000.0001) //      4 ++++++++++++++++++++++++++++++++++++++++++++++++++++++++++++++++++++++++++++++++++++++++++++
(PID.TID 0000.0001) //      3 ++++++++++++++++++++++++++++++++++++++++++++++++++++++++++++++++++++++++++++++++++++++++++++
(PID.TID 0000.0001) //      2 ++++++++++++++++++++++++++++++++++++++++++++++++++++++++++++++++++++++++++++++++++++++++++++
(PID.TID 0000.0001) //      1 ++++++++++++++++++++++++++++++++++++++++++++++++++++++++++++++++++++++++++++++++++++++++++++
(PID.TID 0000.0001) //      0 ++++++++++++++++++++++++++++++++++++++++++++++++++++++++++++++++++++++++++++++++++++++++++++
(PID.TID 0000.0001) //     -1 ++++++++++++++++++++++++++++++++++++++++++++++++++++++++++++++++++++++++++++++++++++++++++++
(PID.TID 0000.0001) //     -2 ++++++++++++++++++++++++++++++++++++++++++++++++++++++++++++++++++++++++++++++++++++++++++++
(PID.TID 0000.0001) // =======================================================
(PID.TID 0000.0001) // END OF FIELD                                          =
(PID.TID 0000.0001) // =======================================================
(PID.TID 0000.0001) 
(PID.TID 0000.0001) // =======================================================
(PID.TID 0000.0001) // Field hFacS at iteration          1
(PID.TID 0000.0001) // CMIN =          8.716411970059894E-01
(PID.TID 0000.0001) // CMAX =          1.000000000000000E+00
(PID.TID 0000.0001) // CINT =          4.754029740518911E-03
(PID.TID 0000.0001) // SYMBOLS (CMIN->CMAX): -abcdefghijklmnopqrstuvwxyz+
(PID.TID 0000.0001) //                  0.0: .
(PID.TID 0000.0001) // RANGE I (Lo:Hi:Step):(    -2:    83:     1)
(PID.TID 0000.0001) // RANGE J (Lo:Hi:Step):(    45:    -2:    -1)
(PID.TID 0000.0001) // RANGE K (Lo:Hi:Step):(   1:   1:   1)
(PID.TID 0000.0001) // =======================================================
(PID.TID 0000.0001) K =   1
(PID.TID 0000.0001) //                I=7       I=17      I=27      I=37      I=41      I=51      I=61      I=71      I=81
(PID.TID 0000.0001) // |--J--|210123456|890123456|890123456|890123456|890123890|234567890|234567890|234567890|234567890|23
(PID.TID 0000.0001) //     45 ++++++++++++++++++++++++++++++++++++++++++++++++++++++++++++++++++++++++++++++++++++++++++++
(PID.TID 0000.0001) //     44 ++++++++++++++++++++++++++++++++++++++++++++++++++++++++++++++++++++++++++++++++++++++++++++
(PID.TID 0000.0001) //     43 ++++++++++++++++++++++++++++++++++++++++++++++++++++++++++++++++++++++++++++++++++++++++++++
(PID.TID 0000.0001) //     42 ++++++++++++++++++++++++++++++++++++++++++++++++++++++++++++++++++++++++++++++++++++++++++++
(PID.TID 0000.0001) //     41 ++++++++++++++++++++++++++++++++++++++++++++++++++++++++++++++++++++++++++++++++++++++++++++
(PID.TID 0000.0001) //     40 ++++++++++++++++++++++++++++++++++++++++++++++++++++++++++++++++++++++++++++++++++++++++++++
(PID.TID 0000.0001) //     39 ++++++++++++++++++++++++++++++++++++++++++++++++++++++++++++++++++++++++++++++++++++++++++++
(PID.TID 0000.0001) //     38 ++++++++++++++++++++++++++++++++++++++++++++++++++++++++++++++++++++++++++++++++++++++++++++
(PID.TID 0000.0001) //     37 ++++++++++++++++++++++++++++++++++++++++++++++++++++++++++++++++++++++++++++++++++++++++++++
(PID.TID 0000.0001) //     36 ++++++++++++++++++++++++++++++++++++++++++++++++++++++++++++++++++++++++++++++++++++++++++++
(PID.TID 0000.0001) //     35 ++++++++++++++++++++++++++++++++++++++++++++++++++++++++++++++++++++++++++++++++++++++++++++
(PID.TID 0000.0001) //     34 ++++++++++++++++++++++++++++++++++++++++++++++++++++++++++++++++++++++++++++++++++++++++++++
(PID.TID 0000.0001) //     33 ++++++++++++++++++++++++++++++++++++++++++++++++++++++++++++++++++++++++++++++++++++++++++++
(PID.TID 0000.0001) //     32 ++++++++++++++++++++++++++++++++++++++++++++++++++++++++++++++++++++++++++++++++++++++++++++
(PID.TID 0000.0001) //     31 ++++++++++++++++++++++++++++++++++++++++++++++++++++++++++++++++++++++++++++++++++++++++++++
(PID.TID 0000.0001) //     30 ++++++++++++++++++++++++++++++++++++++++++++++++++++++++++++++++++++++++++++++++++++++++++++
(PID.TID 0000.0001) //     29 ++++++++++++++++++++++++++++++++++++++++++++++++++++++++++++++++++++++++++++++++++++++++++++
(PID.TID 0000.0001) //     28 ++++++++++++++++++++++++++++++++++++++++++++++++++++++++++++++++++++++++++++++++++++++++++++
(PID.TID 0000.0001) //     27 ++++++++++++++++++++++++++++++++++++++++++++++++++++++++++++++++++++++++++++++++++++++++++++
(PID.TID 0000.0001) //     26 ++++++++++++++++++++++++++++++++++++++++++++++++++++++++++++++++++++++++++++++++++++++++++++
(PID.TID 0000.0001) //     25 ++++++++++++++++++++++++++++++++++++++++++++++++++++++++++++++++++++++++++++++++++++++++++++
(PID.TID 0000.0001) //     24 ++++++++++++++++++++++++++++++++++++++++++++++++++++++++++++++++++++++++++++++++++++++++++++
(PID.TID 0000.0001) //     23 ++++++++++++++++++++++++++++++++++++++++++--++++--++++++++++++++++++++++++++++++++++++++++++
(PID.TID 0000.0001) //     22 ++++++++++++++++++++++++++++++++++++++++++--++++--++++++++++++++++++++++++++++++++++++++++++
(PID.TID 0000.0001) //     21 ++++++++++++++++++++++++++++++++++++++++++--++++--++++++++++++++++++++++++++++++++++++++++++
(PID.TID 0000.0001) //     20 ++++++++++++++++++++++++++++++++++++++++++++++++++++++++++++++++++++++++++++++++++++++++++++
(PID.TID 0000.0001) //     19 ++++++++++++++++++++++++++++++++++++++++++++++++++++++++++++++++++++++++++++++++++++++++++++
(PID.TID 0000.0001) //     24 ++++++++++++++++++++++++++++++++++++++++++++++++++++++++++++++++++++++++++++++++++++++++++++
(PID.TID 0000.0001) //     23 ++++++++++++++++++++++++++++++++++++++++++--++++--++++++++++++++++++++++++++++++++++++++++++
(PID.TID 0000.0001) //     22 ++++++++++++++++++++++++++++++++++++++++++--++++--++++++++++++++++++++++++++++++++++++++++++
(PID.TID 0000.0001) //     21 ++++++++++++++++++++++++++++++++++++++++++--++++--++++++++++++++++++++++++++++++++++++++++++
(PID.TID 0000.0001) //     20 ++++++++++++++++++++++++++++++++++++++++++++++++++++++++++++++++++++++++++++++++++++++++++++
(PID.TID 0000.0001) //     19 ++++++++++++++++++++++++++++++++++++++++++++++++++++++++++++++++++++++++++++++++++++++++++++
(PID.TID 0000.0001) //     18 ++++++++++++++++++++++++++++++++++++++++++++++++++++++++++++++++++++++++++++++++++++++++++++
(PID.TID 0000.0001) //     17 ++++++++++++++++++++++++++++++++++++++++++++++++++++++++++++++++++++++++++++++++++++++++++++
(PID.TID 0000.0001) //     16 ++++++++++++++++++++++++++++++++++++++++++++++++++++++++++++++++++++++++++++++++++++++++++++
(PID.TID 0000.0001) //     15 ++++++++++++++++++++++++++++++++++++++++++++++++++++++++++++++++++++++++++++++++++++++++++++
(PID.TID 0000.0001) //     14 ++++++++++++++++++++++++++++++++++++++++++++++++++++++++++++++++++++++++++++++++++++++++++++
(PID.TID 0000.0001) //     13 ++++++++++++++++++++++++++++++++++++++++++++++++++++++++++++++++++++++++++++++++++++++++++++
(PID.TID 0000.0001) //     12 ++++++++++++++++++++++++++++++++++++++++++++++++++++++++++++++++++++++++++++++++++++++++++++
(PID.TID 0000.0001) //     11 ++++++++++++++++++++++++++++++++++++++++++++++++++++++++++++++++++++++++++++++++++++++++++++
(PID.TID 0000.0001) //     10 ++++++++++++++++++++++++++++++++++++++++++++++++++++++++++++++++++++++++++++++++++++++++++++
(PID.TID 0000.0001) //      9 ++++++++++++++++++++++++++++++++++++++++++++++++++++++++++++++++++++++++++++++++++++++++++++
(PID.TID 0000.0001) //      8 ++++++++++++++++++++++++++++++++++++++++++++++++++++++++++++++++++++++++++++++++++++++++++++
(PID.TID 0000.0001) //      7 ++++++++++++++++++++++++++++++++++++++++++++++++++++++++++++++++++++++++++++++++++++++++++++
(PID.TID 0000.0001) //      6 ++++++++++++++++++++++++++++++++++++++++++++++++++++++++++++++++++++++++++++++++++++++++++++
(PID.TID 0000.0001) //      5 ++++++++++++++++++++++++++++++++++++++++++++++++++++++++++++++++++++++++++++++++++++++++++++
(PID.TID 0000.0001) //      4 ++++++++++++++++++++++++++++++++++++++++++++++++++++++++++++++++++++++++++++++++++++++++++++
(PID.TID 0000.0001) //      3 ++++++++++++++++++++++++++++++++++++++++++++++++++++++++++++++++++++++++++++++++++++++++++++
(PID.TID 0000.0001) //      2 ++++++++++++++++++++++++++++++++++++++++++++++++++++++++++++++++++++++++++++++++++++++++++++
(PID.TID 0000.0001) //      1 ++++++++++++++++++++++++++++++++++++++++++++++++++++++++++++++++++++++++++++++++++++++++++++
(PID.TID 0000.0001) //      0 ++++++++++++++++++++++++++++++++++++++++++++++++++++++++++++++++++++++++++++++++++++++++++++
(PID.TID 0000.0001) //     -1 ++++++++++++++++++++++++++++++++++++++++++++++++++++++++++++++++++++++++++++++++++++++++++++
(PID.TID 0000.0001) //     -2 ++++++++++++++++++++++++++++++++++++++++++++++++++++++++++++++++++++++++++++++++++++++++++++
(PID.TID 0000.0001) // =======================================================
(PID.TID 0000.0001) // END OF FIELD                                          =
(PID.TID 0000.0001) // =======================================================
(PID.TID 0000.0001) 
(PID.TID 0000.0001) GAD_INIT_FIXED: GAD_OlMinSize=  2  0  1
(PID.TID 0000.0001) 
(PID.TID 0000.0001) // ===================================
(PID.TID 0000.0001) // GAD parameters :
(PID.TID 0000.0001) // ===================================
(PID.TID 0000.0001) tempAdvScheme =   /* Temp. Horiz.Advection scheme selector */
(PID.TID 0000.0001)                       2
(PID.TID 0000.0001)     ;
(PID.TID 0000.0001) tempVertAdvScheme =   /* Temp. Vert. Advection scheme selector */
(PID.TID 0000.0001)                       2
(PID.TID 0000.0001)     ;
(PID.TID 0000.0001) tempMultiDimAdvec =   /* use Muti-Dim Advec method for Temp */
(PID.TID 0000.0001)                   F
(PID.TID 0000.0001)     ;
(PID.TID 0000.0001) tempSOM_Advection = /* use 2nd Order Moment Advection for Temp */
(PID.TID 0000.0001)                   F
(PID.TID 0000.0001)     ;
(PID.TID 0000.0001) AdamsBashforthGt = /* apply Adams-Bashforth extrapolation on Gt */
(PID.TID 0000.0001)                   T
(PID.TID 0000.0001)     ;
(PID.TID 0000.0001) AdamsBashforth_T = /* apply Adams-Bashforth extrapolation on Temp */
(PID.TID 0000.0001)                   F
(PID.TID 0000.0001)     ;
(PID.TID 0000.0001) saltAdvScheme =   /* Salt. Horiz.advection scheme selector */
(PID.TID 0000.0001)                       4
(PID.TID 0000.0001)     ;
(PID.TID 0000.0001) saltVertAdvScheme =   /* Salt. Vert. Advection scheme selector */
(PID.TID 0000.0001)                       4
(PID.TID 0000.0001)     ;
(PID.TID 0000.0001) saltMultiDimAdvec =   /* use Muti-Dim Advec method for Salt */
(PID.TID 0000.0001)                   F
(PID.TID 0000.0001)     ;
(PID.TID 0000.0001) saltSOM_Advection = /* use 2nd Order Moment Advection for Salt */
(PID.TID 0000.0001)                   F
(PID.TID 0000.0001)     ;
(PID.TID 0000.0001) AdamsBashforthGs = /* apply Adams-Bashforth extrapolation on Gs */
(PID.TID 0000.0001)                   T
(PID.TID 0000.0001)     ;
(PID.TID 0000.0001) AdamsBashforth_S = /* apply Adams-Bashforth extrapolation on Salt */
(PID.TID 0000.0001)                   F
(PID.TID 0000.0001)     ;
(PID.TID 0000.0001) // ===================================
(PID.TID 0000.0001) PTRACERS_INIT_FIXED: PTRACERS_SOM_Advection(   1) =     F
(PID.TID 0000.0001) PTRACERS_INIT_FIXED: GAD_OlMinSize=  2  0  1
(PID.TID 0000.0001)  MDS_READ_FIELD: opening global file: rbcs_mask.bin
(PID.TID 0000.0001) %MON fCori_max                    =   1.0000000000000E-04
(PID.TID 0000.0001) %MON fCori_min                    =   1.0000000000000E-04
(PID.TID 0000.0001) %MON fCori_mean                   =   1.0000000000000E-04
(PID.TID 0000.0001) %MON fCori_sd                     =   1.6398557858843E-18
(PID.TID 0000.0001) %MON fCoriG_max                   =   1.0000000000000E-04
(PID.TID 0000.0001) %MON fCoriG_min                   =   1.0000000000000E-04
(PID.TID 0000.0001) %MON fCoriG_mean                  =   1.0000000000000E-04
(PID.TID 0000.0001) %MON fCoriG_sd                    =   1.6398557858843E-18
(PID.TID 0000.0001) %MON fCoriCos_max                 =   0.0000000000000E+00
(PID.TID 0000.0001) %MON fCoriCos_min                 =   0.0000000000000E+00
(PID.TID 0000.0001) %MON fCoriCos_mean                =   0.0000000000000E+00
(PID.TID 0000.0001) %MON fCoriCos_sd                  =   0.0000000000000E+00
(PID.TID 0000.0001) INI_CG2D: CG2D normalisation factor =  2.2222222222222223E-04
(PID.TID 0000.0001) 
(PID.TID 0000.0001) INI_CG3D: CG3D normalisation factor =  2.2499999999999998E-05
(PID.TID 0000.0001) 
(PID.TID 0000.0001) // =======================================================
(PID.TID 0000.0001) // Model configuration
(PID.TID 0000.0001) // =======================================================
(PID.TID 0000.0001) //
(PID.TID 0000.0001) // "Physical" paramters ( PARM01 in namelist )
(PID.TID 0000.0001) //
(PID.TID 0000.0001) buoyancyRelation = /* Type of relation to get Buoyancy */
(PID.TID 0000.0001)               'OCEANIC'
(PID.TID 0000.0001)     ;
(PID.TID 0000.0001) fluidIsAir   =  /* fluid major constituent is Air */
(PID.TID 0000.0001)                   F
(PID.TID 0000.0001)     ;
(PID.TID 0000.0001) fluidIsWater =  /* fluid major constituent is Water */
(PID.TID 0000.0001)                   T
(PID.TID 0000.0001)     ;
(PID.TID 0000.0001) usingPCoords =  /* use p (or p*) vertical coordinate */
(PID.TID 0000.0001)                   F
(PID.TID 0000.0001)     ;
(PID.TID 0000.0001) usingZCoords =  /* use z (or z*) vertical coordinate */
(PID.TID 0000.0001)                   T
(PID.TID 0000.0001)     ;
(PID.TID 0000.0001) tRef =   /* Reference temperature profile ( oC or K ) */
(PID.TID 0000.0001)                 6.968340000000000E-01,      /* K =  1 */
(PID.TID 0000.0001)                 4.977380000000000E-01,      /* K =  2 */
(PID.TID 0000.0001)                 2.986430000000000E-01,      /* K =  3 */
(PID.TID 0000.0001)                 9.954770000000000E-02,      /* K =  4 */
(PID.TID 0000.0001)                -9.954770000000000E-02,      /* K =  5 */
(PID.TID 0000.0001)                -2.986430000000000E-01,      /* K =  6 */
(PID.TID 0000.0001)                -4.977380000000000E-01,      /* K =  7 */
(PID.TID 0000.0001)                -6.968340000000000E-01       /* K =  8 */
(PID.TID 0000.0001)     ;
(PID.TID 0000.0001) sRef =   /* Reference salinity profile ( psu ) */
(PID.TID 0000.0001)     8 @  3.500000000000000E+01              /* K =  1:  8 */
(PID.TID 0000.0001)     ;
(PID.TID 0000.0001) viscAh  =   /* Lateral eddy viscosity ( m^2/s ) */
(PID.TID 0000.0001)                 1.000000000000000E+03
(PID.TID 0000.0001)     ;
(PID.TID 0000.0001) viscAhMax = /* Maximum lateral eddy viscosity ( m^2/s ) */
(PID.TID 0000.0001)                 1.000000000000000E+21
(PID.TID 0000.0001)     ;
(PID.TID 0000.0001) viscAhGrid = /* Grid dependent lateral eddy viscosity ( non-dim. ) */
(PID.TID 0000.0001)                 0.000000000000000E+00
(PID.TID 0000.0001)     ;
(PID.TID 0000.0001) useFullLeith = /* Use Full Form of Leith Viscosity on/off flag*/
(PID.TID 0000.0001)                   F
(PID.TID 0000.0001)     ;
(PID.TID 0000.0001) useStrainTensionVisc= /* Use StrainTension Form of Viscous Operator flag*/
(PID.TID 0000.0001)                   F
(PID.TID 0000.0001)     ;
(PID.TID 0000.0001) useAreaViscLength = /* Use area for visc length instead of geom. mean*/
(PID.TID 0000.0001)                   F
(PID.TID 0000.0001)     ;
(PID.TID 0000.0001) viscC2leith = /* Leith harmonic visc. factor (on grad(vort),non-dim.) */
(PID.TID 0000.0001)                 0.000000000000000E+00
(PID.TID 0000.0001)     ;
(PID.TID 0000.0001) viscC2leithD = /* Leith harmonic viscosity factor (on grad(div),non-dim.)*/
(PID.TID 0000.0001)                 0.000000000000000E+00
(PID.TID 0000.0001)     ;
(PID.TID 0000.0001) viscC2smag = /* Smagorinsky harmonic viscosity factor (non-dim.) */
(PID.TID 0000.0001)                 0.000000000000000E+00
(PID.TID 0000.0001)     ;
(PID.TID 0000.0001) viscA4  =   /* Lateral biharmonic viscosity ( m^4/s ) */
(PID.TID 0000.0001)                 1.000000000000000E+08
(PID.TID 0000.0001)     ;
(PID.TID 0000.0001) viscA4Max = /* Maximum biharmonic viscosity ( m^2/s ) */
(PID.TID 0000.0001)                 1.000000000000000E+21
(PID.TID 0000.0001)     ;
(PID.TID 0000.0001) viscA4Grid = /* Grid dependent biharmonic viscosity ( non-dim. ) */
(PID.TID 0000.0001)                 0.000000000000000E+00
(PID.TID 0000.0001)     ;
(PID.TID 0000.0001) viscC4leith = /* Leith biharm viscosity factor (on grad(vort), non-dim.)*/
(PID.TID 0000.0001)                 0.000000000000000E+00
(PID.TID 0000.0001)     ;
(PID.TID 0000.0001) viscC4leithD = /* Leith biharm viscosity factor (on grad(div), non-dim.) */
(PID.TID 0000.0001)                 0.000000000000000E+00
(PID.TID 0000.0001)     ;
(PID.TID 0000.0001) viscC4Smag = /* Smagorinsky biharm viscosity factor (non-dim) */
(PID.TID 0000.0001)                 0.000000000000000E+00
(PID.TID 0000.0001)     ;
(PID.TID 0000.0001) no_slip_sides =  /* Viscous BCs: No-slip sides */
(PID.TID 0000.0001)                   F
(PID.TID 0000.0001)     ;
(PID.TID 0000.0001) sideDragFactor = /* side-drag scaling factor (non-dim) */
(PID.TID 0000.0001)                 2.000000000000000E+00
(PID.TID 0000.0001)     ;
(PID.TID 0000.0001) viscArNr = /* vertical profile of vertical viscosity ( m^2/s )*/
(PID.TID 0000.0001)     8 @  1.000000000000000E-03              /* K =  1:  8 */
(PID.TID 0000.0001)     ;
(PID.TID 0000.0001) no_slip_bottom =  /* Viscous BCs: No-slip bottom */
(PID.TID 0000.0001)                   F
(PID.TID 0000.0001)     ;
(PID.TID 0000.0001) bottomDragLinear = /* linear bottom-drag coefficient ( m/s ) */
(PID.TID 0000.0001)                 0.000000000000000E+00
(PID.TID 0000.0001)     ;
(PID.TID 0000.0001) bottomDragQuadratic = /* quadratic bottom-drag coefficient (-) */
(PID.TID 0000.0001)                 0.000000000000000E+00
(PID.TID 0000.0001)     ;
(PID.TID 0000.0001) diffKhT =   /* Laplacian diffusion of heat laterally ( m^2/s ) */
(PID.TID 0000.0001)                 1.000000000000000E+03
(PID.TID 0000.0001)     ;
(PID.TID 0000.0001) diffK4T =   /* Biharmonic diffusion of heat laterally ( m^4/s ) */
(PID.TID 0000.0001)                 0.000000000000000E+00
(PID.TID 0000.0001)     ;
(PID.TID 0000.0001) diffKhS =   /* Laplacian diffusion of salt laterally ( m^2/s ) */
(PID.TID 0000.0001)                 1.000000000000000E+03
(PID.TID 0000.0001)     ;
(PID.TID 0000.0001) diffK4S =   /* Biharmonic diffusion of salt laterally ( m^4/s ) */
(PID.TID 0000.0001)                 0.000000000000000E+00
(PID.TID 0000.0001)     ;
(PID.TID 0000.0001) diffKrNrT = /* vertical profile of vertical diffusion of Temp ( m^2/s )*/
(PID.TID 0000.0001)     8 @  1.000000000000000E-05              /* K =  1:  8 */
(PID.TID 0000.0001)     ;
(PID.TID 0000.0001) diffKrNrS = /* vertical profile of vertical diffusion of Salt ( m^2/s )*/
(PID.TID 0000.0001)     8 @  1.000000000000000E-05              /* K =  1:  8 */
(PID.TID 0000.0001)     ;
(PID.TID 0000.0001) diffKrBL79surf = /* Surface diffusion for Bryan and Lewis 79 ( m^2/s ) */
(PID.TID 0000.0001)                 0.000000000000000E+00
(PID.TID 0000.0001)     ;
(PID.TID 0000.0001) diffKrBL79deep = /* Deep diffusion for Bryan and Lewis 1979 ( m^2/s ) */
(PID.TID 0000.0001)                 0.000000000000000E+00
(PID.TID 0000.0001)     ;
(PID.TID 0000.0001) diffKrBL79scl = /* Depth scale for Bryan and Lewis 1979 ( m ) */
(PID.TID 0000.0001)                 2.000000000000000E+02
(PID.TID 0000.0001)     ;
(PID.TID 0000.0001) diffKrBL79Ho = /* Turning depth for Bryan and Lewis 1979 ( m ) */
(PID.TID 0000.0001)                -2.000000000000000E+03
(PID.TID 0000.0001)     ;
(PID.TID 0000.0001) ivdc_kappa = /* Implicit Vertical Diffusivity for Convection ( m^2/s) */
(PID.TID 0000.0001)                 0.000000000000000E+00
(PID.TID 0000.0001)     ;
(PID.TID 0000.0001) hMixCriteria=  /* Criteria for mixed-layer diagnostic */
(PID.TID 0000.0001)                -8.000000000000000E-01
(PID.TID 0000.0001)     ;
(PID.TID 0000.0001) dRhoSmall =  /* Parameter for mixed-layer diagnostic */
(PID.TID 0000.0001)                 1.000000000000000E-06
(PID.TID 0000.0001)     ;
(PID.TID 0000.0001) hMixSmooth=  /* Smoothing parameter for mixed-layer diagnostic */
(PID.TID 0000.0001)                 0.000000000000000E+00
(PID.TID 0000.0001)     ;
(PID.TID 0000.0001) eosType =  /* Type of Equation of State */
(PID.TID 0000.0001)               'LINEAR'
(PID.TID 0000.0001)     ;
(PID.TID 0000.0001) tAlpha =   /* Linear EOS thermal expansion coefficient ( 1/oC ) */
(PID.TID 0000.0001)                 2.000000000000000E-04
(PID.TID 0000.0001)     ;
(PID.TID 0000.0001) sBeta =   /* Linear EOS haline contraction coefficient ( 1/psu ) */
(PID.TID 0000.0001)                 0.000000000000000E+00
(PID.TID 0000.0001)     ;
(PID.TID 0000.0001) rhonil =   /* Reference density ( kg/m^3 ) */
(PID.TID 0000.0001)                 9.998000000000000E+02
(PID.TID 0000.0001)     ;
(PID.TID 0000.0001) rhoConst =   /* Reference density ( kg/m^3 ) */
(PID.TID 0000.0001)                 9.998000000000000E+02
(PID.TID 0000.0001)     ;
(PID.TID 0000.0001) rhoFacC = /* normalized Reference density @ cell-Center (-) */
(PID.TID 0000.0001)     8 @  1.000000000000000E+00              /* K =  1:  8 */
(PID.TID 0000.0001)     ;
(PID.TID 0000.0001) rhoFacF = /* normalized Reference density @ W-Interface (-) */
(PID.TID 0000.0001)     9 @  1.000000000000000E+00              /* K =  1:  9 */
(PID.TID 0000.0001)     ;
(PID.TID 0000.0001) rhoConstFresh =   /* Reference density ( kg/m^3 ) */
(PID.TID 0000.0001)                 9.998000000000000E+02
(PID.TID 0000.0001)     ;
(PID.TID 0000.0001) gravity =   /* Gravitational acceleration ( m/s^2 ) */
(PID.TID 0000.0001)                 9.810000000000000E+00
(PID.TID 0000.0001)     ;
(PID.TID 0000.0001) gBaro =   /* Barotropic gravity ( m/s^2 ) */
(PID.TID 0000.0001)                 9.810000000000000E+00
(PID.TID 0000.0001)     ;
(PID.TID 0000.0001) rotationPeriod =   /* Rotation Period ( s ) */
(PID.TID 0000.0001)                 8.616400000000000E+04
(PID.TID 0000.0001)     ;
(PID.TID 0000.0001) omega =   /* Angular velocity ( rad/s ) */
(PID.TID 0000.0001)                 7.292123516990375E-05
(PID.TID 0000.0001)     ;
(PID.TID 0000.0001) f0 =   /* Reference coriolis parameter ( 1/s ) */
(PID.TID 0000.0001)                 1.000000000000000E-04
(PID.TID 0000.0001)     ;
(PID.TID 0000.0001) beta =   /* Beta ( 1/(m.s) ) */
(PID.TID 0000.0001)                 0.000000000000000E+00
(PID.TID 0000.0001)     ;
(PID.TID 0000.0001) fPrime =   /* Second coriolis parameter ( 1/s ) */
(PID.TID 0000.0001)                 0.000000000000000E+00
(PID.TID 0000.0001)     ;
(PID.TID 0000.0001) rigidLid =   /* Rigid lid on/off flag */
(PID.TID 0000.0001)                   F
(PID.TID 0000.0001)     ;
(PID.TID 0000.0001) implicitFreeSurface =   /* Implicit free surface on/off flag */
(PID.TID 0000.0001)                   T
(PID.TID 0000.0001)     ;
(PID.TID 0000.0001) freeSurfFac =   /* Implicit free surface factor */
(PID.TID 0000.0001)                 1.000000000000000E+00
(PID.TID 0000.0001)     ;
(PID.TID 0000.0001) implicSurfPress =  /* Surface Pressure implicit factor (0-1)*/
(PID.TID 0000.0001)                 1.000000000000000E+00
(PID.TID 0000.0001)     ;
(PID.TID 0000.0001) implicDiv2Dflow =  /* Barot. Flow Div. implicit factor (0-1)*/
(PID.TID 0000.0001)                 1.000000000000000E+00
(PID.TID 0000.0001)     ;
(PID.TID 0000.0001) exactConserv =  /* Exact Volume Conservation on/off flag*/
(PID.TID 0000.0001)                   T
(PID.TID 0000.0001)     ;
(PID.TID 0000.0001) linFSConserveTr = /* Tracer correction for Lin Free Surface on/off flag*/
(PID.TID 0000.0001)                   F
(PID.TID 0000.0001)     ;
(PID.TID 0000.0001) uniformLin_PhiSurf = /* use uniform Bo_surf on/off flag*/
(PID.TID 0000.0001)                   T
(PID.TID 0000.0001)     ;
(PID.TID 0000.0001) hFacMin =   /* minimum partial cell factor (hFac) */
(PID.TID 0000.0001)                 2.000000000000000E-01
(PID.TID 0000.0001)     ;
(PID.TID 0000.0001) hFacMinDr = /* minimum partial cell thickness ( m) */
(PID.TID 0000.0001)                 2.000000000000000E-01
(PID.TID 0000.0001)     ;
(PID.TID 0000.0001) nonlinFreeSurf = /* Non-linear Free Surf. options (-1,0,1,2,3)*/
(PID.TID 0000.0001)                       0
(PID.TID 0000.0001)      -1,0= Off ; 1,2,3= On, 2=+rescale gU,gV, 3=+update cg2d solv.
(PID.TID 0000.0001)     ;
(PID.TID 0000.0001) hFacInf =   /* lower threshold for hFac (nonlinFreeSurf only)*/
(PID.TID 0000.0001)                 2.000000000000000E-01
(PID.TID 0000.0001)     ;
(PID.TID 0000.0001) hFacSup =   /* upper threshold for hFac (nonlinFreeSurf only)*/
(PID.TID 0000.0001)                 2.000000000000000E+00
(PID.TID 0000.0001)     ;
(PID.TID 0000.0001) select_rStar = /* r* Vertical coord. options (=0 r coord.; >0 uses r*)*/
(PID.TID 0000.0001)                       0
(PID.TID 0000.0001)     ;
(PID.TID 0000.0001) selectAddFluid = /* option for mass source/sink of fluid (=0: off) */
(PID.TID 0000.0001)                       0
(PID.TID 0000.0001)     ;
(PID.TID 0000.0001) useRealFreshWaterFlux = /* Real Fresh Water Flux on/off flag*/
(PID.TID 0000.0001)                   F
(PID.TID 0000.0001)     ;
(PID.TID 0000.0001) temp_EvPrRn = /* Temp. of Evap/Prec/R (UNSET=use local T)(oC)*/
(PID.TID 0000.0001)                 1.234567000000000E+05
(PID.TID 0000.0001)     ;
(PID.TID 0000.0001) salt_EvPrRn = /* Salin. of Evap/Prec/R (UNSET=use local S)(psu)*/
(PID.TID 0000.0001)                 0.000000000000000E+00
(PID.TID 0000.0001)     ;
(PID.TID 0000.0001) temp_addMass = /* Temp. of addMass array (UNSET=use local T)(oC)*/
(PID.TID 0000.0001)                 1.234567000000000E+05
(PID.TID 0000.0001)     ;
(PID.TID 0000.0001) salt_addMass = /* Salin. of addMass array (UNSET=use local S)(psu)*/
(PID.TID 0000.0001)                 0.000000000000000E+00
(PID.TID 0000.0001)     ;
(PID.TID 0000.0001) convertFW2Salt = /* convert F.W. Flux to Salt Flux (-1=use local S)(psu)*/
(PID.TID 0000.0001)                 3.500000000000000E+01
(PID.TID 0000.0001)     ;
(PID.TID 0000.0001) use3Dsolver = /* use 3-D pressure solver on/off flag */
(PID.TID 0000.0001)                   T
(PID.TID 0000.0001)     ;
(PID.TID 0000.0001) nonHydrostatic =  /* Non-Hydrostatic on/off flag */
(PID.TID 0000.0001)                   T
(PID.TID 0000.0001)     ;
(PID.TID 0000.0001) nh_Am2 = /* Non-Hydrostatic terms scaling factor */
(PID.TID 0000.0001)                 1.000000000000000E+00
(PID.TID 0000.0001)     ;
(PID.TID 0000.0001) implicitNHPress = /* Non-Hyd Pressure implicit factor (0-1)*/
(PID.TID 0000.0001)                 1.000000000000000E+00
(PID.TID 0000.0001)     ;
(PID.TID 0000.0001) selectNHfreeSurf = /* Non-Hyd (free-)Surface option */
(PID.TID 0000.0001)                       0
(PID.TID 0000.0001)     ;
(PID.TID 0000.0001) quasiHydrostatic = /* Quasi-Hydrostatic on/off flag */
(PID.TID 0000.0001)                   F
(PID.TID 0000.0001)     ;
(PID.TID 0000.0001) momStepping =  /* Momentum equation on/off flag */
(PID.TID 0000.0001)                   T
(PID.TID 0000.0001)     ;
(PID.TID 0000.0001) vectorInvariantMomentum= /* Vector-Invariant Momentum on/off */
(PID.TID 0000.0001)                   F
(PID.TID 0000.0001)     ;
(PID.TID 0000.0001) momAdvection =  /* Momentum advection on/off flag */
(PID.TID 0000.0001)                   T
(PID.TID 0000.0001)     ;
(PID.TID 0000.0001) momViscosity =  /* Momentum viscosity on/off flag */
(PID.TID 0000.0001)                   T
(PID.TID 0000.0001)     ;
(PID.TID 0000.0001) momImplVertAdv= /* Momentum implicit vert. advection on/off*/
(PID.TID 0000.0001)                   F
(PID.TID 0000.0001)     ;
(PID.TID 0000.0001) implicitViscosity = /* Implicit viscosity on/off flag */
(PID.TID 0000.0001)                   F
(PID.TID 0000.0001)     ;
(PID.TID 0000.0001) metricTerms =  /* metric-Terms on/off flag */
(PID.TID 0000.0001)                   F
(PID.TID 0000.0001)     ;
(PID.TID 0000.0001) useNHMTerms = /* Non-Hydrostatic Metric-Terms on/off */
(PID.TID 0000.0001)                   F
(PID.TID 0000.0001)     ;
(PID.TID 0000.0001) selectCoriMap = /* Coriolis Map options (0,1,2,3)*/
(PID.TID 0000.0001)                       1
(PID.TID 0000.0001)     0= f-Plane ; 1= Beta-Plane ; 2= Spherical ; 3= read from file
(PID.TID 0000.0001)     ;
(PID.TID 0000.0001) use3dCoriolis = /* 3-D Coriolis on/off flag */
(PID.TID 0000.0001)                   F
(PID.TID 0000.0001)     ;
(PID.TID 0000.0001) useCoriolis =  /* Coriolis on/off flag */
(PID.TID 0000.0001)                   T
(PID.TID 0000.0001)     ;
(PID.TID 0000.0001) useCDscheme =  /* CD scheme on/off flag */
(PID.TID 0000.0001)                   F
(PID.TID 0000.0001)     ;
(PID.TID 0000.0001) useJamartWetPoints= /* Coriolis WetPoints method flag */
(PID.TID 0000.0001)                   F
(PID.TID 0000.0001)     ;
(PID.TID 0000.0001) useJamartMomAdv= /* V.I. Non-linear terms Jamart flag */
(PID.TID 0000.0001)                   F
(PID.TID 0000.0001)     ;
(PID.TID 0000.0001) useAbsVorticity= /* Work with f+zeta in Coriolis */
(PID.TID 0000.0001)                   F
(PID.TID 0000.0001)     ;
(PID.TID 0000.0001) selectVortScheme= /* Scheme selector for Vorticity-Term */
(PID.TID 0000.0001)               123456789
(PID.TID 0000.0001)    = 0 : enstrophy (Shallow-Water Eq.) conserving scheme by Sadourny, JAS 75
(PID.TID 0000.0001)    = 1 : same as 0 with modified hFac
(PID.TID 0000.0001)    = 2 : energy conserving scheme (used by Sadourny in JAS 75 paper)
(PID.TID 0000.0001)    = 3 : energy (general) and enstrophy (2D, nonDiv.) conserving scheme
(PID.TID 0000.0001)          from Sadourny (Burridge & Haseler, ECMWF Rep.4, 1977)
(PID.TID 0000.0001)     ;
(PID.TID 0000.0001) upwindVorticity= /* Upwind bias vorticity flag */
(PID.TID 0000.0001)                   F
(PID.TID 0000.0001)     ;
(PID.TID 0000.0001) highOrderVorticity= /* High order interp. of vort. flag */
(PID.TID 0000.0001)                   F
(PID.TID 0000.0001)     ;
(PID.TID 0000.0001) upwindShear= /* Upwind vertical Shear advection flag */
(PID.TID 0000.0001)                   F
(PID.TID 0000.0001)     ;
(PID.TID 0000.0001) selectKEscheme= /* Kinetic Energy scheme selector */
(PID.TID 0000.0001)                       0
(PID.TID 0000.0001)     ;
(PID.TID 0000.0001) momForcing =  /* Momentum forcing on/off flag */
(PID.TID 0000.0001)                   T
(PID.TID 0000.0001)     ;
(PID.TID 0000.0001) momPressureForcing =  /* Momentum pressure term on/off flag */
(PID.TID 0000.0001)                   T
(PID.TID 0000.0001)     ;
(PID.TID 0000.0001) implicitIntGravWave= /* Implicit Internal Gravity Wave flag */
(PID.TID 0000.0001)                   F
(PID.TID 0000.0001)     ;
(PID.TID 0000.0001) staggerTimeStep =   /* Stagger time stepping on/off flag */
(PID.TID 0000.0001)                   F
(PID.TID 0000.0001)     ;
(PID.TID 0000.0001) multiDimAdvection =   /* enable/disable Multi-Dim Advection */
(PID.TID 0000.0001)                   T
(PID.TID 0000.0001)     ;
(PID.TID 0000.0001) useMultiDimAdvec =   /* Multi-Dim Advection is/is-not used */
(PID.TID 0000.0001)                   F
(PID.TID 0000.0001)     ;
(PID.TID 0000.0001) implicitDiffusion = /* Implicit Diffusion on/off flag */
(PID.TID 0000.0001)                   F
(PID.TID 0000.0001)     ;
(PID.TID 0000.0001) tempStepping =  /* Temperature equation on/off flag */
(PID.TID 0000.0001)                   T
(PID.TID 0000.0001)     ;
(PID.TID 0000.0001) tempAdvection=  /* Temperature advection on/off flag */
(PID.TID 0000.0001)                   T
(PID.TID 0000.0001)     ;
(PID.TID 0000.0001) tempImplVertAdv = /* Temp. implicit vert. advection on/off */
(PID.TID 0000.0001)                   F
(PID.TID 0000.0001)     ;
(PID.TID 0000.0001) tempForcing  =  /* Temperature forcing on/off flag */
(PID.TID 0000.0001)                   T
(PID.TID 0000.0001)     ;
(PID.TID 0000.0001) tempIsActiveTr = /* Temp. is a dynamically Active Tracer */
(PID.TID 0000.0001)                   T
(PID.TID 0000.0001)     ;
(PID.TID 0000.0001) saltStepping =  /* Salinity equation on/off flag */
(PID.TID 0000.0001)                   T
(PID.TID 0000.0001)     ;
(PID.TID 0000.0001) saltAdvection=  /* Salinity advection on/off flag */
(PID.TID 0000.0001)                   T
(PID.TID 0000.0001)     ;
(PID.TID 0000.0001) saltImplVertAdv = /* Sali. implicit vert. advection on/off */
(PID.TID 0000.0001)                   F
(PID.TID 0000.0001)     ;
(PID.TID 0000.0001) saltForcing  =  /* Salinity forcing on/off flag */
(PID.TID 0000.0001)                   T
(PID.TID 0000.0001)     ;
(PID.TID 0000.0001) saltIsActiveTr = /* Salt  is a dynamically Active Tracer */
(PID.TID 0000.0001)                   F
(PID.TID 0000.0001)     ;
(PID.TID 0000.0001)  readBinaryPrec = /* Precision used for reading binary files */
(PID.TID 0000.0001)                      64
(PID.TID 0000.0001)     ;
(PID.TID 0000.0001) writeBinaryPrec = /* Precision used for writing binary files */
(PID.TID 0000.0001)                      32
(PID.TID 0000.0001)     ;
(PID.TID 0000.0001)  globalFiles = /* write "global" (=not per tile) files */
(PID.TID 0000.0001)                   F
(PID.TID 0000.0001)     ;
(PID.TID 0000.0001)  useSingleCpuIO = /* only master MPI process does I/O */
(PID.TID 0000.0001)                   F
(PID.TID 0000.0001)     ;
(PID.TID 0000.0001)  debugMode  =  /* Debug Mode on/off flag */
(PID.TID 0000.0001)                   F
(PID.TID 0000.0001)     ;
(PID.TID 0000.0001)    debLevA  =  /* 1rst level of debugging */
(PID.TID 0000.0001)                       1
(PID.TID 0000.0001)     ;
(PID.TID 0000.0001)    debLevB  =  /* 2nd  level of debugging */
(PID.TID 0000.0001)                       2
(PID.TID 0000.0001)     ;
(PID.TID 0000.0001)  debugLevel =  /* select debugging level */
(PID.TID 0000.0001)                       1
(PID.TID 0000.0001)     ;
(PID.TID 0000.0001) //
(PID.TID 0000.0001) // Elliptic solver(s) paramters ( PARM02 in namelist )
(PID.TID 0000.0001) //
(PID.TID 0000.0001) cg2dMaxIters =   /* Upper limit on 2d con. grad iterations  */
(PID.TID 0000.0001)                    1000
(PID.TID 0000.0001)     ;
(PID.TID 0000.0001) cg2dChkResFreq =   /* 2d con. grad convergence test frequency */
(PID.TID 0000.0001)                       1
(PID.TID 0000.0001)     ;
(PID.TID 0000.0001) cg2dTargetResidual =   /* 2d con. grad target residual  */
(PID.TID 0000.0001)                 1.000000000000000E-13
(PID.TID 0000.0001)     ;
(PID.TID 0000.0001) cg2dTargetResWunit =   /* CG2d target residual [W units] */
(PID.TID 0000.0001)                -1.000000000000000E+00
(PID.TID 0000.0001)     ;
(PID.TID 0000.0001) cg2dPreCondFreq =   /* Freq. for updating cg2d preconditioner */
(PID.TID 0000.0001)                       1
(PID.TID 0000.0001)     ;
(PID.TID 0000.0001) useSRCGSolver =  /* use single reduction CG solver(s) */
(PID.TID 0000.0001)                   F
(PID.TID 0000.0001)     ;
(PID.TID 0000.0001) //
(PID.TID 0000.0001) // Time stepping paramters ( PARM03 in namelist )
(PID.TID 0000.0001) //
(PID.TID 0000.0001) deltaTmom =   /* Momentum equation timestep ( s ) */
(PID.TID 0000.0001)                 6.000000000000000E+02
(PID.TID 0000.0001)     ;
(PID.TID 0000.0001) deltaTfreesurf = /* FreeSurface equation timestep ( s ) */
(PID.TID 0000.0001)                 6.000000000000000E+02
(PID.TID 0000.0001)     ;
(PID.TID 0000.0001) dTtracerLev =  /* Tracer equation timestep ( s ) */
(PID.TID 0000.0001)     8 @  6.000000000000000E+02              /* K =  1:  8 */
(PID.TID 0000.0001)     ;
(PID.TID 0000.0001) deltaTClock  =   /* Model clock timestep ( s ) */
(PID.TID 0000.0001)                 6.000000000000000E+02
(PID.TID 0000.0001)     ;
(PID.TID 0000.0001) cAdjFreq =   /* Convective adjustment interval ( s ) */
(PID.TID 0000.0001)                 0.000000000000000E+00
(PID.TID 0000.0001)     ;
(PID.TID 0000.0001) momForcingOutAB = /* =1: take Momentum Forcing out of Adams-Bash. stepping */
(PID.TID 0000.0001)                       0
(PID.TID 0000.0001)     ;
(PID.TID 0000.0001) tracForcingOutAB = /* =1: take T,S,pTr Forcing out of Adams-Bash. stepping */
(PID.TID 0000.0001)                       0
(PID.TID 0000.0001)     ;
(PID.TID 0000.0001) momDissip_In_AB = /* put Dissipation Tendency in Adams-Bash. stepping */
(PID.TID 0000.0001)                   F
(PID.TID 0000.0001)     ;
(PID.TID 0000.0001) doAB_onGtGs = /* apply AB on Tendencies (rather than on T,S)*/
(PID.TID 0000.0001)                   T
(PID.TID 0000.0001)     ;
(PID.TID 0000.0001) abEps =   /* Adams-Bashforth-2 stabilizing weight */
(PID.TID 0000.0001)                 1.000000000000000E-01
(PID.TID 0000.0001)     ;
(PID.TID 0000.0001) pickupStrictlyMatch= /* stop if pickup do not strictly match */
(PID.TID 0000.0001)                   T
(PID.TID 0000.0001)     ;
(PID.TID 0000.0001) nIter0   =   /* Run starting timestep number */
(PID.TID 0000.0001)                       0
(PID.TID 0000.0001)     ;
(PID.TID 0000.0001) nTimeSteps = /* Number of timesteps */
(PID.TID 0000.0001)                      10
(PID.TID 0000.0001)     ;
(PID.TID 0000.0001) nEndIter =   /* Run ending timestep number */
(PID.TID 0000.0001)                      10
(PID.TID 0000.0001)     ;
(PID.TID 0000.0001) baseTime =   /* Model base time ( s ) */
(PID.TID 0000.0001)                 1.080000000000000E+04
(PID.TID 0000.0001)     ;
(PID.TID 0000.0001) startTime =  /* Run start time ( s ) */
(PID.TID 0000.0001)                 1.080000000000000E+04
(PID.TID 0000.0001)     ;
(PID.TID 0000.0001) endTime  =   /* Integration ending time ( s ) */
(PID.TID 0000.0001)                 1.680000000000000E+04
(PID.TID 0000.0001)     ;
(PID.TID 0000.0001) pChkPtFreq = /* Permanent restart/pickup file interval ( s ) */
(PID.TID 0000.0001)                 0.000000000000000E+00
(PID.TID 0000.0001)     ;
(PID.TID 0000.0001) chkPtFreq  = /* Rolling restart/pickup file interval ( s ) */
(PID.TID 0000.0001)                 0.000000000000000E+00
(PID.TID 0000.0001)     ;
(PID.TID 0000.0001) pickup_write_mdsio =   /* Model IO flag. */
(PID.TID 0000.0001)                   T
(PID.TID 0000.0001)     ;
(PID.TID 0000.0001) pickup_read_mdsio =   /* Model IO flag. */
(PID.TID 0000.0001)                   T
(PID.TID 0000.0001)     ;
(PID.TID 0000.0001) pickup_write_immed =   /* Model IO flag. */
(PID.TID 0000.0001)                   F
(PID.TID 0000.0001)     ;
(PID.TID 0000.0001) writePickupAtEnd =   /* Model IO flag. */
(PID.TID 0000.0001)                   T
(PID.TID 0000.0001)     ;
(PID.TID 0000.0001) dumpFreq =   /* Model state write out interval ( s ). */
(PID.TID 0000.0001)                 1.080000000000000E+04
(PID.TID 0000.0001)     ;
(PID.TID 0000.0001) dumpInitAndLast= /* write out Initial & Last iter. model state */
(PID.TID 0000.0001)                   T
(PID.TID 0000.0001)     ;
(PID.TID 0000.0001) snapshot_mdsio =   /* Model IO flag. */
(PID.TID 0000.0001)                   T
(PID.TID 0000.0001)     ;
(PID.TID 0000.0001) monitorFreq =   /* Monitor output interval ( s ). */
(PID.TID 0000.0001)                 1.000000000000000E+00
(PID.TID 0000.0001)     ;
(PID.TID 0000.0001) monitorSelect = /* select group of variables to monitor */
(PID.TID 0000.0001)                       2
(PID.TID 0000.0001)     ;
(PID.TID 0000.0001) monitor_stdio =   /* Model IO flag. */
(PID.TID 0000.0001)                   T
(PID.TID 0000.0001)     ;
(PID.TID 0000.0001) externForcingPeriod =   /* forcing period (s) */
(PID.TID 0000.0001)                 2.160000000000000E+04
(PID.TID 0000.0001)     ;
(PID.TID 0000.0001) externForcingCycle =   /* period of the cyle (s). */
(PID.TID 0000.0001)                 4.320000000000000E+04
(PID.TID 0000.0001)     ;
(PID.TID 0000.0001) tauThetaClimRelax =   /* relaxation time scale (s) */
(PID.TID 0000.0001)                 0.000000000000000E+00
(PID.TID 0000.0001)     ;
(PID.TID 0000.0001) tauSaltClimRelax =   /* relaxation time scale (s) */
(PID.TID 0000.0001)                 0.000000000000000E+00
(PID.TID 0000.0001)     ;
(PID.TID 0000.0001) latBandClimRelax =   /* max. Lat. where relaxation */
(PID.TID 0000.0001)                 6.300000000000000E+05
(PID.TID 0000.0001)     ;
(PID.TID 0000.0001) //
(PID.TID 0000.0001) // Gridding paramters ( PARM04 in namelist )
(PID.TID 0000.0001) //
(PID.TID 0000.0001) usingCartesianGrid = /* Cartesian coordinates flag ( True/False ) */
(PID.TID 0000.0001)                   T
(PID.TID 0000.0001)     ;
(PID.TID 0000.0001) usingCylindricalGrid = /* Cylindrical coordinates flag ( True/False ) */
(PID.TID 0000.0001)                   F
(PID.TID 0000.0001)     ;
(PID.TID 0000.0001) usingSphericalPolarGrid = /* Spherical coordinates flag ( True/False ) */
(PID.TID 0000.0001)                   F
(PID.TID 0000.0001)     ;
(PID.TID 0000.0001) usingCurvilinearGrid = /* Curvilinear coordinates flag ( True/False ) */
(PID.TID 0000.0001)                   F
(PID.TID 0000.0001)     ;
(PID.TID 0000.0001) selectSigmaCoord = /* Hybrid-Sigma Vert. Coordinate option */
(PID.TID 0000.0001)                       0
(PID.TID 0000.0001)     ;
(PID.TID 0000.0001) Ro_SeaLevel = /* r(1) ( units of r ==  m ) */
(PID.TID 0000.0001)                 0.000000000000000E+00
(PID.TID 0000.0001)     ;
(PID.TID 0000.0001) rSigmaBnd = /* r/sigma transition ( units of r ==  m ) */
(PID.TID 0000.0001)                 1.234567000000000E+05
(PID.TID 0000.0001)     ;
(PID.TID 0000.0001) rkSign =   /* index orientation relative to vertical coordinate */
(PID.TID 0000.0001)                -1.000000000000000E+00
(PID.TID 0000.0001)     ;
(PID.TID 0000.0001) gravitySign = /* gravity orientation relative to vertical coordinate */
(PID.TID 0000.0001)                -1.000000000000000E+00
(PID.TID 0000.0001)     ;
(PID.TID 0000.0001) mass2rUnit = /* convert mass per unit area [kg/m2] to r-units [m] */
(PID.TID 0000.0001)                 1.000200040008002E-03
(PID.TID 0000.0001)     ;
(PID.TID 0000.0001) rUnit2mass = /* convert r-units [m] to mass per unit area [kg/m2] */
(PID.TID 0000.0001)                 9.998000000000000E+02
(PID.TID 0000.0001)     ;
(PID.TID 0000.0001) drC =   /* C spacing ( units of r ) */
(PID.TID 0000.0001)                 2.812500000000000E+02,      /* K =  1 */
(PID.TID 0000.0001)     7 @  5.625000000000000E+02              /* K =  2:  8 */
(PID.TID 0000.0001)     ;
(PID.TID 0000.0001) drF =   /* W spacing ( units of r ) */
(PID.TID 0000.0001)     8 @  5.625000000000000E+02              /* K =  1:  8 */
(PID.TID 0000.0001)     ;
(PID.TID 0000.0001) delX = /* U spacing ( m - cartesian, degrees - spherical ) */
(PID.TID 0000.0001)    80 @  5.000000000000000E+03              /* I =  1: 80 */
(PID.TID 0000.0001)     ;
(PID.TID 0000.0001) delY = /* V spacing ( m - cartesian, degrees - spherical ) */
(PID.TID 0000.0001)    42 @  5.000000000000000E+03              /* J =  1: 42 */
(PID.TID 0000.0001)     ;
(PID.TID 0000.0001) xgOrigin = /* X-axis origin of West  edge (cartesian: m, lat-lon: deg.) */
(PID.TID 0000.0001)                 0.000000000000000E+00
(PID.TID 0000.0001)     ;
(PID.TID 0000.0001) ygOrigin = /* Y-axis origin of South edge (cartesian: m, lat-lon: deg.) */
(PID.TID 0000.0001)                 0.000000000000000E+00
(PID.TID 0000.0001)     ;
(PID.TID 0000.0001) rSphere =  /* Radius ( ignored - cartesian, m - spherical ) */
(PID.TID 0000.0001)                 6.370000000000000E+06
(PID.TID 0000.0001)     ;
(PID.TID 0000.0001) deepAtmosphere = /* Deep/Shallow Atmosphere flag (True/False) */
(PID.TID 0000.0001)                   F
(PID.TID 0000.0001)     ;
(PID.TID 0000.0001) xC =  /* xC(:,1,:,1) : P-point X coord ( deg. or m if cartesian) */
(PID.TID 0000.0001)                 2.500000000000000E+03,      /* I =  1 */
(PID.TID 0000.0001)                 7.500000000000000E+03,      /* I =  2 */
(PID.TID 0000.0001)                 1.250000000000000E+04,      /* I =  3 */
(PID.TID 0000.0001)      . . .
(PID.TID 0000.0001)                 8.750000000000000E+04,      /* I = 18 */
(PID.TID 0000.0001)                 9.250000000000000E+04,      /* I = 19 */
(PID.TID 0000.0001)                 9.750000000000000E+04,      /* I = 20 */
(PID.TID 0000.0001)                 1.025000000000000E+05,      /* I = 21 */
(PID.TID 0000.0001)                 1.075000000000000E+05,      /* I = 22 */
(PID.TID 0000.0001)                 1.125000000000000E+05,      /* I = 23 */
(PID.TID 0000.0001)      . . .
(PID.TID 0000.0001)                 1.875000000000000E+05,      /* I = 38 */
(PID.TID 0000.0001)                 1.925000000000000E+05,      /* I = 39 */
(PID.TID 0000.0001)                 1.975000000000000E+05,      /* I = 40 */
(PID.TID 0000.0001)                 2.025000000000000E+05,      /* I = 41 */
(PID.TID 0000.0001)                 2.075000000000000E+05,      /* I = 42 */
(PID.TID 0000.0001)                 2.125000000000000E+05,      /* I = 43 */
(PID.TID 0000.0001)      . . .
(PID.TID 0000.0001)                 2.875000000000000E+05,      /* I = 58 */
(PID.TID 0000.0001)                 2.925000000000000E+05,      /* I = 59 */
(PID.TID 0000.0001)                 2.975000000000000E+05,      /* I = 60 */
(PID.TID 0000.0001)                 3.025000000000000E+05,      /* I = 61 */
(PID.TID 0000.0001)                 3.075000000000000E+05,      /* I = 62 */
(PID.TID 0000.0001)                 3.125000000000000E+05,      /* I = 63 */
(PID.TID 0000.0001)      . . .
(PID.TID 0000.0001)                 3.875000000000000E+05,      /* I = 78 */
(PID.TID 0000.0001)                 3.925000000000000E+05,      /* I = 79 */
(PID.TID 0000.0001)                 3.975000000000000E+05       /* I = 80 */
(PID.TID 0000.0001)     ;
(PID.TID 0000.0001) yC =  /* yC(1,:,1,:) : P-point Y coord ( deg. or m if cartesian) */
(PID.TID 0000.0001)                 2.500000000000000E+03,      /* J =  1 */
(PID.TID 0000.0001)                 7.500000000000000E+03,      /* J =  2 */
(PID.TID 0000.0001)                 1.250000000000000E+04,      /* J =  3 */
(PID.TID 0000.0001)                 1.750000000000000E+04,      /* J =  4 */
(PID.TID 0000.0001)                 2.250000000000000E+04,      /* J =  5 */
(PID.TID 0000.0001)                 2.750000000000000E+04,      /* J =  6 */
(PID.TID 0000.0001)                 3.250000000000000E+04,      /* J =  7 */
(PID.TID 0000.0001)                 3.750000000000000E+04,      /* J =  8 */
(PID.TID 0000.0001)                 4.250000000000000E+04,      /* J =  9 */
(PID.TID 0000.0001)                 4.750000000000000E+04,      /* J = 10 */
(PID.TID 0000.0001)                 5.250000000000000E+04,      /* J = 11 */
(PID.TID 0000.0001)                 5.750000000000000E+04,      /* J = 12 */
(PID.TID 0000.0001)                 6.250000000000000E+04,      /* J = 13 */
(PID.TID 0000.0001)                 6.750000000000000E+04,      /* J = 14 */
(PID.TID 0000.0001)                 7.250000000000000E+04,      /* J = 15 */
(PID.TID 0000.0001)                 7.750000000000000E+04,      /* J = 16 */
(PID.TID 0000.0001)                 8.250000000000000E+04,      /* J = 17 */
(PID.TID 0000.0001)                 8.750000000000000E+04,      /* J = 18 */
(PID.TID 0000.0001)                 9.250000000000000E+04,      /* J = 19 */
(PID.TID 0000.0001)                 9.750000000000000E+04,      /* J = 20 */
(PID.TID 0000.0001)                 1.025000000000000E+05,      /* J = 21 */
(PID.TID 0000.0001)                 1.075000000000000E+05,      /* J = 22 */
(PID.TID 0000.0001)                 1.125000000000000E+05,      /* J = 23 */
(PID.TID 0000.0001)                 1.175000000000000E+05,      /* J = 24 */
(PID.TID 0000.0001)                 1.225000000000000E+05,      /* J = 25 */
(PID.TID 0000.0001)                 1.275000000000000E+05,      /* J = 26 */
(PID.TID 0000.0001)                 1.325000000000000E+05,      /* J = 27 */
(PID.TID 0000.0001)                 1.375000000000000E+05,      /* J = 28 */
(PID.TID 0000.0001)                 1.425000000000000E+05,      /* J = 29 */
(PID.TID 0000.0001)                 1.475000000000000E+05,      /* J = 30 */
(PID.TID 0000.0001)                 1.525000000000000E+05,      /* J = 31 */
(PID.TID 0000.0001)                 1.575000000000000E+05,      /* J = 32 */
(PID.TID 0000.0001)                 1.625000000000000E+05,      /* J = 33 */
(PID.TID 0000.0001)                 1.675000000000000E+05,      /* J = 34 */
(PID.TID 0000.0001)                 1.725000000000000E+05,      /* J = 35 */
(PID.TID 0000.0001)                 1.775000000000000E+05,      /* J = 36 */
(PID.TID 0000.0001)                 1.825000000000000E+05,      /* J = 37 */
(PID.TID 0000.0001)                 1.875000000000000E+05,      /* J = 38 */
(PID.TID 0000.0001)                 1.925000000000000E+05,      /* J = 39 */
(PID.TID 0000.0001)                 1.975000000000000E+05,      /* J = 40 */
(PID.TID 0000.0001)                 2.025000000000000E+05,      /* J = 41 */
(PID.TID 0000.0001)                 2.075000000000000E+05       /* J = 42 */
(PID.TID 0000.0001)     ;
(PID.TID 0000.0001) rcoord = /* P-point R coordinate (  units of r ) */
(PID.TID 0000.0001)                -2.812500000000000E+02,      /* K =  1 */
(PID.TID 0000.0001)                -8.437500000000000E+02,      /* K =  2 */
(PID.TID 0000.0001)                -1.406250000000000E+03,      /* K =  3 */
(PID.TID 0000.0001)                -1.968750000000000E+03,      /* K =  4 */
(PID.TID 0000.0001)                -2.531250000000000E+03,      /* K =  5 */
(PID.TID 0000.0001)                -3.093750000000000E+03,      /* K =  6 */
(PID.TID 0000.0001)                -3.656250000000000E+03,      /* K =  7 */
(PID.TID 0000.0001)                -4.218750000000000E+03       /* K =  8 */
(PID.TID 0000.0001)     ;
(PID.TID 0000.0001) rF =   /* W-Interf. R coordinate (  units of r ) */
(PID.TID 0000.0001)                 0.000000000000000E+00,      /* K =  1 */
(PID.TID 0000.0001)                -5.625000000000000E+02,      /* K =  2 */
(PID.TID 0000.0001)                -1.125000000000000E+03,      /* K =  3 */
(PID.TID 0000.0001)                -1.687500000000000E+03,      /* K =  4 */
(PID.TID 0000.0001)                -2.250000000000000E+03,      /* K =  5 */
(PID.TID 0000.0001)                -2.812500000000000E+03,      /* K =  6 */
(PID.TID 0000.0001)                -3.375000000000000E+03,      /* K =  7 */
(PID.TID 0000.0001)                -3.937500000000000E+03,      /* K =  8 */
(PID.TID 0000.0001)                -4.500000000000000E+03       /* K =  9 */
(PID.TID 0000.0001)     ;
(PID.TID 0000.0001) deepFacC = /* deep-model grid factor @ cell-Center (-) */
(PID.TID 0000.0001)     8 @  1.000000000000000E+00              /* K =  1:  8 */
(PID.TID 0000.0001)     ;
(PID.TID 0000.0001) deepFacF = /* deep-model grid factor @ W-Interface (-) */
(PID.TID 0000.0001)     9 @  1.000000000000000E+00              /* K =  1:  9 */
(PID.TID 0000.0001)     ;
(PID.TID 0000.0001) rVel2wUnit = /* convert units: rVel -> wSpeed (=1 if z-coord)*/
(PID.TID 0000.0001)     9 @  1.000000000000000E+00              /* K =  1:  9 */
(PID.TID 0000.0001)     ;
(PID.TID 0000.0001) wUnit2rVel = /* convert units: wSpeed -> rVel (=1 if z-coord)*/
(PID.TID 0000.0001)     9 @  1.000000000000000E+00              /* K =  1:  9 */
(PID.TID 0000.0001)     ;
(PID.TID 0000.0001) dBdrRef = /* Vertical grad. of reference buoyancy [(m/s/r)^2] */
(PID.TID 0000.0001)                 0.000000000000000E+00,      /* K =  1 */
(PID.TID 0000.0001)                 6.944468479999999E-07,      /* K =  2 */
(PID.TID 0000.0001)                 6.944433600000000E-07,      /* K =  3 */
(PID.TID 0000.0001)                 6.944444064000000E-07,      /* K =  4 */
(PID.TID 0000.0001)                 6.944447552000002E-07,      /* K =  5 */
(PID.TID 0000.0001)                 6.944444064000000E-07,      /* K =  6 */
(PID.TID 0000.0001)                 6.944433600000000E-07,      /* K =  7 */
(PID.TID 0000.0001)                 6.944468479999999E-07       /* K =  8 */
(PID.TID 0000.0001)     ;
(PID.TID 0000.0001) rotateGrid = /* use rotated grid ( True/False ) */
(PID.TID 0000.0001)                   F
(PID.TID 0000.0001)     ;
(PID.TID 0000.0001) phiEuler = /* Euler angle, rotation about original z-coordinate [rad] */
(PID.TID 0000.0001)                 0.000000000000000E+00
(PID.TID 0000.0001)     ;
(PID.TID 0000.0001) thetaEuler = /* Euler angle, rotation about new x-coordinate [rad] */
(PID.TID 0000.0001)                 0.000000000000000E+00
(PID.TID 0000.0001)     ;
(PID.TID 0000.0001) psiEuler = /* Euler angle, rotation about new z-coordinate [rad] */
(PID.TID 0000.0001)                 0.000000000000000E+00
(PID.TID 0000.0001)     ;
(PID.TID 0000.0001) dxF =  /* dxF(:,1,:,1) ( units: m ) */
(PID.TID 0000.0001)    80 @  5.000000000000000E+03              /* I =  1: 80 */
(PID.TID 0000.0001)     ;
(PID.TID 0000.0001) dxF =  /* dxF(1,:,1,:) ( units: m ) */
(PID.TID 0000.0001)    42 @  5.000000000000000E+03              /* J =  1: 42 */
(PID.TID 0000.0001)     ;
(PID.TID 0000.0001) dyF =  /* dyF(:,1,:,1) ( units: m ) */
(PID.TID 0000.0001)    80 @  5.000000000000000E+03              /* I =  1: 80 */
(PID.TID 0000.0001)     ;
(PID.TID 0000.0001) dyF =  /* dyF(1,:,1,:) ( units: m ) */
(PID.TID 0000.0001)    42 @  5.000000000000000E+03              /* J =  1: 42 */
(PID.TID 0000.0001)     ;
(PID.TID 0000.0001) dxG =  /* dxG(:,1,:,1) ( units: m ) */
(PID.TID 0000.0001)    80 @  5.000000000000000E+03              /* I =  1: 80 */
(PID.TID 0000.0001)     ;
(PID.TID 0000.0001) dxG =  /* dxG(1,:,1,:) ( units: m ) */
(PID.TID 0000.0001)    42 @  5.000000000000000E+03              /* J =  1: 42 */
(PID.TID 0000.0001)     ;
(PID.TID 0000.0001) dyG =  /* dyG(:,1,:,1) ( units: m ) */
(PID.TID 0000.0001)    80 @  5.000000000000000E+03              /* I =  1: 80 */
(PID.TID 0000.0001)     ;
(PID.TID 0000.0001) dyG =  /* dyG(1,:,1,:) ( units: m ) */
(PID.TID 0000.0001)    42 @  5.000000000000000E+03              /* J =  1: 42 */
(PID.TID 0000.0001)     ;
(PID.TID 0000.0001) dxC =  /* dxC(:,1,:,1) ( units: m ) */
(PID.TID 0000.0001)    80 @  5.000000000000000E+03              /* I =  1: 80 */
(PID.TID 0000.0001)     ;
(PID.TID 0000.0001) dxC =  /* dxC(1,:,1,:) ( units: m ) */
(PID.TID 0000.0001)    42 @  5.000000000000000E+03              /* J =  1: 42 */
(PID.TID 0000.0001)     ;
(PID.TID 0000.0001) dyC =  /* dyC(:,1,:,1) ( units: m ) */
(PID.TID 0000.0001)    80 @  5.000000000000000E+03              /* I =  1: 80 */
(PID.TID 0000.0001)     ;
(PID.TID 0000.0001) dyC =  /* dyC(1,:,1,:) ( units: m ) */
(PID.TID 0000.0001)    42 @  5.000000000000000E+03              /* J =  1: 42 */
(PID.TID 0000.0001)     ;
(PID.TID 0000.0001) dxV =  /* dxV(:,1,:,1) ( units: m ) */
(PID.TID 0000.0001)    80 @  5.000000000000000E+03              /* I =  1: 80 */
(PID.TID 0000.0001)     ;
(PID.TID 0000.0001) dxV =  /* dxV(1,:,1,:) ( units: m ) */
(PID.TID 0000.0001)    42 @  5.000000000000000E+03              /* J =  1: 42 */
(PID.TID 0000.0001)     ;
(PID.TID 0000.0001) dyU =  /* dyU(:,1,:,1) ( units: m ) */
(PID.TID 0000.0001)    80 @  5.000000000000000E+03              /* I =  1: 80 */
(PID.TID 0000.0001)     ;
(PID.TID 0000.0001) dyU =  /* dyU(1,:,1,:) ( units: m ) */
(PID.TID 0000.0001)    42 @  5.000000000000000E+03              /* J =  1: 42 */
(PID.TID 0000.0001)     ;
(PID.TID 0000.0001) rA  =  /* rA (:,1,:,1) ( units: m^2 ) */
(PID.TID 0000.0001)    80 @  2.500000000000000E+07              /* I =  1: 80 */
(PID.TID 0000.0001)     ;
(PID.TID 0000.0001) rA  =  /* rA (1,:,1,:) ( units: m^2 ) */
(PID.TID 0000.0001)    42 @  2.500000000000000E+07              /* J =  1: 42 */
(PID.TID 0000.0001)     ;
(PID.TID 0000.0001) rAw =  /* rAw(:,1,:,1) ( units: m^2 ) */
(PID.TID 0000.0001)    80 @  2.500000000000000E+07              /* I =  1: 80 */
(PID.TID 0000.0001)     ;
(PID.TID 0000.0001) rAw =  /* rAw(1,:,1,:) ( units: m^2 ) */
(PID.TID 0000.0001)    42 @  2.500000000000000E+07              /* J =  1: 42 */
(PID.TID 0000.0001)     ;
(PID.TID 0000.0001) rAs =  /* rAs(:,1,:,1) ( units: m^2 ) */
(PID.TID 0000.0001)    80 @  2.500000000000000E+07              /* I =  1: 80 */
(PID.TID 0000.0001)     ;
(PID.TID 0000.0001) rAs =  /* rAs(1,:,1,:) ( units: m^2 ) */
(PID.TID 0000.0001)    42 @  2.500000000000000E+07              /* J =  1: 42 */
(PID.TID 0000.0001)     ;
(PID.TID 0000.0001) globalArea = /* Integrated horizontal Area (m^2) */
(PID.TID 0000.0001)                 7.800000000000000E+10
(PID.TID 0000.0001)     ;
(PID.TID 0000.0001) // =======================================================
(PID.TID 0000.0001) // End of Model config. summary
(PID.TID 0000.0001) // =======================================================
(PID.TID 0000.0001) 
(PID.TID 0000.0001) == Packages configuration : Check & print summary ==
(PID.TID 0000.0001) 
(PID.TID 0000.0001) OBCS_CHECK: #define ALLOW_OBCS
(PID.TID 0000.0001) OBCS_CHECK: start summary:
(PID.TID 0000.0001) useOBCSbalance = /* balance the flow through OB */
(PID.TID 0000.0001)                   F
(PID.TID 0000.0001)     ;
(PID.TID 0000.0001) OBCS_uvApplyFac = /* Factor to apply to U,V 2nd column/row */
(PID.TID 0000.0001)                 1.000000000000000E+00
(PID.TID 0000.0001)     ;
(PID.TID 0000.0001) OBCS_monitorFreq = /* monitor output frequency [s] */
(PID.TID 0000.0001)                 1.200000000000000E+03
(PID.TID 0000.0001)     ;
(PID.TID 0000.0001) OBCS_monSelect = /* select group of variables to monitor */
(PID.TID 0000.0001)                       1
(PID.TID 0000.0001)     ;
(PID.TID 0000.0001) ======== Tile bi=   1 , bj=   1 ========
(PID.TID 0000.0001)  OB_Jn = /* Northern OB local indices */
(PID.TID 0000.0001)    46 @        0                            /* I = -2: 43 */
(PID.TID 0000.0001)  OB_Js = /* Southern OB local indices */
(PID.TID 0000.0001)    46 @        1                            /* I = -2: 43 */
(PID.TID 0000.0001)  OB_Ie = /* Eastern OB local indices */
(PID.TID 0000.0001)    27 @        0                            /* J = -2: 24 */
(PID.TID 0000.0001)  OB_Iw = /* Western OB local indices */
(PID.TID 0000.0001)    27 @        1                            /* J = -2: 24 */
(PID.TID 0000.0001) ======== Tile bi=   2 , bj=   1 ========
(PID.TID 0000.0001)  OB_Jn = /* Northern OB local indices */
(PID.TID 0000.0001)    46 @        0                            /* I = -2: 43 */
(PID.TID 0000.0001)  OB_Js = /* Southern OB local indices */
(PID.TID 0000.0001)    46 @        1                            /* I = -2: 43 */
(PID.TID 0000.0001)  OB_Ie = /* Eastern OB local indices */
(PID.TID 0000.0001)    27 @       40                            /* J = -2: 24 */
(PID.TID 0000.0001)  OB_Iw = /* Western OB local indices */
(PID.TID 0000.0001)    27 @        0                            /* J = -2: 24 */
(PID.TID 0000.0001) ======== Tile bi=   1 , bj=   2 ========
(PID.TID 0000.0001)  OB_Jn = /* Northern OB local indices */
(PID.TID 0000.0001)    46 @       21                            /* I = -2: 43 */
(PID.TID 0000.0001)  OB_Js = /* Southern OB local indices */
(PID.TID 0000.0001)    46 @        0                            /* I = -2: 43 */
(PID.TID 0000.0001)  OB_Ie = /* Eastern OB local indices */
(PID.TID 0000.0001)    27 @        0                            /* J = -2: 24 */
(PID.TID 0000.0001)  OB_Iw = /* Western OB local indices */
(PID.TID 0000.0001)    27 @        1                            /* J = -2: 24 */
(PID.TID 0000.0001) ======== Tile bi=   2 , bj=   2 ========
(PID.TID 0000.0001)  OB_Jn = /* Northern OB local indices */
(PID.TID 0000.0001)    46 @       21                            /* I = -2: 43 */
(PID.TID 0000.0001)  OB_Js = /* Southern OB local indices */
(PID.TID 0000.0001)    46 @        0                            /* I = -2: 43 */
(PID.TID 0000.0001)  OB_Ie = /* Eastern OB local indices */
(PID.TID 0000.0001)    27 @       40                            /* J = -2: 24 */
(PID.TID 0000.0001)  OB_Iw = /* Western OB local indices */
(PID.TID 0000.0001)    27 @        0                            /* J = -2: 24 */
(PID.TID 0000.0001) OBCS_CHECK: end summary.
(PID.TID 0000.0001) OBCS_CHECK: #define ALLOW_ORLANSKI
(PID.TID 0000.0001) OBCS_CHECK: set-up OK
(PID.TID 0000.0001) OBCS_CHECK: check Inside Mask and OB locations: OK
(PID.TID 0000.0001) GAD_CHECK: #define ALLOW_GENERIC_ADVDIFF
(PID.TID 0000.0001) // =======================================================
(PID.TID 0000.0001) // CONFIG_CHECK : Normal End
(PID.TID 0000.0001) // =======================================================
(PID.TID 0000.0001) 
(PID.TID 0000.0001) Start initial hydrostatic pressure computation
(PID.TID 0000.0001) Pressure is predetermined for buoyancyRelation OCEANIC
(PID.TID 0000.0001) 
 OBCS_FIELDS_LOAD,         0 : iP,iLd,i0,i1=    2    0    1    2 ; Wght=  1.0000000000  0.0000000000
 OBCS_FIELDS_LOAD, it=         0 : Reading new data, i0,i1=    1    2 (prev=    2    0 )
(PID.TID 0000.0001)  MDS_READ_SEC_YZ: opening global file: OB_EastU.bin
(PID.TID 0000.0001)  MDS_READ_SEC_YZ: opening global file: OB_EastU.bin
(PID.TID 0000.0001)  MDS_READ_SEC_YZ: opening global file: OB_WestU.bin
(PID.TID 0000.0001)  MDS_READ_SEC_YZ: opening global file: OB_WestU.bin
(PID.TID 0000.0001)  MDS_READ_SEC_YZ: opening global file: OBzonalS.bin
(PID.TID 0000.0001)  MDS_READ_SEC_YZ: opening global file: OBzonalS.bin
(PID.TID 0000.0001)  MDS_READ_SEC_YZ: opening global file: OBzonalW.bin
(PID.TID 0000.0001)  MDS_READ_SEC_YZ: opening global file: OBzonalW.bin
(PID.TID 0000.0001)  MDS_READ_SEC_XZ: opening global file: OBmeridU.bin
(PID.TID 0000.0001)  MDS_READ_SEC_XZ: opening global file: OBmeridU.bin
(PID.TID 0000.0001)  MDS_READ_SEC_XZ: opening global file: OBmeridU.bin
(PID.TID 0000.0001)  MDS_READ_SEC_XZ: opening global file: OBmeridU.bin
(PID.TID 0000.0001)  MDS_READ_SEC_YZ: opening global file: OBzonalS.bin
(PID.TID 0000.0001)  MDS_READ_SEC_YZ: opening global file: OBzonalS.bin
(PID.TID 0000.0001) // =======================================================
(PID.TID 0000.0001) // Model current state
(PID.TID 0000.0001) // =======================================================
(PID.TID 0000.0001) 
(PID.TID 0000.0001) // =======================================================
(PID.TID 0000.0001) // Begin MONITOR dynamic field statistics
(PID.TID 0000.0001) // =======================================================
(PID.TID 0000.0001) %MON time_tsnumber                =                     0
(PID.TID 0000.0001) %MON time_secondsf                =   1.0800000000000E+04
(PID.TID 0000.0001) %MON dynstat_eta_max              =   0.0000000000000E+00
(PID.TID 0000.0001) %MON dynstat_eta_min              =   0.0000000000000E+00
(PID.TID 0000.0001) %MON dynstat_eta_mean             =   0.0000000000000E+00
(PID.TID 0000.0001) %MON dynstat_eta_sd               =   0.0000000000000E+00
(PID.TID 0000.0001) %MON dynstat_eta_del2             =   0.0000000000000E+00
(PID.TID 0000.0001) %MON dynstat_uvel_max             =   2.5250000000000E-01
(PID.TID 0000.0001) %MON dynstat_uvel_min             =   0.0000000000000E+00
(PID.TID 0000.0001) %MON dynstat_uvel_mean            =   6.6507519863536E-03
(PID.TID 0000.0001) %MON dynstat_uvel_sd              =   4.0232098670141E-02
(PID.TID 0000.0001) %MON dynstat_uvel_del2            =   5.1389523709943E-04
(PID.TID 0000.0001) %MON dynstat_vvel_max             =   0.0000000000000E+00
(PID.TID 0000.0001) %MON dynstat_vvel_min             =   0.0000000000000E+00
(PID.TID 0000.0001) %MON dynstat_vvel_mean            =   0.0000000000000E+00
(PID.TID 0000.0001) %MON dynstat_vvel_sd              =   0.0000000000000E+00
(PID.TID 0000.0001) %MON dynstat_vvel_del2            =   0.0000000000000E+00
(PID.TID 0000.0001) %MON dynstat_wvel_max             =   2.2725000000000E-01
(PID.TID 0000.0001) %MON dynstat_wvel_min             =  -2.2275000000000E-01
(PID.TID 0000.0001) %MON dynstat_wvel_mean            =   3.1971580817049E-05
(PID.TID 0000.0001) %MON dynstat_wvel_sd              =   2.1985624661105E-02
(PID.TID 0000.0001) %MON dynstat_wvel_del2            =   3.3555850330389E-04
(PID.TID 0000.0001) %MON dynstat_theta_max            =   6.9683400000000E-01
(PID.TID 0000.0001) %MON dynstat_theta_min            =  -6.9683400000000E-01
(PID.TID 0000.0001) %MON dynstat_theta_mean           =   2.0290053818661E-02
(PID.TID 0000.0001) %MON dynstat_theta_sd             =   4.5211958569214E-01
(PID.TID 0000.0001) %MON dynstat_theta_del2           =   0.0000000000000E+00
(PID.TID 0000.0001) %MON dynstat_salt_max             =   3.5000000000000E+01
(PID.TID 0000.0001) %MON dynstat_salt_min             =   3.5000000000000E+01
(PID.TID 0000.0001) %MON dynstat_salt_mean            =   3.5000000000000E+01
(PID.TID 0000.0001) %MON dynstat_salt_sd              =   1.1368683772162E-13
(PID.TID 0000.0001) %MON dynstat_salt_del2            =   7.4287972674412E-04
(PID.TID 0000.0001) %MON advcfl_uvel_max              =   3.0300000000000E-02
(PID.TID 0000.0001) %MON advcfl_vvel_max              =   0.0000000000000E+00
(PID.TID 0000.0001) %MON advcfl_wvel_max              =   4.8480000000000E-01
(PID.TID 0000.0001) %MON advcfl_W_hf_max              =   2.1210000000000E-01
(PID.TID 0000.0001) %MON pe_b_mean                    =   0.0000000000000E+00
(PID.TID 0000.0001) %MON ke_max                       =   3.3086007080078E-02
(PID.TID 0000.0001) %MON ke_mean                      =   6.0565552592808E-04
(PID.TID 0000.0001) %MON ke_vol                       =   3.3507127984312E+14
(PID.TID 0000.0001) %MON vort_r_min                   =  -5.0000000000000E-05
(PID.TID 0000.0001) %MON vort_r_max                   =   5.0000000000000E-05
(PID.TID 0000.0001) %MON vort_a_mean                  =   1.0000000000000E-04
(PID.TID 0000.0001) %MON vort_a_sd                    =   1.0868756421277E-05
(PID.TID 0000.0001) %MON vort_p_mean                  =   1.0161982423688E-04
(PID.TID 0000.0001) %MON vort_p_sd                    =   3.1004324650514E-05
(PID.TID 0000.0001) %MON surfExpan_theta_mean         =   3.7330392857141E-05
(PID.TID 0000.0001) %MON surfExpan_salt_mean          =   1.8749999999999E-03
(PID.TID 0000.0001) // =======================================================
(PID.TID 0000.0001) // End MONITOR dynamic field statistics
(PID.TID 0000.0001) // =======================================================
(PID.TID 0000.0001) // =======================================================
(PID.TID 0000.0001) // Begin OBCS MONITOR field statistics
(PID.TID 0000.0001) // =======================================================
(PID.TID 0000.0001) %MON obc_time_tsnumber            =                     0
(PID.TID 0000.0001) %MON obc_time_secondsf            =   1.0800000000000E+04
(PID.TID 0000.0001) %MON obc_E_uVel_max               =   2.4750000000000E-01
(PID.TID 0000.0001) %MON obc_E_uVel_min               =   2.4750000000000E-01
(PID.TID 0000.0001) %MON obc_E_uVel_mean              =   2.4750000000000E-01
(PID.TID 0000.0001) %MON obc_E_uVel_sd                =   6.9693799815587E-09
(PID.TID 0000.0001) %MON obc_E_uVel_Int               =   2.2274999999999E+08
(PID.TID 0000.0001) %MON obc_W_uVel_max               =   2.5250000000000E-01
(PID.TID 0000.0001) %MON obc_W_uVel_min               =   2.5250000000000E-01
(PID.TID 0000.0001) %MON obc_W_uVel_mean              =   2.5250000000000E-01
(PID.TID 0000.0001) %MON obc_W_uVel_sd                =   6.4523920698795E-09
(PID.TID 0000.0001) %MON obc_W_uVel_Int               =   2.2724999999999E+08
(PID.TID 0000.0001) %MON obc_N_vVel_max               =   0.0000000000000E+00
(PID.TID 0000.0001) %MON obc_N_vVel_min               =   0.0000000000000E+00
(PID.TID 0000.0001) %MON obc_N_vVel_mean              =   0.0000000000000E+00
(PID.TID 0000.0001) %MON obc_N_vVel_sd                =   0.0000000000000E+00
(PID.TID 0000.0001) %MON obc_N_vVel_Int               =   0.0000000000000E+00
(PID.TID 0000.0001) %MON obc_S_vVel_max               =   0.0000000000000E+00
(PID.TID 0000.0001) %MON obc_S_vVel_min               =   0.0000000000000E+00
(PID.TID 0000.0001) %MON obc_S_vVel_mean              =   0.0000000000000E+00
(PID.TID 0000.0001) %MON obc_S_vVel_sd                =   0.0000000000000E+00
(PID.TID 0000.0001) %MON obc_S_vVel_Int               =   0.0000000000000E+00
(PID.TID 0000.0001) %MON obc_E_theta_max              =   6.9683400000000E-01
(PID.TID 0000.0001) %MON obc_E_theta_min              =  -6.9683400000000E-01
(PID.TID 0000.0001) %MON obc_E_theta_mean             =   2.6226043701173E-14
(PID.TID 0000.0001) %MON obc_E_theta_sd               =   4.5618475594441E-01
(PID.TID 0000.0001) %MON obc_W_theta_max              =   6.9683400000000E-01
(PID.TID 0000.0001) %MON obc_W_theta_min              =  -6.9683400000000E-01
(PID.TID 0000.0001) %MON obc_W_theta_mean             =   2.6226043701173E-14
(PID.TID 0000.0001) %MON obc_W_theta_sd               =   4.5618475594441E-01
(PID.TID 0000.0001) %MON obc_N_theta_max              =   6.9683400000000E-01
(PID.TID 0000.0001) %MON obc_N_theta_min              =  -6.9683400000000E-01
(PID.TID 0000.0001) %MON obc_N_theta_mean             =   5.0183265503355E-05
(PID.TID 0000.0001) %MON obc_N_theta_sd               =   4.5616285086401E-01
(PID.TID 0000.0001) %MON obc_S_theta_max              =   6.9683400000000E-01
(PID.TID 0000.0001) %MON obc_S_theta_min              =  -6.9683400000000E-01
(PID.TID 0000.0001) %MON obc_S_theta_mean             =   5.0183265503355E-05
(PID.TID 0000.0001) %MON obc_S_theta_sd               =   4.5616285086401E-01
(PID.TID 0000.0001) // =======================================================
(PID.TID 0000.0001) // End OBCS MONITOR field statistics
(PID.TID 0000.0001) // =======================================================
(PID.TID 0000.0001) // =======================================================
(PID.TID 0000.0001) // Begin MONITOR ptracer field statistics
(PID.TID 0000.0001) // =======================================================
(PID.TID 0000.0001) %MON trcstat_ptracer01_max        =   3.5000000000000E+01
(PID.TID 0000.0001) %MON trcstat_ptracer01_min        =   3.5000000000000E+01
(PID.TID 0000.0001) %MON trcstat_ptracer01_mean       =   3.5000000000000E+01
(PID.TID 0000.0001) %MON trcstat_ptracer01_sd         =   1.1368683772162E-13
(PID.TID 0000.0001) %MON trcstat_ptracer01_del2       =   7.4287972674412E-04
(PID.TID 0000.0001) // =======================================================
(PID.TID 0000.0001) // End MONITOR ptracers field statistics
(PID.TID 0000.0001) // =======================================================
 EXTERNAL_FIELDS_LOAD,         0 : iP,iLd,i0,i1=    2    0    1    2 ; Wght=  1.0000000000  0.0000000000
 EXTERNAL_FIELDS_LOAD, it=         0 : Reading new data, i0,i1=    1    2 (prev=    2    0 )
 RBCS_FIELDS_LOAD, it=         0 : Reading new data, i0,i1=    1    1 (prev=    1    0 )
(PID.TID 0000.0001)  MDS_READ_FIELD: opening global file: rbcs_Tr1_fld.bin
(PID.TID 0000.0001)  MDS_READ_FIELD: opening global file: rbcs_Tr1_fld.bin
 OBCS_FIELDS_LOAD,         1 : iP,iLd,i0,i1=    1    2    1    2 ; Wght=  0.9722222222  0.0277777778
(PID.TID 0000.0001) SOLVE_FOR_PRESSURE: putPmEinXvector =    F
(PID.TID 0000.0001) SOLVE_FOR_PRESSURE: zeroPsNH=    F , zeroMeanPnh=    F
(PID.TID 0000.0001) SOLVE_FOR_PRESSURE: oldFreeSurfTerm =    F
 cg2d: Sum(rhs),rhsMax =  -7.68557383420926E-01  2.04808919675926E+00
(PID.TID 0000.0001)                    cg2d_init_res =    8.86821066408605E+00
(PID.TID 0000.0001)                       cg2d_iters =   196
(PID.TID 0000.0001)                         cg2d_res =    8.33018276315445E-14
 cg3d: Sum(rhs),rhsMax =   2.46950355130282E-14  1.75445857371546E-01
(PID.TID 0000.0001)                    cg3d_init_res =    9.27134252794876E+00
(PID.TID 0000.0001)                       cg3d_iters =   317
(PID.TID 0000.0001)                         cg3d_res =    9.78160622003621E-14
(PID.TID 0000.0001) // =======================================================
(PID.TID 0000.0001) // Begin MONITOR dynamic field statistics
(PID.TID 0000.0001) // =======================================================
(PID.TID 0000.0001) %MON time_tsnumber                =                     1
(PID.TID 0000.0001) %MON time_secondsf                =   1.1400000000000E+04
(PID.TID 0000.0001) %MON dynstat_eta_max              =   4.9634457153642E+00
(PID.TID 0000.0001) %MON dynstat_eta_min              =  -4.8607430248792E+00
(PID.TID 0000.0001) %MON dynstat_eta_mean             =   3.2692307692306E-02
(PID.TID 0000.0001) %MON dynstat_eta_sd               =   2.5566204522646E+00
(PID.TID 0000.0001) %MON dynstat_eta_del2             =   1.4298850805080E-04
(PID.TID 0000.0001) %MON dynstat_uvel_max             =   2.9280155352081E-01
(PID.TID 0000.0001) %MON dynstat_uvel_min             =   9.1852859158910E-02
(PID.TID 0000.0001) %MON dynstat_uvel_mean            =   1.5242434901699E-01
(PID.TID 0000.0001) %MON dynstat_uvel_sd              =   4.2609876858560E-02
(PID.TID 0000.0001) %MON dynstat_uvel_del2            =   1.5210556620689E-04
(PID.TID 0000.0001) %MON dynstat_vvel_max             =   3.2263440952893E-02
(PID.TID 0000.0001) %MON dynstat_vvel_min             =  -3.2151372854658E-02
(PID.TID 0000.0001) %MON dynstat_vvel_mean            =  -3.3714635817756E-05
(PID.TID 0000.0001) %MON dynstat_vvel_sd              =   6.9572506646598E-03
(PID.TID 0000.0001) %MON dynstat_vvel_del2            =   1.7050619003546E-05
(PID.TID 0000.0001) %MON dynstat_wvel_max             =   1.4305249218001E-02
(PID.TID 0000.0001) %MON dynstat_wvel_min             =  -1.4912998629019E-02
(PID.TID 0000.0001) %MON dynstat_wvel_mean            =   3.0195381882767E-05
(PID.TID 0000.0001) %MON dynstat_wvel_sd              =   3.1675576636288E-03
(PID.TID 0000.0001) %MON dynstat_wvel_del2            =   3.2578681070298E-05
(PID.TID 0000.0001) %MON dynstat_theta_max            =   7.1753002542455E-01
(PID.TID 0000.0001) %MON dynstat_theta_min            =  -6.9985030062455E-01
(PID.TID 0000.0001) %MON dynstat_theta_mean           =   2.0284438739385E-02
(PID.TID 0000.0001) %MON dynstat_theta_sd             =   4.5213405539759E-01
(PID.TID 0000.0001) %MON dynstat_theta_del2           =   5.5965927428889E-05
(PID.TID 0000.0001) %MON dynstat_salt_max             =   3.5039150000000E+01
(PID.TID 0000.0001) %MON dynstat_salt_min             =   3.5000000000000E+01
(PID.TID 0000.0001) %MON dynstat_salt_mean            =   3.5000525783649E+01
(PID.TID 0000.0001) %MON dynstat_salt_sd              =   4.5064377717963E-03
(PID.TID 0000.0001) %MON dynstat_salt_del2            =   6.8536049965244E-04
(PID.TID 0000.0001) %MON advcfl_uvel_max              =   3.5136186422498E-02
(PID.TID 0000.0001) %MON advcfl_vvel_max              =   3.8716129143471E-03
(PID.TID 0000.0001) %MON advcfl_wvel_max              =   1.7647806987962E-02
(PID.TID 0000.0001) %MON advcfl_W_hf_max              =   1.9976628211834E-02
(PID.TID 0000.0001) %MON pe_b_mean                    =   7.4644864773058E-03
(PID.TID 0000.0001) %MON ke_max                       =   3.7406443833886E-02
(PID.TID 0000.0001) %MON ke_mean                      =   1.2254507537923E-02
(PID.TID 0000.0001) %MON ke_vol                       =   3.3507127984312E+14
(PID.TID 0000.0001) %MON vort_r_min                   =  -4.5865827425168E-05
(PID.TID 0000.0001) %MON vort_r_max                   =   4.5827443609966E-05
(PID.TID 0000.0001) %MON vort_a_mean                  =   1.0000000000000E-04
(PID.TID 0000.0001) %MON vort_a_sd                    =   5.1026694459900E-06
(PID.TID 0000.0001) %MON vort_p_mean                  =   1.0161982423688E-04
(PID.TID 0000.0001) %MON vort_p_sd                    =   3.0228576971367E-05
(PID.TID 0000.0001) %MON surfExpan_theta_mean         =   3.1184825667792E-05
(PID.TID 0000.0001) %MON surfExpan_salt_mean          =   1.7746854105984E-03
(PID.TID 0000.0001) // =======================================================
(PID.TID 0000.0001) // End MONITOR dynamic field statistics
(PID.TID 0000.0001) // =======================================================
(PID.TID 0000.0001) // =======================================================
(PID.TID 0000.0001) // Begin MONITOR ptracer field statistics
(PID.TID 0000.0001) // =======================================================
(PID.TID 0000.0001) %MON trcstat_ptracer01_max        =   3.5039150000000E+01
(PID.TID 0000.0001) %MON trcstat_ptracer01_min        =   3.5000000000000E+01
(PID.TID 0000.0001) %MON trcstat_ptracer01_mean       =   3.5000720747050E+01
(PID.TID 0000.0001) %MON trcstat_ptracer01_sd         =   4.5817250190079E-03
(PID.TID 0000.0001) %MON trcstat_ptracer01_del2       =   6.8540869314747E-04
(PID.TID 0000.0001) // =======================================================
(PID.TID 0000.0001) // End MONITOR ptracers field statistics
(PID.TID 0000.0001) // =======================================================
 EXTERNAL_FIELDS_LOAD,         1 : iP,iLd,i0,i1=    1    2    1    2 ; Wght=  0.9722222222  0.0277777778
 OBCS_FIELDS_LOAD,         2 : iP,iLd,i0,i1=    1    2    1    2 ; Wght=  0.9444444444  0.0555555556
 cg2d: Sum(rhs),rhsMax =  -5.84947829279683E+00  5.22363773760485E-01
(PID.TID 0000.0001)                    cg2d_init_res =    4.39508228714136E+01
(PID.TID 0000.0001)                       cg2d_iters =   202
(PID.TID 0000.0001)                         cg2d_res =    9.43933360067112E-14
 cg3d: Sum(rhs),rhsMax =   1.93805041459605E-13  1.55398482358993E-02
(PID.TID 0000.0001)                    cg3d_init_res =    1.00706471204178E+02
(PID.TID 0000.0001)                       cg3d_iters =   343
(PID.TID 0000.0001)                         cg3d_res =    8.27804681520424E-14
(PID.TID 0000.0001) // =======================================================
(PID.TID 0000.0001) // Begin MONITOR dynamic field statistics
(PID.TID 0000.0001) // =======================================================
(PID.TID 0000.0001) %MON time_tsnumber                =                     2
(PID.TID 0000.0001) %MON time_secondsf                =   1.2000000000000E+04
(PID.TID 0000.0001) %MON dynstat_eta_max              =   4.0797196094948E+00
(PID.TID 0000.0001) %MON dynstat_eta_min              =  -3.9441905165969E+00
(PID.TID 0000.0001) %MON dynstat_eta_mean             =   6.3461538461536E-02
(PID.TID 0000.0001) %MON dynstat_eta_sd               =   2.6242938651901E+00
(PID.TID 0000.0001) %MON dynstat_eta_del2             =   1.4716313969183E-04
(PID.TID 0000.0001) %MON dynstat_uvel_max             =   5.7268628530893E-01
(PID.TID 0000.0001) %MON dynstat_uvel_min             =   2.0741864796577E-01
(PID.TID 0000.0001) %MON dynstat_uvel_mean            =   2.6034743596416E-01
(PID.TID 0000.0001) %MON dynstat_uvel_sd              =   2.5348480824281E-02
(PID.TID 0000.0001) %MON dynstat_uvel_del2            =   6.1331491069907E-05
(PID.TID 0000.0001) %MON dynstat_vvel_max             =   8.1624510530741E-02
(PID.TID 0000.0001) %MON dynstat_vvel_min             =  -9.1255857503835E-02
(PID.TID 0000.0001) %MON dynstat_vvel_mean            =  -2.3620905149596E-03
(PID.TID 0000.0001) %MON dynstat_vvel_sd              =   1.7994340433913E-02
(PID.TID 0000.0001) %MON dynstat_vvel_del2            =   1.9986657256224E-05
(PID.TID 0000.0001) %MON dynstat_wvel_max             =   2.0800386701700E-02
(PID.TID 0000.0001) %MON dynstat_wvel_min             =  -2.0643176854390E-02
(PID.TID 0000.0001) %MON dynstat_wvel_mean            =   2.8419182948489E-05
(PID.TID 0000.0001) %MON dynstat_wvel_sd              =   2.1823257894175E-03
(PID.TID 0000.0001) %MON dynstat_wvel_del2            =   1.5089529760850E-05
(PID.TID 0000.0001) %MON dynstat_theta_max            =   7.0538862174887E-01
(PID.TID 0000.0001) %MON dynstat_theta_min            =  -6.9886833466416E-01
(PID.TID 0000.0001) %MON dynstat_theta_mean           =   2.0267051621304E-02
(PID.TID 0000.0001) %MON dynstat_theta_sd             =   4.5211097022167E-01
(PID.TID 0000.0001) %MON dynstat_theta_del2           =   2.6284282027751E-05
(PID.TID 0000.0001) %MON dynstat_salt_max             =   3.5079985614969E+01
(PID.TID 0000.0001) %MON dynstat_salt_min             =   3.4998255588329E+01
(PID.TID 0000.0001) %MON dynstat_salt_mean            =   3.5001044122556E+01
(PID.TID 0000.0001) %MON dynstat_salt_sd              =   9.1045018736011E-03
(PID.TID 0000.0001) %MON dynstat_salt_del2            =   6.2757390706629E-04
(PID.TID 0000.0001) %MON advcfl_uvel_max              =   6.8722354237071E-02
(PID.TID 0000.0001) %MON advcfl_vvel_max              =   1.0950702900460E-02
(PID.TID 0000.0001) %MON advcfl_wvel_max              =   2.2187079148480E-02
(PID.TID 0000.0001) %MON advcfl_W_hf_max              =   5.0221343700536E-02
(PID.TID 0000.0001) %MON pe_b_mean                    =   7.8681971800996E-03
(PID.TID 0000.0001) %MON ke_max                       =   1.5980745366211E-01
(PID.TID 0000.0001) %MON ke_mean                      =   3.4292879720051E-02
(PID.TID 0000.0001) %MON ke_vol                       =   3.3507127984312E+14
(PID.TID 0000.0001) %MON vort_r_min                   =  -1.1982655866171E-04
(PID.TID 0000.0001) %MON vort_r_max                   =   1.1982376608713E-04
(PID.TID 0000.0001) %MON vort_a_mean                  =   1.0000000000000E-04
(PID.TID 0000.0001) %MON vort_a_sd                    =   6.1929549055286E-06
(PID.TID 0000.0001) %MON vort_p_mean                  =   1.0161982423688E-04
(PID.TID 0000.0001) %MON vort_p_sd                    =   3.4166660090782E-05
(PID.TID 0000.0001) %MON surfExpan_theta_mean         =   3.3491481394403E-05
(PID.TID 0000.0001) %MON surfExpan_salt_mean          =   1.6649069532727E-03
(PID.TID 0000.0001) // =======================================================
(PID.TID 0000.0001) // End MONITOR dynamic field statistics
(PID.TID 0000.0001) // =======================================================
(PID.TID 0000.0001) // =======================================================
(PID.TID 0000.0001) // Begin OBCS MONITOR field statistics
(PID.TID 0000.0001) // =======================================================
(PID.TID 0000.0001) %MON obc_time_tsnumber            =                     2
(PID.TID 0000.0001) %MON obc_time_secondsf            =   1.2000000000000E+04
(PID.TID 0000.0001) %MON obc_E_uVel_max               =   2.4777777777778E-01
(PID.TID 0000.0001) %MON obc_E_uVel_min               =   2.4777777777778E-01
(PID.TID 0000.0001) %MON obc_E_uVel_mean              =   2.4777777777778E-01
(PID.TID 0000.0001) %MON obc_E_uVel_sd                =  -1.3183898417424E-16
(PID.TID 0000.0001) %MON obc_E_uVel_Int               =   2.2299999999999E+08
(PID.TID 0000.0001) %MON obc_W_uVel_max               =   2.5222222222222E-01
(PID.TID 0000.0001) %MON obc_W_uVel_min               =   2.5222222222222E-01
(PID.TID 0000.0001) %MON obc_W_uVel_mean              =   2.5222222222222E-01
(PID.TID 0000.0001) %MON obc_W_uVel_sd                =  -1.6653345369377E-16
(PID.TID 0000.0001) %MON obc_W_uVel_Int               =   2.2699999999999E+08
(PID.TID 0000.0001) %MON obc_N_vVel_max               =   0.0000000000000E+00
(PID.TID 0000.0001) %MON obc_N_vVel_min               =   0.0000000000000E+00
(PID.TID 0000.0001) %MON obc_N_vVel_mean              =   0.0000000000000E+00
(PID.TID 0000.0001) %MON obc_N_vVel_sd                =   0.0000000000000E+00
(PID.TID 0000.0001) %MON obc_N_vVel_Int               =   0.0000000000000E+00
(PID.TID 0000.0001) %MON obc_S_vVel_max               =   0.0000000000000E+00
(PID.TID 0000.0001) %MON obc_S_vVel_min               =   0.0000000000000E+00
(PID.TID 0000.0001) %MON obc_S_vVel_mean              =   0.0000000000000E+00
(PID.TID 0000.0001) %MON obc_S_vVel_sd                =   0.0000000000000E+00
(PID.TID 0000.0001) %MON obc_S_vVel_Int               =   0.0000000000000E+00
(PID.TID 0000.0001) %MON obc_E_theta_max              =   6.9683400000000E-01
(PID.TID 0000.0001) %MON obc_E_theta_min              =  -6.9683400000000E-01
(PID.TID 0000.0001) %MON obc_E_theta_mean             =   2.6226043701173E-14
(PID.TID 0000.0001) %MON obc_E_theta_sd               =   4.5618475594441E-01
(PID.TID 0000.0001) %MON obc_W_theta_max              =   6.9683400000000E-01
(PID.TID 0000.0001) %MON obc_W_theta_min              =  -6.9683400000000E-01
(PID.TID 0000.0001) %MON obc_W_theta_mean             =   2.6226043701173E-14
(PID.TID 0000.0001) %MON obc_W_theta_sd               =   4.5618475594441E-01
(PID.TID 0000.0001) %MON obc_N_theta_max              =   6.9683400000000E-01
(PID.TID 0000.0001) %MON obc_N_theta_min              =  -6.9683400000000E-01
(PID.TID 0000.0001) %MON obc_N_theta_mean             =   5.0183265503355E-05
(PID.TID 0000.0001) %MON obc_N_theta_sd               =   4.5616285086401E-01
(PID.TID 0000.0001) %MON obc_S_theta_max              =   6.9683400000000E-01
(PID.TID 0000.0001) %MON obc_S_theta_min              =  -6.9683400000000E-01
(PID.TID 0000.0001) %MON obc_S_theta_mean             =   5.0183265503355E-05
(PID.TID 0000.0001) %MON obc_S_theta_sd               =   4.5616285086401E-01
(PID.TID 0000.0001) // =======================================================
(PID.TID 0000.0001) // End OBCS MONITOR field statistics
(PID.TID 0000.0001) // =======================================================
(PID.TID 0000.0001) // =======================================================
(PID.TID 0000.0001) // Begin MONITOR ptracer field statistics
(PID.TID 0000.0001) // =======================================================
(PID.TID 0000.0001) %MON trcstat_ptracer01_max        =   3.5079985614969E+01
(PID.TID 0000.0001) %MON trcstat_ptracer01_min        =   3.4998255588329E+01
(PID.TID 0000.0001) %MON trcstat_ptracer01_mean       =   3.5001424890905E+01
(PID.TID 0000.0001) %MON trcstat_ptracer01_sd         =   9.2438840937882E-03
(PID.TID 0000.0001) %MON trcstat_ptracer01_del2       =   6.2756094271256E-04
(PID.TID 0000.0001) // =======================================================
(PID.TID 0000.0001) // End MONITOR ptracers field statistics
(PID.TID 0000.0001) // =======================================================
 EXTERNAL_FIELDS_LOAD,         2 : iP,iLd,i0,i1=    1    2    1    2 ; Wght=  0.9444444444  0.0555555556
 OBCS_FIELDS_LOAD,         3 : iP,iLd,i0,i1=    1    2    1    2 ; Wght=  0.9166666667  0.0833333333
 cg2d: Sum(rhs),rhsMax =  -1.94015341871738E+01  2.29076958634666E-01
(PID.TID 0000.0001)                    cg2d_init_res =    1.33556635637395E+01
(PID.TID 0000.0001)                       cg2d_iters =   202
(PID.TID 0000.0001)                         cg2d_res =    7.17028335137291E-14
 cg3d: Sum(rhs),rhsMax =  -2.30327475841952E-13  7.51330507407523E-03
(PID.TID 0000.0001)                    cg3d_init_res =    2.15346837955253E+01
(PID.TID 0000.0001)                       cg3d_iters =   355
(PID.TID 0000.0001)                         cg3d_res =    9.51535947821016E-14
(PID.TID 0000.0001) // =======================================================
(PID.TID 0000.0001) // Begin MONITOR dynamic field statistics
(PID.TID 0000.0001) // =======================================================
(PID.TID 0000.0001) %MON time_tsnumber                =                     3
(PID.TID 0000.0001) %MON time_secondsf                =   1.2600000000000E+04
(PID.TID 0000.0001) %MON dynstat_eta_max              =   2.3314072044530E+00
(PID.TID 0000.0001) %MON dynstat_eta_min              =  -2.1448312929039E+00
(PID.TID 0000.0001) %MON dynstat_eta_mean             =   9.2307692307689E-02
(PID.TID 0000.0001) %MON dynstat_eta_sd               =   1.4590427874598E+00
(PID.TID 0000.0001) %MON dynstat_eta_del2             =   8.8425359928401E-05
(PID.TID 0000.0001) %MON dynstat_uvel_max             =   7.9826759358462E-01
(PID.TID 0000.0001) %MON dynstat_uvel_min             =   2.3802335139731E-01
(PID.TID 0000.0001) %MON dynstat_uvel_mean            =   3.1379912396284E-01
(PID.TID 0000.0001) %MON dynstat_uvel_sd              =   5.5201943450645E-02
(PID.TID 0000.0001) %MON dynstat_uvel_del2            =   1.4826895771102E-04
(PID.TID 0000.0001) %MON dynstat_vvel_max             =   1.1257139717719E-01
(PID.TID 0000.0001) %MON dynstat_vvel_min             =  -1.4251325129834E-01
(PID.TID 0000.0001) %MON dynstat_vvel_mean            =  -1.8378969348363E-03
(PID.TID 0000.0001) %MON dynstat_vvel_sd              =   2.5228648029621E-02
(PID.TID 0000.0001) %MON dynstat_vvel_del2            =   2.2600068313409E-05
(PID.TID 0000.0001) %MON dynstat_wvel_max             =   2.7853122056205E-02
(PID.TID 0000.0001) %MON dynstat_wvel_min             =  -2.7513572030633E-02
(PID.TID 0000.0001) %MON dynstat_wvel_mean            =   2.6642984014208E-05
(PID.TID 0000.0001) %MON dynstat_wvel_sd              =   2.8579582394556E-03
(PID.TID 0000.0001) %MON dynstat_wvel_del2            =   1.3562579543964E-05
(PID.TID 0000.0001) %MON dynstat_theta_max            =   7.0489094912384E-01
(PID.TID 0000.0001) %MON dynstat_theta_min            =  -7.0293975877781E-01
(PID.TID 0000.0001) %MON dynstat_theta_mean           =   2.0260363745949E-02
(PID.TID 0000.0001) %MON dynstat_theta_sd             =   4.5210918980003E-01
(PID.TID 0000.0001) %MON dynstat_theta_del2           =   2.6204653032782E-05
(PID.TID 0000.0001) %MON dynstat_salt_max             =   3.5116992053667E+01
(PID.TID 0000.0001) %MON dynstat_salt_min             =   3.4999457426927E+01
(PID.TID 0000.0001) %MON dynstat_salt_mean            =   3.5001560079335E+01
(PID.TID 0000.0001) %MON dynstat_salt_sd              =   1.3324686000819E-02
(PID.TID 0000.0001) %MON dynstat_salt_del2            =   5.7803244590545E-04
(PID.TID 0000.0001) %MON advcfl_uvel_max              =   9.5792111230154E-02
(PID.TID 0000.0001) %MON advcfl_vvel_max              =   1.7101590155801E-02
(PID.TID 0000.0001) %MON advcfl_wvel_max              =   2.9709996859952E-02
(PID.TID 0000.0001) %MON advcfl_W_hf_max              =   6.9785658990293E-02
(PID.TID 0000.0001) %MON pe_b_mean                    =   2.4404352744082E-03
(PID.TID 0000.0001) %MON ke_max                       =   3.1244930816629E-01
(PID.TID 0000.0001) %MON ke_mean                      =   5.1159750455943E-02
(PID.TID 0000.0001) %MON ke_vol                       =   3.3507127984312E+14
(PID.TID 0000.0001) %MON vort_r_min                   =  -1.7151677925158E-04
(PID.TID 0000.0001) %MON vort_r_max                   =   1.7089852101313E-04
(PID.TID 0000.0001) %MON vort_a_mean                  =   1.0000000000000E-04
(PID.TID 0000.0001) %MON vort_a_sd                    =   9.2671279723345E-06
(PID.TID 0000.0001) %MON vort_p_mean                  =   1.0161982423688E-04
(PID.TID 0000.0001) %MON vort_p_sd                    =   3.8372926802927E-05
(PID.TID 0000.0001) %MON surfExpan_theta_mean         =   3.2443927809013E-05
(PID.TID 0000.0001) %MON surfExpan_salt_mean          =   1.5583033690022E-03
(PID.TID 0000.0001) // =======================================================
(PID.TID 0000.0001) // End MONITOR dynamic field statistics
(PID.TID 0000.0001) // =======================================================
(PID.TID 0000.0001) // =======================================================
(PID.TID 0000.0001) // Begin MONITOR ptracer field statistics
(PID.TID 0000.0001) // =======================================================
(PID.TID 0000.0001) %MON trcstat_ptracer01_max        =   3.5116992053667E+01
(PID.TID 0000.0001) %MON trcstat_ptracer01_min        =   3.4999457426927E+01
(PID.TID 0000.0001) %MON trcstat_ptracer01_mean       =   3.5002123552479E+01
(PID.TID 0000.0001) %MON trcstat_ptracer01_sd         =   1.3538611651228E-02
(PID.TID 0000.0001) %MON trcstat_ptracer01_del2       =   5.7781385665361E-04
(PID.TID 0000.0001) // =======================================================
(PID.TID 0000.0001) // End MONITOR ptracers field statistics
(PID.TID 0000.0001) // =======================================================
 EXTERNAL_FIELDS_LOAD,         3 : iP,iLd,i0,i1=    1    2    1    2 ; Wght=  0.9166666667  0.0833333333
 OBCS_FIELDS_LOAD,         4 : iP,iLd,i0,i1=    1    2    1    2 ; Wght=  0.8888888889  0.1111111111
 cg2d: Sum(rhs),rhsMax =  -2.36516722762492E+01  2.42720289444620E-01
(PID.TID 0000.0001)                    cg2d_init_res =    9.16023194285616E+00
(PID.TID 0000.0001)                       cg2d_iters =   197
(PID.TID 0000.0001)                         cg2d_res =    9.81949349786016E-14
 cg3d: Sum(rhs),rhsMax =  -1.46485558058518E-11  2.81541489595901E-03
(PID.TID 0000.0001)                    cg3d_init_res =    4.14725642835570E+01
(PID.TID 0000.0001)                       cg3d_iters =   362
(PID.TID 0000.0001)                         cg3d_res =    9.78236449653319E-14
(PID.TID 0000.0001) // =======================================================
(PID.TID 0000.0001) // Begin MONITOR dynamic field statistics
(PID.TID 0000.0001) // =======================================================
(PID.TID 0000.0001) %MON time_tsnumber                =                     4
(PID.TID 0000.0001) %MON time_secondsf                =   1.3200000000000E+04
(PID.TID 0000.0001) %MON dynstat_eta_max              =   6.5144669659194E-01
(PID.TID 0000.0001) %MON dynstat_eta_min              =  -4.0939537984323E-01
(PID.TID 0000.0001) %MON dynstat_eta_mean             =   1.1923076923076E-01
(PID.TID 0000.0001) %MON dynstat_eta_sd               =   2.6193765830839E-01
(PID.TID 0000.0001) %MON dynstat_eta_del2             =   2.6692834553145E-05
(PID.TID 0000.0001) %MON dynstat_uvel_max             =   8.2355028692540E-01
(PID.TID 0000.0001) %MON dynstat_uvel_min             =   2.4310020695321E-01
(PID.TID 0000.0001) %MON dynstat_uvel_mean            =   3.1813849622024E-01
(PID.TID 0000.0001) %MON dynstat_uvel_sd              =   6.0001227273012E-02
(PID.TID 0000.0001) %MON dynstat_uvel_del2            =   1.5048678817335E-04
(PID.TID 0000.0001) %MON dynstat_vvel_max             =   1.1642277630839E-01
(PID.TID 0000.0001) %MON dynstat_vvel_min             =  -1.7570954572606E-01
(PID.TID 0000.0001) %MON dynstat_vvel_mean            =  -4.9772751141160E-04
(PID.TID 0000.0001) %MON dynstat_vvel_sd              =   2.6599455049603E-02
(PID.TID 0000.0001) %MON dynstat_vvel_del2            =   2.4785073284362E-05
(PID.TID 0000.0001) %MON dynstat_wvel_max             =   2.8589424642424E-02
(PID.TID 0000.0001) %MON dynstat_wvel_min             =  -2.7936704566787E-02
(PID.TID 0000.0001) %MON dynstat_wvel_mean            =   2.4866785079927E-05
(PID.TID 0000.0001) %MON dynstat_wvel_sd              =   2.8885754417355E-03
(PID.TID 0000.0001) %MON dynstat_wvel_del2            =   1.0497706416965E-05
(PID.TID 0000.0001) %MON dynstat_theta_max            =   7.0438465613329E-01
(PID.TID 0000.0001) %MON dynstat_theta_min            =  -7.0752197736001E-01
(PID.TID 0000.0001) %MON dynstat_theta_mean           =   2.0251991891131E-02
(PID.TID 0000.0001) %MON dynstat_theta_sd             =   4.5210571403260E-01
(PID.TID 0000.0001) %MON dynstat_theta_del2           =   2.6480126681593E-05
(PID.TID 0000.0001) %MON dynstat_salt_max             =   3.5152397707685E+01
(PID.TID 0000.0001) %MON dynstat_salt_min             =   3.4999210156106E+01
(PID.TID 0000.0001) %MON dynstat_salt_mean            =   3.5002072309858E+01
(PID.TID 0000.0001) %MON dynstat_salt_sd              =   1.7349057847673E-02
(PID.TID 0000.0001) %MON dynstat_salt_del2            =   5.3318119882337E-04
(PID.TID 0000.0001) %MON advcfl_uvel_max              =   9.8826034431048E-02
(PID.TID 0000.0001) %MON advcfl_vvel_max              =   2.1085145487127E-02
(PID.TID 0000.0001) %MON advcfl_wvel_max              =   3.0495386285252E-02
(PID.TID 0000.0001) %MON advcfl_W_hf_max              =   7.2378458019901E-02
(PID.TID 0000.0001) %MON pe_b_mean                    =   9.4573613593793E-05
(PID.TID 0000.0001) %MON ke_max                       =   3.3631475716810E-01
(PID.TID 0000.0001) %MON ke_mean                      =   5.2857991573113E-02
(PID.TID 0000.0001) %MON ke_vol                       =   3.3507127984312E+14
(PID.TID 0000.0001) %MON vort_r_min                   =  -1.8321065806320E-04
(PID.TID 0000.0001) %MON vort_r_max                   =   1.8131566045421E-04
(PID.TID 0000.0001) %MON vort_a_mean                  =   1.0000000000000E-04
(PID.TID 0000.0001) %MON vort_a_sd                    =   9.5555442304903E-06
(PID.TID 0000.0001) %MON vort_p_mean                  =   1.0161982423688E-04
(PID.TID 0000.0001) %MON vort_p_sd                    =   3.8834994458174E-05
(PID.TID 0000.0001) %MON surfExpan_theta_mean         =   2.9888813731124E-05
(PID.TID 0000.0001) %MON surfExpan_salt_mean          =   1.4530065844344E-03
(PID.TID 0000.0001) // =======================================================
(PID.TID 0000.0001) // End MONITOR dynamic field statistics
(PID.TID 0000.0001) // =======================================================
(PID.TID 0000.0001) // =======================================================
(PID.TID 0000.0001) // Begin OBCS MONITOR field statistics
(PID.TID 0000.0001) // =======================================================
(PID.TID 0000.0001) %MON obc_time_tsnumber            =                     4
(PID.TID 0000.0001) %MON obc_time_secondsf            =   1.3200000000000E+04
(PID.TID 0000.0001) %MON obc_E_uVel_max               =   2.4805555555556E-01
(PID.TID 0000.0001) %MON obc_E_uVel_min               =   2.4805555555556E-01
(PID.TID 0000.0001) %MON obc_E_uVel_mean              =   2.4805555555556E-01
(PID.TID 0000.0001) %MON obc_E_uVel_sd                =   1.2355390155149E-08
(PID.TID 0000.0001) %MON obc_E_uVel_Int               =   2.2324999999999E+08
(PID.TID 0000.0001) %MON obc_W_uVel_max               =   2.5194444444444E-01
(PID.TID 0000.0001) %MON obc_W_uVel_min               =   2.5194444444444E-01
(PID.TID 0000.0001) %MON obc_W_uVel_mean              =   2.5194444444444E-01
(PID.TID 0000.0001) %MON obc_W_uVel_sd                =   1.2355390155149E-08
(PID.TID 0000.0001) %MON obc_W_uVel_Int               =   2.2674999999999E+08
(PID.TID 0000.0001) %MON obc_N_vVel_max               =   0.0000000000000E+00
(PID.TID 0000.0001) %MON obc_N_vVel_min               =   0.0000000000000E+00
(PID.TID 0000.0001) %MON obc_N_vVel_mean              =   0.0000000000000E+00
(PID.TID 0000.0001) %MON obc_N_vVel_sd                =   0.0000000000000E+00
(PID.TID 0000.0001) %MON obc_N_vVel_Int               =   0.0000000000000E+00
(PID.TID 0000.0001) %MON obc_S_vVel_max               =   0.0000000000000E+00
(PID.TID 0000.0001) %MON obc_S_vVel_min               =   0.0000000000000E+00
(PID.TID 0000.0001) %MON obc_S_vVel_mean              =   0.0000000000000E+00
(PID.TID 0000.0001) %MON obc_S_vVel_sd                =   0.0000000000000E+00
(PID.TID 0000.0001) %MON obc_S_vVel_Int               =   0.0000000000000E+00
(PID.TID 0000.0001) %MON obc_E_theta_max              =   6.9683400000000E-01
(PID.TID 0000.0001) %MON obc_E_theta_min              =  -6.9683400000000E-01
(PID.TID 0000.0001) %MON obc_E_theta_mean             =   2.6226043701173E-14
(PID.TID 0000.0001) %MON obc_E_theta_sd               =   4.5618475594441E-01
(PID.TID 0000.0001) %MON obc_W_theta_max              =   6.9683400000000E-01
(PID.TID 0000.0001) %MON obc_W_theta_min              =  -6.9683400000000E-01
(PID.TID 0000.0001) %MON obc_W_theta_mean             =   2.6226043701173E-14
(PID.TID 0000.0001) %MON obc_W_theta_sd               =   4.5618475594441E-01
(PID.TID 0000.0001) %MON obc_N_theta_max              =   6.9683400000000E-01
(PID.TID 0000.0001) %MON obc_N_theta_min              =  -6.9683400000000E-01
(PID.TID 0000.0001) %MON obc_N_theta_mean             =   5.0183265503355E-05
(PID.TID 0000.0001) %MON obc_N_theta_sd               =   4.5616285086401E-01
(PID.TID 0000.0001) %MON obc_S_theta_max              =   6.9683400000000E-01
(PID.TID 0000.0001) %MON obc_S_theta_min              =  -6.9683400000000E-01
(PID.TID 0000.0001) %MON obc_S_theta_mean             =   5.0183265503355E-05
(PID.TID 0000.0001) %MON obc_S_theta_sd               =   4.5616285086401E-01
(PID.TID 0000.0001) // =======================================================
(PID.TID 0000.0001) // End OBCS MONITOR field statistics
(PID.TID 0000.0001) // =======================================================
(PID.TID 0000.0001) // =======================================================
(PID.TID 0000.0001) // Begin MONITOR ptracer field statistics
(PID.TID 0000.0001) // =======================================================
(PID.TID 0000.0001) %MON trcstat_ptracer01_max        =   3.5152397708466E+01
(PID.TID 0000.0001) %MON trcstat_ptracer01_min        =   3.4999210127138E+01
(PID.TID 0000.0001) %MON trcstat_ptracer01_mean       =   3.5002814601285E+01
(PID.TID 0000.0001) %MON trcstat_ptracer01_sd         =   1.7640171112888E-02
(PID.TID 0000.0001) %MON trcstat_ptracer01_del2       =   5.3267266902251E-04
(PID.TID 0000.0001) // =======================================================
(PID.TID 0000.0001) // End MONITOR ptracers field statistics
(PID.TID 0000.0001) // =======================================================
 EXTERNAL_FIELDS_LOAD,         4 : iP,iLd,i0,i1=    1    2    1    2 ; Wght=  0.8888888889  0.1111111111
 OBCS_FIELDS_LOAD,         5 : iP,iLd,i0,i1=    1    2    1    2 ; Wght=  0.8611111111  0.1388888889
 cg2d: Sum(rhs),rhsMax =  -3.15411786669980E+01  2.20170733559499E-01
(PID.TID 0000.0001)                    cg2d_init_res =    5.72431600349391E+00
(PID.TID 0000.0001)                       cg2d_iters =   196
(PID.TID 0000.0001)                         cg2d_res =    9.72740410872967E-14
 cg3d: Sum(rhs),rhsMax =  -1.25573891562869E-11  3.38029141987820E-03
(PID.TID 0000.0001)                    cg3d_init_res =    2.00865190866149E+01
(PID.TID 0000.0001)                       cg3d_iters =   352
(PID.TID 0000.0001)                         cg3d_res =    7.30773254058070E-14
(PID.TID 0000.0001) // =======================================================
(PID.TID 0000.0001) // Begin MONITOR dynamic field statistics
(PID.TID 0000.0001) // =======================================================
(PID.TID 0000.0001) %MON time_tsnumber                =                     5
(PID.TID 0000.0001) %MON time_secondsf                =   1.3800000000000E+04
(PID.TID 0000.0001) %MON dynstat_eta_max              =   1.2734477043556E+00
(PID.TID 0000.0001) %MON dynstat_eta_min              =  -9.8428485996364E-01
(PID.TID 0000.0001) %MON dynstat_eta_mean             =   1.4423076923076E-01
(PID.TID 0000.0001) %MON dynstat_eta_sd               =   6.3483761136369E-01
(PID.TID 0000.0001) %MON dynstat_eta_del2             =   3.6856237257478E-05
(PID.TID 0000.0001) %MON dynstat_uvel_max             =   7.2541516553845E-01
(PID.TID 0000.0001) %MON dynstat_uvel_min             =   2.2795010967085E-01
(PID.TID 0000.0001) %MON dynstat_uvel_mean            =   2.9461240659670E-01
(PID.TID 0000.0001) %MON dynstat_uvel_sd              =   4.7276663398884E-02
(PID.TID 0000.0001) %MON dynstat_uvel_del2            =   1.0375404485755E-04
(PID.TID 0000.0001) %MON dynstat_vvel_max             =   1.0448594459908E-01
(PID.TID 0000.0001) %MON dynstat_vvel_min             =  -1.9754328842264E-01
(PID.TID 0000.0001) %MON dynstat_vvel_mean            =   4.2880289166373E-04
(PID.TID 0000.0001) %MON dynstat_vvel_sd              =   2.4517468559395E-02
(PID.TID 0000.0001) %MON dynstat_vvel_del2            =   2.6300496561816E-05
(PID.TID 0000.0001) %MON dynstat_wvel_max             =   2.5394244738302E-02
(PID.TID 0000.0001) %MON dynstat_wvel_min             =  -2.5070293996760E-02
(PID.TID 0000.0001) %MON dynstat_wvel_mean            =   2.3090586145647E-05
(PID.TID 0000.0001) %MON dynstat_wvel_sd              =   2.4334152962647E-03
(PID.TID 0000.0001) %MON dynstat_wvel_del2            =   8.2316602795509E-06
(PID.TID 0000.0001) %MON dynstat_theta_max            =   7.0469196810384E-01
(PID.TID 0000.0001) %MON dynstat_theta_min            =  -7.1142879707539E-01
(PID.TID 0000.0001) %MON dynstat_theta_mean           =   2.0244240120440E-02
(PID.TID 0000.0001) %MON dynstat_theta_sd             =   4.5210245156655E-01
(PID.TID 0000.0001) %MON dynstat_theta_del2           =   2.5726085927656E-05
(PID.TID 0000.0001) %MON dynstat_salt_max             =   3.5186023450342E+01
(PID.TID 0000.0001) %MON dynstat_salt_min             =   3.4999077354342E+01
(PID.TID 0000.0001) %MON dynstat_salt_mean            =   3.5002580858977E+01
(PID.TID 0000.0001) %MON dynstat_salt_sd              =   2.1191342318542E-02
(PID.TID 0000.0001) %MON dynstat_salt_del2            =   4.9266856296392E-04
(PID.TID 0000.0001) %MON advcfl_uvel_max              =   8.7049819864614E-02
(PID.TID 0000.0001) %MON advcfl_vvel_max              =   2.3705194610717E-02
(PID.TID 0000.0001) %MON advcfl_wvel_max              =   2.7087194387522E-02
(PID.TID 0000.0001) %MON advcfl_W_hf_max              =   6.4097763508177E-02
(PID.TID 0000.0001) %MON pe_b_mean                    =   4.8392626831113E-04
(PID.TID 0000.0001) %MON ke_max                       =   2.6787410819657E-01
(PID.TID 0000.0001) %MON ke_mean                      =   4.4836002688972E-02
(PID.TID 0000.0001) %MON ke_vol                       =   3.3507127984312E+14
(PID.TID 0000.0001) %MON vort_r_min                   =  -1.6940790554282E-04
(PID.TID 0000.0001) %MON vort_r_max                   =   1.6614333830012E-04
(PID.TID 0000.0001) %MON vort_a_mean                  =   1.0000000000000E-04
(PID.TID 0000.0001) %MON vort_a_sd                    =   8.1243029768054E-06
(PID.TID 0000.0001) %MON vort_p_mean                  =   1.0161982423688E-04
(PID.TID 0000.0001) %MON vort_p_sd                    =   3.6848931724245E-05
(PID.TID 0000.0001) %MON surfExpan_theta_mean         =   2.7228398422583E-05
(PID.TID 0000.0001) %MON surfExpan_salt_mean          =   1.3504154117114E-03
(PID.TID 0000.0001) // =======================================================
(PID.TID 0000.0001) // End MONITOR dynamic field statistics
(PID.TID 0000.0001) // =======================================================
(PID.TID 0000.0001) // =======================================================
(PID.TID 0000.0001) // Begin MONITOR ptracer field statistics
(PID.TID 0000.0001) // =======================================================
(PID.TID 0000.0001) %MON trcstat_ptracer01_max        =   3.5186023473330E+01
(PID.TID 0000.0001) %MON trcstat_ptracer01_min        =   3.4999069753749E+01
(PID.TID 0000.0001) %MON trcstat_ptracer01_mean       =   3.5003498375885E+01
(PID.TID 0000.0001) %MON trcstat_ptracer01_sd         =   2.1561756643209E-02
(PID.TID 0000.0001) %MON trcstat_ptracer01_del2       =   4.9180196613027E-04
(PID.TID 0000.0001) // =======================================================
(PID.TID 0000.0001) // End MONITOR ptracers field statistics
(PID.TID 0000.0001) // =======================================================
 EXTERNAL_FIELDS_LOAD,         5 : iP,iLd,i0,i1=    1    2    1    2 ; Wght=  0.8611111111  0.1388888889
 OBCS_FIELDS_LOAD,         6 : iP,iLd,i0,i1=    1    2    1    2 ; Wght=  0.8333333333  0.1666666667
 cg2d: Sum(rhs),rhsMax =  -4.00107291127952E+01  2.01334885271539E-01
(PID.TID 0000.0001)                    cg2d_init_res =    1.94152320705387E+00
(PID.TID 0000.0001)                       cg2d_iters =   197
(PID.TID 0000.0001)                         cg2d_res =    8.64580994677785E-14
 cg3d: Sum(rhs),rhsMax =  -1.24668231467340E-11  3.75744534887922E-03
(PID.TID 0000.0001)                    cg3d_init_res =    2.91071051684218E+00
(PID.TID 0000.0001)                       cg3d_iters =   354
(PID.TID 0000.0001)                         cg3d_res =    9.62692359301418E-14
(PID.TID 0000.0001) // =======================================================
(PID.TID 0000.0001) // Begin MONITOR dynamic field statistics
(PID.TID 0000.0001) // =======================================================
(PID.TID 0000.0001) %MON time_tsnumber                =                     6
(PID.TID 0000.0001) %MON time_secondsf                =   1.4400000000000E+04
(PID.TID 0000.0001) %MON dynstat_eta_max              =   1.4068117347869E+00
(PID.TID 0000.0001) %MON dynstat_eta_min              =  -1.0737954265559E+00
(PID.TID 0000.0001) %MON dynstat_eta_mean             =   1.6730769230769E-01
(PID.TID 0000.0001) %MON dynstat_eta_sd               =   7.2754523290776E-01
(PID.TID 0000.0001) %MON dynstat_eta_del2             =   4.0697529144723E-05
(PID.TID 0000.0001) %MON dynstat_uvel_max             =   6.0840750837592E-01
(PID.TID 0000.0001) %MON dynstat_uvel_min             =   1.8983922459330E-01
(PID.TID 0000.0001) %MON dynstat_uvel_mean            =   2.6718287447363E-01
(PID.TID 0000.0001) %MON dynstat_uvel_sd              =   3.3478087750767E-02
(PID.TID 0000.0001) %MON dynstat_uvel_del2            =   5.6884007123337E-05
(PID.TID 0000.0001) %MON dynstat_vvel_max             =   1.0024541922951E-01
(PID.TID 0000.0001) %MON dynstat_vvel_min             =  -2.1966973711882E-01
(PID.TID 0000.0001) %MON dynstat_vvel_mean            =   6.9471764918137E-04
(PID.TID 0000.0001) %MON dynstat_vvel_sd              =   2.2127095097308E-02
(PID.TID 0000.0001) %MON dynstat_vvel_del2            =   2.7374922714826E-05
(PID.TID 0000.0001) %MON dynstat_wvel_max             =   2.1590862686230E-02
(PID.TID 0000.0001) %MON dynstat_wvel_min             =  -2.3273303621662E-02
(PID.TID 0000.0001) %MON dynstat_wvel_mean            =   2.1314387211366E-05
(PID.TID 0000.0001) %MON dynstat_wvel_sd              =   2.0412892401110E-03
(PID.TID 0000.0001) %MON dynstat_wvel_del2            =   7.5912096193924E-06
(PID.TID 0000.0001) %MON dynstat_theta_max            =   7.0639540652419E-01
(PID.TID 0000.0001) %MON dynstat_theta_min            =  -7.1433588905762E-01
(PID.TID 0000.0001) %MON dynstat_theta_mean           =   2.0237176076154E-02
(PID.TID 0000.0001) %MON dynstat_theta_sd             =   4.5209948110972E-01
(PID.TID 0000.0001) %MON dynstat_theta_del2           =   2.4427695859922E-05
(PID.TID 0000.0001) %MON dynstat_salt_max             =   3.5217963007957E+01
(PID.TID 0000.0001) %MON dynstat_salt_min             =   3.4999125385208E+01
(PID.TID 0000.0001) %MON dynstat_salt_mean            =   3.5003085296640E+01
(PID.TID 0000.0001) %MON dynstat_salt_sd              =   2.4862076902855E-02
(PID.TID 0000.0001) %MON dynstat_salt_del2            =   4.5616399969376E-04
(PID.TID 0000.0001) %MON advcfl_uvel_max              =   7.3008901005110E-02
(PID.TID 0000.0001) %MON advcfl_vvel_max              =   2.6360368454258E-02
(PID.TID 0000.0001) %MON advcfl_wvel_max              =   2.4824857196440E-02
(PID.TID 0000.0001) %MON advcfl_W_hf_max              =   5.3767067026851E-02
(PID.TID 0000.0001) %MON pe_b_mean                    =   6.3635038047517E-04
(PID.TID 0000.0001) %MON ke_max                       =   1.9794988916264E-01
(PID.TID 0000.0001) %MON ke_mean                      =   3.6436584523379E-02
(PID.TID 0000.0001) %MON ke_vol                       =   3.3507127984312E+14
(PID.TID 0000.0001) %MON vort_r_min                   =  -1.5101943247792E-04
(PID.TID 0000.0001) %MON vort_r_max                   =   1.4663459220287E-04
(PID.TID 0000.0001) %MON vort_a_mean                  =   1.0000000000000E-04
(PID.TID 0000.0001) %MON vort_a_sd                    =   6.6241097734648E-06
(PID.TID 0000.0001) %MON vort_p_mean                  =   1.0161982423688E-04
(PID.TID 0000.0001) %MON vort_p_sd                    =   3.4797804104465E-05
(PID.TID 0000.0001) %MON surfExpan_theta_mean         =   2.4915314181641E-05
(PID.TID 0000.0001) %MON surfExpan_salt_mean          =   1.2494490690761E-03
(PID.TID 0000.0001) // =======================================================
(PID.TID 0000.0001) // End MONITOR dynamic field statistics
(PID.TID 0000.0001) // =======================================================
(PID.TID 0000.0001) // =======================================================
(PID.TID 0000.0001) // Begin OBCS MONITOR field statistics
(PID.TID 0000.0001) // =======================================================
(PID.TID 0000.0001) %MON obc_time_tsnumber            =                     6
(PID.TID 0000.0001) %MON obc_time_secondsf            =   1.4400000000000E+04
(PID.TID 0000.0001) %MON obc_E_uVel_max               =   2.4833333333333E-01
(PID.TID 0000.0001) %MON obc_E_uVel_min               =   2.4833333333333E-01
(PID.TID 0000.0001) %MON obc_E_uVel_mean              =   2.4833333333333E-01
(PID.TID 0000.0001) %MON obc_E_uVel_sd                =   5.2683560638618E-09
(PID.TID 0000.0001) %MON obc_E_uVel_Int               =   2.2349999999999E+08
(PID.TID 0000.0001) %MON obc_W_uVel_max               =   2.5166666666667E-01
(PID.TID 0000.0001) %MON obc_W_uVel_min               =   2.5166666666667E-01
(PID.TID 0000.0001) %MON obc_W_uVel_mean              =   2.5166666666667E-01
(PID.TID 0000.0001) %MON obc_W_uVel_sd                =   0.0000000000000E+00
(PID.TID 0000.0001) %MON obc_W_uVel_Int               =   2.2649999999999E+08
(PID.TID 0000.0001) %MON obc_N_vVel_max               =   0.0000000000000E+00
(PID.TID 0000.0001) %MON obc_N_vVel_min               =   0.0000000000000E+00
(PID.TID 0000.0001) %MON obc_N_vVel_mean              =   0.0000000000000E+00
(PID.TID 0000.0001) %MON obc_N_vVel_sd                =   0.0000000000000E+00
(PID.TID 0000.0001) %MON obc_N_vVel_Int               =   0.0000000000000E+00
(PID.TID 0000.0001) %MON obc_S_vVel_max               =   0.0000000000000E+00
(PID.TID 0000.0001) %MON obc_S_vVel_min               =   0.0000000000000E+00
(PID.TID 0000.0001) %MON obc_S_vVel_mean              =   0.0000000000000E+00
(PID.TID 0000.0001) %MON obc_S_vVel_sd                =   0.0000000000000E+00
(PID.TID 0000.0001) %MON obc_S_vVel_Int               =   0.0000000000000E+00
(PID.TID 0000.0001) %MON obc_E_theta_max              =   6.9683400000000E-01
(PID.TID 0000.0001) %MON obc_E_theta_min              =  -6.9683400000000E-01
(PID.TID 0000.0001) %MON obc_E_theta_mean             =   2.6226043701173E-14
(PID.TID 0000.0001) %MON obc_E_theta_sd               =   4.5618475594441E-01
(PID.TID 0000.0001) %MON obc_W_theta_max              =   6.9683400000000E-01
(PID.TID 0000.0001) %MON obc_W_theta_min              =  -6.9683400000000E-01
(PID.TID 0000.0001) %MON obc_W_theta_mean             =   2.6226043701173E-14
(PID.TID 0000.0001) %MON obc_W_theta_sd               =   4.5618475594441E-01
(PID.TID 0000.0001) %MON obc_N_theta_max              =   6.9683400000000E-01
(PID.TID 0000.0001) %MON obc_N_theta_min              =  -6.9683400000000E-01
(PID.TID 0000.0001) %MON obc_N_theta_mean             =   5.0183265503355E-05
(PID.TID 0000.0001) %MON obc_N_theta_sd               =   4.5616285086401E-01
(PID.TID 0000.0001) %MON obc_S_theta_max              =   6.9683400000000E-01
(PID.TID 0000.0001) %MON obc_S_theta_min              =  -6.9683400000000E-01
(PID.TID 0000.0001) %MON obc_S_theta_mean             =   5.0183265503355E-05
(PID.TID 0000.0001) %MON obc_S_theta_sd               =   4.5616285086401E-01
(PID.TID 0000.0001) // =======================================================
(PID.TID 0000.0001) // End OBCS MONITOR field statistics
(PID.TID 0000.0001) // =======================================================
(PID.TID 0000.0001) // =======================================================
(PID.TID 0000.0001) // Begin MONITOR ptracer field statistics
(PID.TID 0000.0001) // =======================================================
(PID.TID 0000.0001) %MON trcstat_ptracer01_max        =   3.5217963009117E+01
(PID.TID 0000.0001) %MON trcstat_ptracer01_min        =   3.4999099639878E+01
(PID.TID 0000.0001) %MON trcstat_ptracer01_mean       =   3.5004174706971E+01
(PID.TID 0000.0001) %MON trcstat_ptracer01_sd         =   2.5313625884125E-02
(PID.TID 0000.0001) %MON trcstat_ptracer01_del2       =   4.5488110491113E-04
(PID.TID 0000.0001) // =======================================================
(PID.TID 0000.0001) // End MONITOR ptracers field statistics
(PID.TID 0000.0001) // =======================================================
 EXTERNAL_FIELDS_LOAD,         6 : iP,iLd,i0,i1=    1    2    1    2 ; Wght=  0.8333333333  0.1666666667
 OBCS_FIELDS_LOAD,         7 : iP,iLd,i0,i1=    1    2    1    2 ; Wght=  0.8055555556  0.1944444444
 cg2d: Sum(rhs),rhsMax =  -4.88925407268031E+01  1.85592197484212E-01
(PID.TID 0000.0001)                    cg2d_init_res =    2.85163375595925E+00
(PID.TID 0000.0001)                       cg2d_iters =   196
(PID.TID 0000.0001)                         cg2d_res =    8.95507515809165E-14
 cg3d: Sum(rhs),rhsMax =  -1.03470994793076E-11  2.45578864734537E-03
(PID.TID 0000.0001)                    cg3d_init_res =    1.00657383656423E+01
(PID.TID 0000.0001)                       cg3d_iters =   351
(PID.TID 0000.0001)                         cg3d_res =    9.72956571604565E-14
(PID.TID 0000.0001) // =======================================================
(PID.TID 0000.0001) // Begin MONITOR dynamic field statistics
(PID.TID 0000.0001) // =======================================================
(PID.TID 0000.0001) %MON time_tsnumber                =                     7
(PID.TID 0000.0001) %MON time_secondsf                =   1.5000000000000E+04
(PID.TID 0000.0001) %MON dynstat_eta_max              =   1.0181990575267E+00
(PID.TID 0000.0001) %MON dynstat_eta_min              =  -6.4588783526219E-01
(PID.TID 0000.0001) %MON dynstat_eta_mean             =   1.8846153846153E-01
(PID.TID 0000.0001) %MON dynstat_eta_sd               =   4.4826236877868E-01
(PID.TID 0000.0001) %MON dynstat_eta_del2             =   2.5539476864055E-05
(PID.TID 0000.0001) %MON dynstat_uvel_max             =   5.3432726481930E-01
(PID.TID 0000.0001) %MON dynstat_uvel_min             =   1.6556620727066E-01
(PID.TID 0000.0001) %MON dynstat_uvel_mean            =   2.5061156859946E-01
(PID.TID 0000.0001) %MON dynstat_uvel_sd              =   2.6824478306333E-02
(PID.TID 0000.0001) %MON dynstat_uvel_del2            =   3.9176245149798E-05
(PID.TID 0000.0001) %MON dynstat_vvel_max             =   9.8957601939255E-02
(PID.TID 0000.0001) %MON dynstat_vvel_min             =  -2.4006473879049E-01
(PID.TID 0000.0001) %MON dynstat_vvel_mean            =   5.0578489877855E-04
(PID.TID 0000.0001) %MON dynstat_vvel_sd              =   2.1098135023193E-02
(PID.TID 0000.0001) %MON dynstat_vvel_del2            =   2.8400996432814E-05
(PID.TID 0000.0001) %MON dynstat_wvel_max             =   2.0172975757759E-02
(PID.TID 0000.0001) %MON dynstat_wvel_min             =  -2.2084218051358E-02
(PID.TID 0000.0001) %MON dynstat_wvel_mean            =   1.9538188277085E-05
(PID.TID 0000.0001) %MON dynstat_wvel_sd              =   1.9055849932955E-03
(PID.TID 0000.0001) %MON dynstat_wvel_del2            =   8.3965480334146E-06
(PID.TID 0000.0001) %MON dynstat_theta_max            =   7.0773107288929E-01
(PID.TID 0000.0001) %MON dynstat_theta_min            =  -7.1650420874241E-01
(PID.TID 0000.0001) %MON dynstat_theta_mean           =   2.0230652134732E-02
(PID.TID 0000.0001) %MON dynstat_theta_sd             =   4.5209679507981E-01
(PID.TID 0000.0001) %MON dynstat_theta_del2           =   2.2754300812423E-05
(PID.TID 0000.0001) %MON dynstat_salt_max             =   3.5248310035599E+01
(PID.TID 0000.0001) %MON dynstat_salt_min             =   3.4999390056420E+01
(PID.TID 0000.0001) %MON dynstat_salt_mean            =   3.5003585582364E+01
(PID.TID 0000.0001) %MON dynstat_salt_sd              =   2.8373941832038E-02
(PID.TID 0000.0001) %MON dynstat_salt_del2            =   4.2333181429443E-04
(PID.TID 0000.0001) %MON advcfl_uvel_max              =   6.4119271778317E-02
(PID.TID 0000.0001) %MON advcfl_vvel_max              =   2.8807768654859E-02
(PID.TID 0000.0001) %MON advcfl_wvel_max              =   2.3556499254782E-02
(PID.TID 0000.0001) %MON advcfl_W_hf_max              =   4.6981974173772E-02
(PID.TID 0000.0001) %MON pe_b_mean                    =   2.6999045236749E-04
(PID.TID 0000.0001) %MON ke_max                       =   1.6226432226606E-01
(PID.TID 0000.0001) %MON ke_mean                      =   3.1879243352069E-02
(PID.TID 0000.0001) %MON ke_vol                       =   3.3507127984312E+14
(PID.TID 0000.0001) %MON vort_r_min                   =  -1.4075765181516E-04
(PID.TID 0000.0001) %MON vort_r_max                   =   1.3544323174901E-04
(PID.TID 0000.0001) %MON vort_a_mean                  =   1.0000000000000E-04
(PID.TID 0000.0001) %MON vort_a_sd                    =   5.8510646574766E-06
(PID.TID 0000.0001) %MON vort_p_mean                  =   1.0161982423688E-04
(PID.TID 0000.0001) %MON vort_p_sd                    =   3.3718476848575E-05
(PID.TID 0000.0001) %MON surfExpan_theta_mean         =   2.2707352086188E-05
(PID.TID 0000.0001) %MON surfExpan_salt_mean          =   1.1479971912832E-03
(PID.TID 0000.0001) // =======================================================
(PID.TID 0000.0001) // End MONITOR dynamic field statistics
(PID.TID 0000.0001) // =======================================================
(PID.TID 0000.0001) // =======================================================
(PID.TID 0000.0001) // Begin MONITOR ptracer field statistics
(PID.TID 0000.0001) // =======================================================
(PID.TID 0000.0001) %MON trcstat_ptracer01_max        =   3.5248310035599E+01
(PID.TID 0000.0001) %MON trcstat_ptracer01_min        =   3.4999334512000E+01
(PID.TID 0000.0001) %MON trcstat_ptracer01_mean       =   3.5004843702495E+01
(PID.TID 0000.0001) %MON trcstat_ptracer01_sd         =   2.8908064547324E-02
(PID.TID 0000.0001) %MON trcstat_ptracer01_del2       =   4.2158503866892E-04
(PID.TID 0000.0001) // =======================================================
(PID.TID 0000.0001) // End MONITOR ptracers field statistics
(PID.TID 0000.0001) // =======================================================
 EXTERNAL_FIELDS_LOAD,         7 : iP,iLd,i0,i1=    1    2    1    2 ; Wght=  0.8055555556  0.1944444444
 OBCS_FIELDS_LOAD,         8 : iP,iLd,i0,i1=    1    2    1    2 ; Wght=  0.7777777778  0.2222222222
 cg2d: Sum(rhs),rhsMax =  -5.98718188988315E+01  1.67023487575969E-01
(PID.TID 0000.0001)                    cg2d_init_res =    3.50633426951362E+00
(PID.TID 0000.0001)                       cg2d_iters =   196
(PID.TID 0000.0001)                         cg2d_res =    7.79819815457154E-14
 cg3d: Sum(rhs),rhsMax =  -4.59517137882393E-11  1.14855699571473E-03
(PID.TID 0000.0001)                    cg3d_init_res =    2.68540219847062E+01
(PID.TID 0000.0001)                       cg3d_iters =   359
(PID.TID 0000.0001)                         cg3d_res =    9.08734077784824E-14
(PID.TID 0000.0001) // =======================================================
(PID.TID 0000.0001) // Begin MONITOR dynamic field statistics
(PID.TID 0000.0001) // =======================================================
(PID.TID 0000.0001) %MON time_tsnumber                =                     8
(PID.TID 0000.0001) %MON time_secondsf                =   1.5600000000000E+04
(PID.TID 0000.0001) %MON dynstat_eta_max              =   5.4580599145858E-01
(PID.TID 0000.0001) %MON dynstat_eta_min              =  -1.3602364385015E-01
(PID.TID 0000.0001) %MON dynstat_eta_mean             =   2.0769230769230E-01
(PID.TID 0000.0001) %MON dynstat_eta_sd               =   1.5215682630732E-01
(PID.TID 0000.0001) %MON dynstat_eta_del2             =   1.3247472714041E-05
(PID.TID 0000.0001) %MON dynstat_uvel_max             =   5.1433300196526E-01
(PID.TID 0000.0001) %MON dynstat_uvel_min             =   1.5800472133329E-01
(PID.TID 0000.0001) %MON dynstat_uvel_mean            =   2.4761916812203E-01
(PID.TID 0000.0001) %MON dynstat_uvel_sd              =   2.5895040619788E-02
(PID.TID 0000.0001) %MON dynstat_uvel_del2            =   3.9436509755384E-05
(PID.TID 0000.0001) %MON dynstat_vvel_max             =   1.0266680308524E-01
(PID.TID 0000.0001) %MON dynstat_vvel_min             =  -2.6295078027971E-01
(PID.TID 0000.0001) %MON dynstat_vvel_mean            =   1.7012117078271E-04
(PID.TID 0000.0001) %MON dynstat_vvel_sd              =   2.1584759643592E-02
(PID.TID 0000.0001) %MON dynstat_vvel_del2            =   2.9738647509105E-05
(PID.TID 0000.0001) %MON dynstat_wvel_max             =   2.0162114501383E-02
(PID.TID 0000.0001) %MON dynstat_wvel_min             =  -2.1996307023450E-02
(PID.TID 0000.0001) %MON dynstat_wvel_mean            =   1.7761989342806E-05
(PID.TID 0000.0001) %MON dynstat_wvel_sd              =   1.8979326766273E-03
(PID.TID 0000.0001) %MON dynstat_wvel_del2            =   9.7522230716105E-06
(PID.TID 0000.0001) %MON dynstat_theta_max            =   7.0889396658958E-01
(PID.TID 0000.0001) %MON dynstat_theta_min            =  -7.1836133567139E-01
(PID.TID 0000.0001) %MON dynstat_theta_mean           =   2.0224664619284E-02
(PID.TID 0000.0001) %MON dynstat_theta_sd             =   4.5209436152612E-01
(PID.TID 0000.0001) %MON dynstat_theta_del2           =   2.0871872120074E-05
(PID.TID 0000.0001) %MON dynstat_salt_max             =   3.5277172057581E+01
(PID.TID 0000.0001) %MON dynstat_salt_min             =   3.4999686571620E+01
(PID.TID 0000.0001) %MON dynstat_salt_mean            =   3.5004082081358E+01
(PID.TID 0000.0001) %MON dynstat_salt_sd              =   3.1740469206149E-02
(PID.TID 0000.0001) %MON dynstat_salt_del2            =   3.9385085901477E-04
(PID.TID 0000.0001) %MON advcfl_uvel_max              =   6.1719960235831E-02
(PID.TID 0000.0001) %MON advcfl_vvel_max              =   3.1554093633565E-02
(PID.TID 0000.0001) %MON advcfl_wvel_max              =   2.3462727491680E-02
(PID.TID 0000.0001) %MON advcfl_W_hf_max              =   4.4883081788927E-02
(PID.TID 0000.0001) %MON pe_b_mean                    =   7.5688514088108E-05
(PID.TID 0000.0001) %MON ke_max                       =   1.5692413748898E-01
(PID.TID 0000.0001) %MON ke_mean                      =   3.1112346778063E-02
(PID.TID 0000.0001) %MON ke_vol                       =   3.3507127984312E+14
(PID.TID 0000.0001) %MON vort_r_min                   =  -1.4118914498388E-04
(PID.TID 0000.0001) %MON vort_r_max                   =   1.3495264520928E-04
(PID.TID 0000.0001) %MON vort_a_mean                  =   1.0000000000000E-04
(PID.TID 0000.0001) %MON vort_a_sd                    =   5.7376011262954E-06
(PID.TID 0000.0001) %MON vort_p_mean                  =   1.0161982423688E-04
(PID.TID 0000.0001) %MON vort_p_sd                    =   3.3544888558778E-05
(PID.TID 0000.0001) %MON surfExpan_theta_mean         =   2.0558705075514E-05
(PID.TID 0000.0001) %MON surfExpan_salt_mean          =   1.0447131489262E-03
(PID.TID 0000.0001) // =======================================================
(PID.TID 0000.0001) // End MONITOR dynamic field statistics
(PID.TID 0000.0001) // =======================================================
(PID.TID 0000.0001) // =======================================================
(PID.TID 0000.0001) // Begin OBCS MONITOR field statistics
(PID.TID 0000.0001) // =======================================================
(PID.TID 0000.0001) %MON obc_time_tsnumber            =                     8
(PID.TID 0000.0001) %MON obc_time_secondsf            =   1.5600000000000E+04
(PID.TID 0000.0001) %MON obc_E_uVel_max               =   2.4861111111111E-01
(PID.TID 0000.0001) %MON obc_E_uVel_min               =   2.4861111111111E-01
(PID.TID 0000.0001) %MON obc_E_uVel_mean              =   2.4861111111111E-01
(PID.TID 0000.0001) %MON obc_E_uVel_sd                =   1.1175870895386E-08
(PID.TID 0000.0001) %MON obc_E_uVel_Int               =   2.2374999999999E+08
(PID.TID 0000.0001) %MON obc_W_uVel_max               =   2.5138888888889E-01
(PID.TID 0000.0001) %MON obc_W_uVel_min               =   2.5138888888889E-01
(PID.TID 0000.0001) %MON obc_W_uVel_mean              =   2.5138888888889E-01
(PID.TID 0000.0001) %MON obc_W_uVel_sd                =   1.1780402288468E-08
(PID.TID 0000.0001) %MON obc_W_uVel_Int               =   2.2624999999999E+08
(PID.TID 0000.0001) %MON obc_N_vVel_max               =   0.0000000000000E+00
(PID.TID 0000.0001) %MON obc_N_vVel_min               =   0.0000000000000E+00
(PID.TID 0000.0001) %MON obc_N_vVel_mean              =   0.0000000000000E+00
(PID.TID 0000.0001) %MON obc_N_vVel_sd                =   0.0000000000000E+00
(PID.TID 0000.0001) %MON obc_N_vVel_Int               =   0.0000000000000E+00
(PID.TID 0000.0001) %MON obc_S_vVel_max               =   0.0000000000000E+00
(PID.TID 0000.0001) %MON obc_S_vVel_min               =   0.0000000000000E+00
(PID.TID 0000.0001) %MON obc_S_vVel_mean              =   0.0000000000000E+00
(PID.TID 0000.0001) %MON obc_S_vVel_sd                =   0.0000000000000E+00
(PID.TID 0000.0001) %MON obc_S_vVel_Int               =   0.0000000000000E+00
(PID.TID 0000.0001) %MON obc_E_theta_max              =   6.9683400000000E-01
(PID.TID 0000.0001) %MON obc_E_theta_min              =  -6.9683400000000E-01
(PID.TID 0000.0001) %MON obc_E_theta_mean             =   2.6226043701173E-14
(PID.TID 0000.0001) %MON obc_E_theta_sd               =   4.5618475594441E-01
(PID.TID 0000.0001) %MON obc_W_theta_max              =   6.9683400000000E-01
(PID.TID 0000.0001) %MON obc_W_theta_min              =  -6.9683400000000E-01
(PID.TID 0000.0001) %MON obc_W_theta_mean             =   2.6226043701173E-14
(PID.TID 0000.0001) %MON obc_W_theta_sd               =   4.5618475594441E-01
(PID.TID 0000.0001) %MON obc_N_theta_max              =   6.9683400000000E-01
(PID.TID 0000.0001) %MON obc_N_theta_min              =  -6.9683400000000E-01
(PID.TID 0000.0001) %MON obc_N_theta_mean             =   5.0183265503355E-05
(PID.TID 0000.0001) %MON obc_N_theta_sd               =   4.5616285086401E-01
(PID.TID 0000.0001) %MON obc_S_theta_max              =   6.9683400000000E-01
(PID.TID 0000.0001) %MON obc_S_theta_min              =  -6.9683400000000E-01
(PID.TID 0000.0001) %MON obc_S_theta_mean             =   5.0183265503355E-05
(PID.TID 0000.0001) %MON obc_S_theta_sd               =   4.5616285086401E-01
(PID.TID 0000.0001) // =======================================================
(PID.TID 0000.0001) // End OBCS MONITOR field statistics
(PID.TID 0000.0001) // =======================================================
(PID.TID 0000.0001) // =======================================================
(PID.TID 0000.0001) // Begin MONITOR ptracer field statistics
(PID.TID 0000.0001) // =======================================================
(PID.TID 0000.0001) %MON trcstat_ptracer01_max        =   3.5277172057581E+01
(PID.TID 0000.0001) %MON trcstat_ptracer01_min        =   3.4999686571620E+01
(PID.TID 0000.0001) %MON trcstat_ptracer01_mean       =   3.5005505726426E+01
(PID.TID 0000.0001) %MON trcstat_ptracer01_sd         =   3.2358173261142E-02
(PID.TID 0000.0001) %MON trcstat_ptracer01_del2       =   3.9160196723934E-04
(PID.TID 0000.0001) // =======================================================
(PID.TID 0000.0001) // End MONITOR ptracers field statistics
(PID.TID 0000.0001) // =======================================================
 EXTERNAL_FIELDS_LOAD,         8 : iP,iLd,i0,i1=    1    2    1    2 ; Wght=  0.7777777778  0.2222222222
 OBCS_FIELDS_LOAD,         9 : iP,iLd,i0,i1=    1    2    1    2 ; Wght=  0.7500000000  0.2500000000
 cg2d: Sum(rhs),rhsMax =  -6.63012842822539E+01  1.63395527712765E-01
(PID.TID 0000.0001)                    cg2d_init_res =    2.26069809914838E+00
(PID.TID 0000.0001)                       cg2d_iters =   192
(PID.TID 0000.0001)                         cg2d_res =    7.94661482312968E-14
 cg3d: Sum(rhs),rhsMax =  -3.13243129351770E-11  1.47938064060455E-03
(PID.TID 0000.0001)                    cg3d_init_res =    1.32053525581320E+01
(PID.TID 0000.0001)                       cg3d_iters =   348
(PID.TID 0000.0001)                         cg3d_res =    9.42761583849087E-14
(PID.TID 0000.0001) // =======================================================
(PID.TID 0000.0001) // Begin MONITOR dynamic field statistics
(PID.TID 0000.0001) // =======================================================
(PID.TID 0000.0001) %MON time_tsnumber                =                     9
(PID.TID 0000.0001) %MON time_secondsf                =   1.6200000000000E+04
(PID.TID 0000.0001) %MON dynstat_eta_max              =   6.6602385383695E-01
(PID.TID 0000.0001) %MON dynstat_eta_min              =  -2.1731326340123E-01
(PID.TID 0000.0001) %MON dynstat_eta_mean             =   2.2499999999999E-01
(PID.TID 0000.0001) %MON dynstat_eta_sd               =   2.0435982818509E-01
(PID.TID 0000.0001) %MON dynstat_eta_del2             =   1.6724714777948E-05
(PID.TID 0000.0001) %MON dynstat_uvel_max             =   5.3277689074428E-01
(PID.TID 0000.0001) %MON dynstat_uvel_min             =   1.6129764415855E-01
(PID.TID 0000.0001) %MON dynstat_uvel_mean            =   2.5318897729336E-01
(PID.TID 0000.0001) %MON dynstat_uvel_sd              =   2.7826488401091E-02
(PID.TID 0000.0001) %MON dynstat_uvel_del2            =   4.4251481085750E-05
(PID.TID 0000.0001) %MON dynstat_vvel_max             =   1.1004809265817E-01
(PID.TID 0000.0001) %MON dynstat_vvel_min             =  -2.8920361705711E-01
(PID.TID 0000.0001) %MON dynstat_vvel_mean            =  -8.5549708475701E-05
(PID.TID 0000.0001) %MON dynstat_vvel_sd              =   2.3019759609912E-02
(PID.TID 0000.0001) %MON dynstat_vvel_del2            =   3.1470602360215E-05
(PID.TID 0000.0001) %MON dynstat_wvel_max             =   2.0897189525532E-02
(PID.TID 0000.0001) %MON dynstat_wvel_min             =  -2.2691595773882E-02
(PID.TID 0000.0001) %MON dynstat_wvel_mean            =   1.5985790408525E-05
(PID.TID 0000.0001) %MON dynstat_wvel_sd              =   1.9347411197574E-03
(PID.TID 0000.0001) %MON dynstat_wvel_del2            =   1.1053614922106E-05
(PID.TID 0000.0001) %MON dynstat_theta_max            =   7.1001784992195E-01
(PID.TID 0000.0001) %MON dynstat_theta_min            =  -7.2021949941773E-01
(PID.TID 0000.0001) %MON dynstat_theta_mean           =   2.0219237902706E-02
(PID.TID 0000.0001) %MON dynstat_theta_sd             =   4.5209212579464E-01
(PID.TID 0000.0001) %MON dynstat_theta_del2           =   1.8967965482170E-05
(PID.TID 0000.0001) %MON dynstat_salt_max             =   3.5304640919686E+01
(PID.TID 0000.0001) %MON dynstat_salt_min             =   3.4999625717530E+01
(PID.TID 0000.0001) %MON dynstat_salt_mean            =   3.5004575285933E+01
(PID.TID 0000.0001) %MON dynstat_salt_sd              =   3.4974172084786E-02
(PID.TID 0000.0001) %MON dynstat_salt_del2            =   3.6742870859895E-04
(PID.TID 0000.0001) %MON advcfl_uvel_max              =   6.3933226889314E-02
(PID.TID 0000.0001) %MON advcfl_vvel_max              =   3.4704434046853E-02
(PID.TID 0000.0001) %MON advcfl_wvel_max              =   2.4204368825475E-02
(PID.TID 0000.0001) %MON advcfl_W_hf_max              =   4.5790655481073E-02
(PID.TID 0000.0001) %MON pe_b_mean                    =   1.0549009674106E-04
(PID.TID 0000.0001) %MON ke_max                       =   1.6873428547057E-01
(PID.TID 0000.0001) %MON ke_mean                      =   3.2605683701771E-02
(PID.TID 0000.0001) %MON ke_vol                       =   3.3507127984312E+14
(PID.TID 0000.0001) %MON vort_r_min                   =  -1.4858412379708E-04
(PID.TID 0000.0001) %MON vort_r_max                   =   1.4127970166207E-04
(PID.TID 0000.0001) %MON vort_a_mean                  =   1.0000000000000E-04
(PID.TID 0000.0001) %MON vort_a_sd                    =   5.9943655342998E-06
(PID.TID 0000.0001) %MON vort_p_mean                  =   1.0161982423688E-04
(PID.TID 0000.0001) %MON vort_p_sd                    =   3.3896443365741E-05
(PID.TID 0000.0001) %MON surfExpan_theta_mean         =   1.8525944207783E-05
(PID.TID 0000.0001) %MON surfExpan_salt_mean          =   9.3969450626579E-04
(PID.TID 0000.0001) // =======================================================
(PID.TID 0000.0001) // End MONITOR dynamic field statistics
(PID.TID 0000.0001) // =======================================================
(PID.TID 0000.0001) // =======================================================
(PID.TID 0000.0001) // Begin MONITOR ptracer field statistics
(PID.TID 0000.0001) // =======================================================
(PID.TID 0000.0001) %MON trcstat_ptracer01_max        =   3.5304640919686E+01
(PID.TID 0000.0001) %MON trcstat_ptracer01_min        =   3.4999625633345E+01
(PID.TID 0000.0001) %MON trcstat_ptracer01_mean       =   3.5006161227967E+01
(PID.TID 0000.0001) %MON trcstat_ptracer01_sd         =   3.5676064079540E-02
(PID.TID 0000.0001) %MON trcstat_ptracer01_del2       =   3.6464807456023E-04
(PID.TID 0000.0001) // =======================================================
(PID.TID 0000.0001) // End MONITOR ptracers field statistics
(PID.TID 0000.0001) // =======================================================
 EXTERNAL_FIELDS_LOAD,         9 : iP,iLd,i0,i1=    1    2    1    2 ; Wght=  0.7500000000  0.2500000000
 OBCS_FIELDS_LOAD,        10 : iP,iLd,i0,i1=    1    2    1    2 ; Wght=  0.7222222222  0.2777777778
 cg2d: Sum(rhs),rhsMax =  -7.28387043065623E+01  1.58900054363418E-01
(PID.TID 0000.0001)                    cg2d_init_res =    8.05877768726941E-01
(PID.TID 0000.0001)                       cg2d_iters =   193
(PID.TID 0000.0001)                         cg2d_res =    8.44021807632941E-14
 cg3d: Sum(rhs),rhsMax =  -2.96465432498422E-11  1.68132938574595E-03
(PID.TID 0000.0001)                    cg3d_init_res =    2.82974409285246E+00
(PID.TID 0000.0001)                       cg3d_iters =   351
(PID.TID 0000.0001)                         cg3d_res =    9.48560048940851E-14
(PID.TID 0000.0001) // =======================================================
(PID.TID 0000.0001) // Begin MONITOR dynamic field statistics
(PID.TID 0000.0001) // =======================================================
(PID.TID 0000.0001) %MON time_tsnumber                =                    10
(PID.TID 0000.0001) %MON time_secondsf                =   1.6800000000000E+04
(PID.TID 0000.0001) %MON dynstat_eta_max              =   7.5683563186934E-01
(PID.TID 0000.0001) %MON dynstat_eta_min              =  -2.7671971447662E-01
(PID.TID 0000.0001) %MON dynstat_eta_mean             =   2.4038461538461E-01
(PID.TID 0000.0001) %MON dynstat_eta_sd               =   2.4747133532157E-01
(PID.TID 0000.0001) %MON dynstat_eta_del2             =   1.8452292783264E-05
(PID.TID 0000.0001) %MON dynstat_uvel_max             =   5.5814938431268E-01
(PID.TID 0000.0001) %MON dynstat_uvel_min             =   1.6671660803102E-01
(PID.TID 0000.0001) %MON dynstat_uvel_mean            =   2.6061417710688E-01
(PID.TID 0000.0001) %MON dynstat_uvel_sd              =   3.0788060090045E-02
(PID.TID 0000.0001) %MON dynstat_uvel_del2            =   5.2148734690251E-05
(PID.TID 0000.0001) %MON dynstat_vvel_max             =   1.1866635538297E-01
(PID.TID 0000.0001) %MON dynstat_vvel_min             =  -3.1742130177082E-01
(PID.TID 0000.0001) %MON dynstat_vvel_mean            =  -1.7868998259874E-04
(PID.TID 0000.0001) %MON dynstat_vvel_sd              =   2.4731841782380E-02
(PID.TID 0000.0001) %MON dynstat_vvel_del2            =   3.3423909740283E-05
(PID.TID 0000.0001) %MON dynstat_wvel_max             =   2.1785517095624E-02
(PID.TID 0000.0001) %MON dynstat_wvel_min             =  -2.3596615768834E-02
(PID.TID 0000.0001) %MON dynstat_wvel_mean            =   1.4209591474243E-05
(PID.TID 0000.0001) %MON dynstat_wvel_sd              =   1.9906122400582E-03
(PID.TID 0000.0001) %MON dynstat_wvel_del2            =   1.1997669808614E-05
(PID.TID 0000.0001) %MON dynstat_theta_max            =   7.1114241188448E-01
(PID.TID 0000.0001) %MON dynstat_theta_min            =  -7.2218675779672E-01
(PID.TID 0000.0001) %MON dynstat_theta_mean           =   2.0214391463144E-02
(PID.TID 0000.0001) %MON dynstat_theta_sd             =   4.5209004860903E-01
(PID.TID 0000.0001) %MON dynstat_theta_del2           =   1.7235893137100E-05
(PID.TID 0000.0001) %MON dynstat_salt_max             =   3.5330806203229E+01
(PID.TID 0000.0001) %MON dynstat_salt_min             =   3.4999585636739E+01
(PID.TID 0000.0001) %MON dynstat_salt_mean            =   3.5005065537895E+01
(PID.TID 0000.0001) %MON dynstat_salt_sd              =   3.8085422399286E-02
(PID.TID 0000.0001) %MON dynstat_salt_del2            =   3.4380490767213E-04
(PID.TID 0000.0001) %MON advcfl_uvel_max              =   6.6977926117522E-02
(PID.TID 0000.0001) %MON advcfl_vvel_max              =   3.8090556212499E-02
(PID.TID 0000.0001) %MON advcfl_wvel_max              =   2.5169723486756E-02
(PID.TID 0000.0001) %MON advcfl_W_hf_max              =   4.7395807838640E-02
(PID.TID 0000.0001) %MON pe_b_mean                    =   1.3590682270283E-04
(PID.TID 0000.0001) %MON ke_max                       =   1.8492727765410E-01
(PID.TID 0000.0001) %MON ke_mean                      =   3.4661197296493E-02
(PID.TID 0000.0001) %MON ke_vol                       =   3.3507127984312E+14
(PID.TID 0000.0001) %MON vort_r_min                   =  -1.5769850248932E-04
(PID.TID 0000.0001) %MON vort_r_max                   =   1.4910219152671E-04
(PID.TID 0000.0001) %MON vort_a_mean                  =   1.0000000000000E-04
(PID.TID 0000.0001) %MON vort_a_sd                    =   6.3530841099872E-06
(PID.TID 0000.0001) %MON vort_p_mean                  =   1.0161982423688E-04
(PID.TID 0000.0001) %MON vort_p_sd                    =   3.4382838864341E-05
(PID.TID 0000.0001) %MON surfExpan_theta_mean         =   1.6556078187057E-05
(PID.TID 0000.0001) %MON surfExpan_salt_mean          =   8.3395731228864E-04
(PID.TID 0000.0001) // =======================================================
(PID.TID 0000.0001) // End MONITOR dynamic field statistics
(PID.TID 0000.0001) // =======================================================
(PID.TID 0000.0001) // =======================================================
(PID.TID 0000.0001) // Begin OBCS MONITOR field statistics
(PID.TID 0000.0001) // =======================================================
(PID.TID 0000.0001) %MON obc_time_tsnumber            =                    10
(PID.TID 0000.0001) %MON obc_time_secondsf            =   1.6800000000000E+04
(PID.TID 0000.0001) %MON obc_E_uVel_max               =   2.4888888888889E-01
(PID.TID 0000.0001) %MON obc_E_uVel_min               =   2.4888888888889E-01
(PID.TID 0000.0001) %MON obc_E_uVel_mean              =   2.4888888888889E-01
(PID.TID 0000.0001) %MON obc_E_uVel_sd                =   1.0860994262333E-08
(PID.TID 0000.0001) %MON obc_E_uVel_Int               =   2.2399999999999E+08
(PID.TID 0000.0001) %MON obc_W_uVel_max               =   2.5111111111111E-01
(PID.TID 0000.0001) %MON obc_W_uVel_min               =   2.5111111111111E-01
(PID.TID 0000.0001) %MON obc_W_uVel_mean              =   2.5111111111111E-01
(PID.TID 0000.0001) %MON obc_W_uVel_sd                =   1.2904784139759E-08
(PID.TID 0000.0001) %MON obc_W_uVel_Int               =   2.2599999999999E+08
(PID.TID 0000.0001) %MON obc_N_vVel_max               =   0.0000000000000E+00
(PID.TID 0000.0001) %MON obc_N_vVel_min               =   0.0000000000000E+00
(PID.TID 0000.0001) %MON obc_N_vVel_mean              =   0.0000000000000E+00
(PID.TID 0000.0001) %MON obc_N_vVel_sd                =   0.0000000000000E+00
(PID.TID 0000.0001) %MON obc_N_vVel_Int               =   0.0000000000000E+00
(PID.TID 0000.0001) %MON obc_S_vVel_max               =   0.0000000000000E+00
(PID.TID 0000.0001) %MON obc_S_vVel_min               =   0.0000000000000E+00
(PID.TID 0000.0001) %MON obc_S_vVel_mean              =   0.0000000000000E+00
(PID.TID 0000.0001) %MON obc_S_vVel_sd                =   0.0000000000000E+00
(PID.TID 0000.0001) %MON obc_S_vVel_Int               =   0.0000000000000E+00
(PID.TID 0000.0001) %MON obc_E_theta_max              =   6.9683400000000E-01
(PID.TID 0000.0001) %MON obc_E_theta_min              =  -6.9683400000000E-01
(PID.TID 0000.0001) %MON obc_E_theta_mean             =   2.6226043701173E-14
(PID.TID 0000.0001) %MON obc_E_theta_sd               =   4.5618475594441E-01
(PID.TID 0000.0001) %MON obc_W_theta_max              =   6.9683400000000E-01
(PID.TID 0000.0001) %MON obc_W_theta_min              =  -6.9683400000000E-01
(PID.TID 0000.0001) %MON obc_W_theta_mean             =   2.6226043701173E-14
(PID.TID 0000.0001) %MON obc_W_theta_sd               =   4.5618475594441E-01
(PID.TID 0000.0001) %MON obc_N_theta_max              =   6.9683400000000E-01
(PID.TID 0000.0001) %MON obc_N_theta_min              =  -6.9683400000000E-01
(PID.TID 0000.0001) %MON obc_N_theta_mean             =   5.0183265503355E-05
(PID.TID 0000.0001) %MON obc_N_theta_sd               =   4.5616285086401E-01
(PID.TID 0000.0001) %MON obc_S_theta_max              =   6.9683400000000E-01
(PID.TID 0000.0001) %MON obc_S_theta_min              =  -6.9683400000000E-01
(PID.TID 0000.0001) %MON obc_S_theta_mean             =   5.0183265503355E-05
(PID.TID 0000.0001) %MON obc_S_theta_sd               =   4.5616285086401E-01
(PID.TID 0000.0001) // =======================================================
(PID.TID 0000.0001) // End OBCS MONITOR field statistics
(PID.TID 0000.0001) // =======================================================
(PID.TID 0000.0001) // =======================================================
(PID.TID 0000.0001) // Begin MONITOR ptracer field statistics
(PID.TID 0000.0001) // =======================================================
(PID.TID 0000.0001) %MON trcstat_ptracer01_max        =   3.5330806203229E+01
(PID.TID 0000.0001) %MON trcstat_ptracer01_min        =   3.4999584285958E+01
(PID.TID 0000.0001) %MON trcstat_ptracer01_mean       =   3.5006810557658E+01
(PID.TID 0000.0001) %MON trcstat_ptracer01_sd         =   3.8871796343003E-02
(PID.TID 0000.0001) %MON trcstat_ptracer01_del2       =   3.4047111915470E-04
(PID.TID 0000.0001) // =======================================================
(PID.TID 0000.0001) // End MONITOR ptracers field statistics
(PID.TID 0000.0001) // =======================================================
(PID.TID 0000.0001) %CHECKPOINT        10 ckptA
(PID.TID 0000.0001)   Seconds in section "ALL                    [THE_MODEL_MAIN]":
(PID.TID 0000.0001)           User time:   56.829999999999998
(PID.TID 0000.0001)         System time:  2.99999999999999989E-002
(PID.TID 0000.0001)     Wall clock time:   57.071778059005737
(PID.TID 0000.0001)          No. starts:           1
(PID.TID 0000.0001)           No. stops:           1
(PID.TID 0000.0001)   Seconds in section "INITIALISE_FIXED       [THE_MODEL_MAIN]":
(PID.TID 0000.0001)           User time:  0.10000000000000001
(PID.TID 0000.0001)         System time:   0.0000000000000000
(PID.TID 0000.0001)     Wall clock time:  0.15276503562927246
(PID.TID 0000.0001)          No. starts:           1
(PID.TID 0000.0001)           No. stops:           1
(PID.TID 0000.0001)   Seconds in section "THE_MAIN_LOOP          [THE_MODEL_MAIN]":
(PID.TID 0000.0001)           User time:   56.729999999999997
(PID.TID 0000.0001)         System time:  2.99999999999999989E-002
(PID.TID 0000.0001)     Wall clock time:   56.918957948684692
(PID.TID 0000.0001)          No. starts:           1
(PID.TID 0000.0001)           No. stops:           1
(PID.TID 0000.0001)   Seconds in section "INITIALISE_VARIA    [THE_MAIN_LOOP]":
(PID.TID 0000.0001)           User time:  0.12000000000000000
(PID.TID 0000.0001)         System time:  1.00000000000000002E-002
(PID.TID 0000.0001)     Wall clock time:  0.16896700859069824
(PID.TID 0000.0001)          No. starts:           1
(PID.TID 0000.0001)           No. stops:           1
(PID.TID 0000.0001)   Seconds in section "MAIN LOOP           [THE_MAIN_LOOP]":
(PID.TID 0000.0001)           User time:   56.609999999999999
(PID.TID 0000.0001)         System time:  1.99999999999999969E-002
(PID.TID 0000.0001)     Wall clock time:   56.749960899353027
(PID.TID 0000.0001)          No. starts:           1
(PID.TID 0000.0001)           No. stops:           1
(PID.TID 0000.0001)   Seconds in section "FORWARD_STEP        [THE_MAIN_LOOP]":
(PID.TID 0000.0001)           User time:   56.609999999999999
(PID.TID 0000.0001)         System time:  1.99999999999999900E-002
(PID.TID 0000.0001)     Wall clock time:   56.749857664108276
(PID.TID 0000.0001)          No. starts:          10
(PID.TID 0000.0001)           No. stops:          10
(PID.TID 0000.0001)   Seconds in section "UPDATE_SURF_DR      [FORWARD_STEP]":
(PID.TID 0000.0001)           User time:  4.00000000000062528E-002
(PID.TID 0000.0001)         System time:   0.0000000000000000
(PID.TID 0000.0001)     Wall clock time:  4.29129600524902344E-002
(PID.TID 0000.0001)          No. starts:          20
(PID.TID 0000.0001)           No. stops:          20
(PID.TID 0000.0001)   Seconds in section "LOAD_FIELDS_DRIVER  [FORWARD_STEP]":
(PID.TID 0000.0001)           User time:  7.99999999999982947E-002
(PID.TID 0000.0001)         System time:   0.0000000000000000
(PID.TID 0000.0001)     Wall clock time:  5.26249408721923828E-002
(PID.TID 0000.0001)          No. starts:          10
(PID.TID 0000.0001)           No. stops:          10
(PID.TID 0000.0001)   Seconds in section "EXTERNAL_FLDS_LOAD [LOAD_FLDS_DRIVER]":
(PID.TID 0000.0001)           User time:   0.0000000000000000
(PID.TID 0000.0001)         System time:   0.0000000000000000
(PID.TID 0000.0001)     Wall clock time:  1.64604187011718750E-003
(PID.TID 0000.0001)          No. starts:          10
(PID.TID 0000.0001)           No. stops:          10
(PID.TID 0000.0001)   Seconds in section "RBCS_FIELDS_LOAD      [I/O]":
(PID.TID 0000.0001)           User time:  7.99999999999982947E-002
(PID.TID 0000.0001)         System time:   0.0000000000000000
(PID.TID 0000.0001)     Wall clock time:  5.06949424743652344E-002
(PID.TID 0000.0001)          No. starts:          10
(PID.TID 0000.0001)           No. stops:          10
(PID.TID 0000.0001)   Seconds in section "DO_ATMOSPHERIC_PHYS [FORWARD_STEP]":
(PID.TID 0000.0001)           User time:   0.0000000000000000
(PID.TID 0000.0001)         System time:   0.0000000000000000
(PID.TID 0000.0001)     Wall clock time:  9.27448272705078125E-005
(PID.TID 0000.0001)          No. starts:          10
(PID.TID 0000.0001)           No. stops:          10
(PID.TID 0000.0001)   Seconds in section "DO_OCEANIC_PHYS     [FORWARD_STEP]":
(PID.TID 0000.0001)           User time:   0.0000000000000000
(PID.TID 0000.0001)         System time:   0.0000000000000000
(PID.TID 0000.0001)     Wall clock time:  3.27150821685791016E-002
(PID.TID 0000.0001)          No. starts:          10
(PID.TID 0000.0001)           No. stops:          10
(PID.TID 0000.0001)   Seconds in section "THERMODYNAMICS      [FORWARD_STEP]":
(PID.TID 0000.0001)           User time:   1.1000000000000014
(PID.TID 0000.0001)         System time:   0.0000000000000000
(PID.TID 0000.0001)     Wall clock time:   1.0675737857818604
(PID.TID 0000.0001)          No. starts:          10
(PID.TID 0000.0001)           No. stops:          10
(PID.TID 0000.0001)   Seconds in section "DYNAMICS            [FORWARD_STEP]":
(PID.TID 0000.0001)           User time:   1.5100000000000051
(PID.TID 0000.0001)         System time:   0.0000000000000000
(PID.TID 0000.0001)     Wall clock time:   1.5453281402587891
(PID.TID 0000.0001)          No. starts:          10
(PID.TID 0000.0001)           No. stops:          10
(PID.TID 0000.0001)   Seconds in section "CALC_GW          [DYNAMICS]":
(PID.TID 0000.0001)           User time:  0.33000000000003382
(PID.TID 0000.0001)         System time:   0.0000000000000000
(PID.TID 0000.0001)     Wall clock time:  0.35801529884338379
(PID.TID 0000.0001)          No. starts:          40
(PID.TID 0000.0001)           No. stops:          40
(PID.TID 0000.0001)   Seconds in section "SOLVE_FOR_PRESSURE  [FORWARD_STEP]":
(PID.TID 0000.0001)           User time:   53.039999999999985
(PID.TID 0000.0001)         System time:  1.99999999999999900E-002
(PID.TID 0000.0001)     Wall clock time:   53.151429653167725
(PID.TID 0000.0001)          No. starts:          10
(PID.TID 0000.0001)           No. stops:          10
(PID.TID 0000.0001)   Seconds in section "CG3D   [SOLVE_FOR_PRESSURE]":
(PID.TID 0000.0001)           User time:   50.270000000000003
(PID.TID 0000.0001)         System time:  1.99999999999999900E-002
(PID.TID 0000.0001)     Wall clock time:   50.400333881378174
(PID.TID 0000.0001)          No. starts:          10
(PID.TID 0000.0001)           No. stops:          10
(PID.TID 0000.0001)   Seconds in section "MOM_CORRECTION_STEP [FORWARD_STEP]":
(PID.TID 0000.0001)           User time:  0.17000000000000171
(PID.TID 0000.0001)         System time:   0.0000000000000000
(PID.TID 0000.0001)     Wall clock time:  0.16181206703186035
(PID.TID 0000.0001)          No. starts:          10
(PID.TID 0000.0001)           No. stops:          10
(PID.TID 0000.0001)   Seconds in section "UPDATE_ETAH         [FORWARD_STEP]":
(PID.TID 0000.0001)           User time:  9.99999999999801048E-003
(PID.TID 0000.0001)         System time:   0.0000000000000000
(PID.TID 0000.0001)     Wall clock time:  2.65812873840332031E-003
(PID.TID 0000.0001)          No. starts:          10
(PID.TID 0000.0001)           No. stops:          10
(PID.TID 0000.0001)   Seconds in section "TRC_CORRECTION_STEP [FORWARD_STEP]":
(PID.TID 0000.0001)           User time:  9.99999999999801048E-003
(PID.TID 0000.0001)         System time:   0.0000000000000000
(PID.TID 0000.0001)     Wall clock time:  2.56986618041992188E-002
(PID.TID 0000.0001)          No. starts:          10
(PID.TID 0000.0001)           No. stops:          10
(PID.TID 0000.0001)   Seconds in section "BLOCKING_EXCHANGES  [FORWARD_STEP]":
(PID.TID 0000.0001)           User time:  3.00000000000011369E-002
(PID.TID 0000.0001)         System time:   0.0000000000000000
(PID.TID 0000.0001)     Wall clock time:  3.34389209747314453E-002
(PID.TID 0000.0001)          No. starts:          10
(PID.TID 0000.0001)           No. stops:          10
(PID.TID 0000.0001)   Seconds in section "MONITOR             [FORWARD_STEP]":
(PID.TID 0000.0001)           User time:  0.52000000000000313
(PID.TID 0000.0001)         System time:   0.0000000000000000
(PID.TID 0000.0001)     Wall clock time:  0.52903366088867188
(PID.TID 0000.0001)          No. starts:          10
(PID.TID 0000.0001)           No. stops:          10
(PID.TID 0000.0001)   Seconds in section "DO_THE_MODEL_IO     [FORWARD_STEP]":
(PID.TID 0000.0001)           User time:  7.00000000000002842E-002
(PID.TID 0000.0001)         System time:   0.0000000000000000
(PID.TID 0000.0001)     Wall clock time:  7.71069526672363281E-002
(PID.TID 0000.0001)          No. starts:          10
(PID.TID 0000.0001)           No. stops:          10
(PID.TID 0000.0001)   Seconds in section "DO_WRITE_PICKUP     [FORWARD_STEP]":
(PID.TID 0000.0001)           User time:  2.99999999999940314E-002
(PID.TID 0000.0001)         System time:   0.0000000000000000
(PID.TID 0000.0001)     Wall clock time:  2.58917808532714844E-002
(PID.TID 0000.0001)          No. starts:          10
(PID.TID 0000.0001)           No. stops:          10
(PID.TID 0000.0001) // ======================================================
(PID.TID 0000.0001) // Tile <-> Tile communication statistics
(PID.TID 0000.0001) // ======================================================
(PID.TID 0000.0001) // o Tile number: 000001
(PID.TID 0000.0001) //         No. X exchanges =              0
(PID.TID 0000.0001) //            Max. X spins =              0
(PID.TID 0000.0001) //            Min. X spins =     1000000000
(PID.TID 0000.0001) //          Total. X spins =              0
(PID.TID 0000.0001) //            Avg. X spins =       0.00E+00
(PID.TID 0000.0001) //         No. Y exchanges =              0
(PID.TID 0000.0001) //            Max. Y spins =              0
(PID.TID 0000.0001) //            Min. Y spins =     1000000000
(PID.TID 0000.0001) //          Total. Y spins =              0
(PID.TID 0000.0001) //            Avg. Y spins =       0.00E+00
(PID.TID 0000.0001) // o Tile number: 000002
(PID.TID 0000.0001) //         No. X exchanges =              0
(PID.TID 0000.0001) //            Max. X spins =              0
(PID.TID 0000.0001) //            Min. X spins =     1000000000
(PID.TID 0000.0001) //          Total. X spins =              0
(PID.TID 0000.0001) //            Avg. X spins =       0.00E+00
(PID.TID 0000.0001) //         No. Y exchanges =              0
(PID.TID 0000.0001) //            Max. Y spins =              0
(PID.TID 0000.0001) //            Min. Y spins =     1000000000
(PID.TID 0000.0001) //          Total. Y spins =              0
(PID.TID 0000.0001) //            Avg. Y spins =       0.00E+00
(PID.TID 0000.0001) // o Tile number: 000003
(PID.TID 0000.0001) //         No. X exchanges =              0
(PID.TID 0000.0001) //            Max. X spins =              0
(PID.TID 0000.0001) //            Min. X spins =     1000000000
(PID.TID 0000.0001) //          Total. X spins =              0
(PID.TID 0000.0001) //            Avg. X spins =       0.00E+00
(PID.TID 0000.0001) //         No. Y exchanges =              0
(PID.TID 0000.0001) //            Max. Y spins =              0
(PID.TID 0000.0001) //            Min. Y spins =     1000000000
(PID.TID 0000.0001) //          Total. Y spins =              0
(PID.TID 0000.0001) //            Avg. Y spins =       0.00E+00
(PID.TID 0000.0001) // o Tile number: 000004
(PID.TID 0000.0001) //         No. X exchanges =              0
(PID.TID 0000.0001) //            Max. X spins =              0
(PID.TID 0000.0001) //            Min. X spins =     1000000000
(PID.TID 0000.0001) //          Total. X spins =              0
(PID.TID 0000.0001) //            Avg. X spins =       0.00E+00
(PID.TID 0000.0001) //         No. Y exchanges =              0
(PID.TID 0000.0001) //            Max. Y spins =              0
(PID.TID 0000.0001) //            Min. Y spins =     1000000000
(PID.TID 0000.0001) //          Total. Y spins =              0
(PID.TID 0000.0001) //            Avg. Y spins =       0.00E+00
(PID.TID 0000.0001) // o Thread number: 000001
(PID.TID 0000.0001) //            No. barriers =          35316
(PID.TID 0000.0001) //      Max. barrier spins =              1
(PID.TID 0000.0001) //      Min. barrier spins =              1
(PID.TID 0000.0001) //     Total barrier spins =          35316
(PID.TID 0000.0001) //      Avg. barrier spins =       1.00E+00
PROGRAM MAIN: Execution ended Normally
