(PID.TID 0000.0001) 
(PID.TID 0000.0001) // ======================================================
(PID.TID 0000.0001) //                      MITgcm UV
(PID.TID 0000.0001) //                      =========
(PID.TID 0000.0001) // ======================================================
(PID.TID 0000.0001) // execution environment starting up...
(PID.TID 0000.0001) 
(PID.TID 0000.0001) // MITgcmUV version:  checkpoint57n_post
(PID.TID 0000.0001) // Build user:        jmc
(PID.TID 0000.0001) // Build host:        faulks
(PID.TID 0000.0001) // Build date:        Fri Jul 29 17:45:59 EDT 2005
(PID.TID 0000.0001) 
(PID.TID 0000.0001) // =======================================================
(PID.TID 0000.0001) // Execution Environment parameter file "eedata"
(PID.TID 0000.0001) // =======================================================
(PID.TID 0000.0001) ># Example "eedata" file
(PID.TID 0000.0001) ># Lines beginning "#" are comments
(PID.TID 0000.0001) ># nTx - No. threads per process in X
(PID.TID 0000.0001) ># nTy - No. threads per process in Y
(PID.TID 0000.0001) > &EEPARMS
(PID.TID 0000.0001) > &
(PID.TID 0000.0001) ># Note: Some systems use & as the
(PID.TID 0000.0001) ># namelist terminator. Other systems
(PID.TID 0000.0001) ># use a / character (as shown here).
(PID.TID 0000.0001) 
(PID.TID 0000.0001) // =======================================================
(PID.TID 0000.0001) // Computational Grid Specification ( see files "SIZE.h" )
(PID.TID 0000.0001) //                                  ( and "eedata"       )
(PID.TID 0000.0001) // =======================================================
(PID.TID 0000.0001)      nPx =    1 ; /* No. processes in X */
(PID.TID 0000.0001)      nPy =    1 ; /* No. processes in Y */
(PID.TID 0000.0001)      nSx =    1 ; /* No. tiles in X per process */
(PID.TID 0000.0001)      nSy =    1 ; /* No. tiles in Y per process */
(PID.TID 0000.0001)      sNx =    3 ; /* Tile size in X */
(PID.TID 0000.0001)      sNy =    1 ; /* Tile size in Y */
(PID.TID 0000.0001)      OLx =    3 ; /* Tile overlap distance in X */
(PID.TID 0000.0001)      OLy =    3 ; /* Tile overlap distance in Y */
(PID.TID 0000.0001)      nTx =    1 ; /* No. threads in X per process */
(PID.TID 0000.0001)      nTy =    1 ; /* No. threads in Y per process */
(PID.TID 0000.0001)       Nr =   20 ; /* No. levels in the vertical   */
(PID.TID 0000.0001)       nX =    3 ; /* Total domain size in X ( = nPx*nSx*sNx ) */
(PID.TID 0000.0001)       nY =    1 ; /* Total domain size in Y ( = nPy*nSy*sNy ) */
(PID.TID 0000.0001)   nTiles =    1 ; /* Total no. tiles per process ( = nSx*nSy ) */
(PID.TID 0000.0001)   nProcs =    1 ; /* Total no. processes ( = nPx*nPy ) */
(PID.TID 0000.0001) nThreads =    1 ; /* Total no. threads per process ( = nTx*nTy ) */
(PID.TID 0000.0001) usingMPI =    F ; /* Flag used to control whether MPI is in use */
(PID.TID 0000.0001)                   /*  note: To execute a program with MPI calls */
(PID.TID 0000.0001)                   /*  it must be launched appropriately e.g     */
(PID.TID 0000.0001)                   /*  "mpirun -np 64 ......"                    */
(PID.TID 0000.0001) useCoupler=   F ; /* Flag used to control communications with */
(PID.TID 0000.0001)                   /*  other model components, through a coupler */
(PID.TID 0000.0001) 
(PID.TID 0000.0001) // ======================================================
(PID.TID 0000.0001) // Mapping of tiles to threads
(PID.TID 0000.0001) // ======================================================
(PID.TID 0000.0001) // -o- Thread   1, tiles (   1:   1,   1:   1)
(PID.TID 0000.0001) 
(PID.TID 0000.0001) // ======================================================
(PID.TID 0000.0001) // Tile <-> Tile connectvity table
(PID.TID 0000.0001) // ======================================================
(PID.TID 0000.0001) // Tile number: 000001 (process no. = 000001)
(PID.TID 0000.0001) //        WEST: Tile = 000001, Process = 000001, Comm = put
(PID.TID 0000.0001) //                bi = 000001, bj = 000001
(PID.TID 0000.0001) //        EAST: Tile = 000001, Process = 000001, Comm = put
(PID.TID 0000.0001) //                bi = 000001, bj = 000001
(PID.TID 0000.0001) //       SOUTH: Tile = 000001, Process = 000001, Comm = put
(PID.TID 0000.0001) //                bi = 000001, bj = 000001
(PID.TID 0000.0001) //       NORTH: Tile = 000001, Process = 000001, Comm = put
(PID.TID 0000.0001) //                bi = 000001, bj = 000001
(PID.TID 0000.0001) 
(PID.TID 0000.0001) // =======================================================
(PID.TID 0000.0001) // Model parameter file "data"
(PID.TID 0000.0001) // =======================================================
(PID.TID 0000.0001) ># ====================
(PID.TID 0000.0001) ># | Model parameters |
(PID.TID 0000.0001) ># ====================
(PID.TID 0000.0001) >#
(PID.TID 0000.0001) ># Continuous equation parameters
(PID.TID 0000.0001) > &PARM01
(PID.TID 0000.0001) > tRef=20*1.,
(PID.TID 0000.0001) > sRef=20*35.,
(PID.TID 0000.0001) > viscA4=0.0E4,
(PID.TID 0000.0001) > viscAh=0.E-2,
(PID.TID 0000.0001) > viscAz=1.E-4,
(PID.TID 0000.0001) > no_slip_sides=.TRUE.,
(PID.TID 0000.0001) > no_slip_bottom=.TRUE.,
(PID.TID 0000.0001) > diffK4T=0.E4,
(PID.TID 0000.0001) > diffKhT=0.E-2,
(PID.TID 0000.0001) > diffKzT=1.E-5,
(PID.TID 0000.0001) > diffK4S=0.E4,
(PID.TID 0000.0001) > diffKhS=0.E-2,
(PID.TID 0000.0001) > diffKzS=1.E-5,
(PID.TID 0000.0001) > f0=1.4e-4,
(PID.TID 0000.0001) > beta=0.E-11,
(PID.TID 0000.0001) > tAlpha=2.E-4,
(PID.TID 0000.0001) > sBeta =0.E-4,
(PID.TID 0000.0001) > rigidLid=.FALSE.,
(PID.TID 0000.0001) > implicitFreeSurface=.TRUE.,
(PID.TID 0000.0001) >#ivdc_kappa=10.,
(PID.TID 0000.0001) > implicitDiffusion=.TRUE.,
(PID.TID 0000.0001) > implicitViscosity=.TRUE.,
(PID.TID 0000.0001) > eosType='LINEAR',
(PID.TID 0000.0001) >#eosType='MDJWF',
(PID.TID 0000.0001) > hFacMin=0.05,
(PID.TID 0000.0001) > readBinaryPrec=64,
(PID.TID 0000.0001) > bottomDragLinear=0.E-4,
(PID.TID 0000.0001) > debugLevel=1,
(PID.TID 0000.0001) > tempAdvection=.false.,
(PID.TID 0000.0001) > tempAdvScheme=33,
(PID.TID 0000.0001) > &
(PID.TID 0000.0001) >
(PID.TID 0000.0001) ># Elliptic solver parameters
(PID.TID 0000.0001) > &PARM02
(PID.TID 0000.0001) > cg2dMaxIters=300,
(PID.TID 0000.0001) > cg2dTargetResidual=1.E-13,
(PID.TID 0000.0001) > &
(PID.TID 0000.0001) >
(PID.TID 0000.0001) ># Time stepping parameters
(PID.TID 0000.0001) > &PARM03
(PID.TID 0000.0001) > niter0=0,
(PID.TID 0000.0001) > nTimeSteps=20,
(PID.TID 0000.0001) >#nTimeSteps=720,
(PID.TID 0000.0001) >#nTimeSteps=8640,
(PID.TID 0000.0001) > deltaT=1200.0,
(PID.TID 0000.0001) >#cAdjFreq=-1.,
(PID.TID 0000.0001) > abEps=0.01,
(PID.TID 0000.0001) > pChkptFreq=0.0,
(PID.TID 0000.0001) > chkptFreq=0.0,
(PID.TID 0000.0001) > taveFreq=86400.0,
(PID.TID 0000.0001) > dumpFreq=86400.0,
(PID.TID 0000.0001) >#dumpFreq=1.0,
(PID.TID 0000.0001) > monitorFreq=86400.,
(PID.TID 0000.0001) > monitorFreq=1.,
(PID.TID 0000.0001) > &
(PID.TID 0000.0001) >
(PID.TID 0000.0001) ># Gridding parameters
(PID.TID 0000.0001) > &PARM04
(PID.TID 0000.0001) > usingCartesianGrid=.TRUE.,
(PID.TID 0000.0001) > usingSphericalPolarGrid=.FALSE.,
(PID.TID 0000.0001) > dXspacing=5000,
(PID.TID 0000.0001) > dYspacing=5000.,
(PID.TID 0000.0001) > delZ=20*50,
(PID.TID 0000.0001) > &
(PID.TID 0000.0001) >
(PID.TID 0000.0001) ># Input datasets
(PID.TID 0000.0001) > &PARM05
(PID.TID 0000.0001) > hydrogThetaFile='T.init',
(PID.TID 0000.0001) >#hydrogThetaFile='Tinstable.init',
(PID.TID 0000.0001) > hydrogThetaFile='Tstable2.init',
(PID.TID 0000.0001) > surfQfile='Qnet.forcing',
(PID.TID 0000.0001) > zonalWindFile='taux.forcing',
(PID.TID 0000.0001) > &
(PID.TID 0000.0001) 
(PID.TID 0000.0001) S/R INI_PARMS ; starts to read PARM01
(PID.TID 0000.0001) S/R INI_PARMS ; read PARM01 : OK
(PID.TID 0000.0001) S/R INI_PARMS ; starts to read PARM02
(PID.TID 0000.0001) S/R INI_PARMS ; read PARM02 : OK
(PID.TID 0000.0001) S/R INI_PARMS ; starts to read PARM03
(PID.TID 0000.0001) S/R INI_PARMS ; read PARM03 : OK
(PID.TID 0000.0001) S/R INI_PARMS ; starts to read PARM04
(PID.TID 0000.0001) S/R INI_PARMS ; read PARM04 : OK
(PID.TID 0000.0001) S/R INI_PARMS ; starts to read PARM05
(PID.TID 0000.0001) S/R INI_PARMS ; read PARM05 : OK
(PID.TID 0000.0001)  PACKAGES_BOOT: opening data.pkg
(PID.TID 0000.0001)  OPEN_COPY_DATA_FILE: opening file data.pkg
(PID.TID 0000.0001) // =======================================================
(PID.TID 0000.0001) // Parameter file "data.pkg"
(PID.TID 0000.0001) // =======================================================
(PID.TID 0000.0001) ># Packages
(PID.TID 0000.0001) > &PACKAGES
(PID.TID 0000.0001) > useMY82=.TRUE.,
(PID.TID 0000.0001) > &
(PID.TID 0000.0001) 
(PID.TID 0000.0001)  PACKAGES_BOOT: finished reading data.pkg
(PID.TID 0000.0001)  MY82_READPARMS: opening data.my82
(PID.TID 0000.0001)  OPEN_COPY_DATA_FILE: opening file data.my82
(PID.TID 0000.0001) // =======================================================
(PID.TID 0000.0001) // Parameter file "data.my82"
(PID.TID 0000.0001) // =======================================================
(PID.TID 0000.0001) ># =====================================================================
(PID.TID 0000.0001) ># | Parameters for Pacanowski&Philander (1981) vertical mixing scheme |
(PID.TID 0000.0001) ># =====================================================================
(PID.TID 0000.0001) > &MY_PARM01
(PID.TID 0000.0001) > MYwriteState=.TRUE.,
(PID.TID 0000.0001) > MYdiffMax = 10.,
(PID.TID 0000.0001) >#MYhblScale = 1.,
(PID.TID 0000.0001) > &
(PID.TID 0000.0001) 
(PID.TID 0000.0001)  MY82_READPARMS: finished reading data.my82
(PID.TID 0000.0001) %MON XC_max                       =   1.2500000000000E+04
(PID.TID 0000.0001) %MON XC_min                       =   2.5000000000000E+03
(PID.TID 0000.0001) %MON XC_mean                      =   7.5000000000000E+03
(PID.TID 0000.0001) %MON XC_sd                        =   4.0824829046386E+03
(PID.TID 0000.0001) %MON XG_max                       =   1.0000000000000E+04
(PID.TID 0000.0001) %MON XG_min                       =   5.0000000000000E+03
(PID.TID 0000.0001) %MON XG_mean                      =   7.5000000000000E+03
(PID.TID 0000.0001) %MON XG_sd                        =   2.5000000000000E+03
(PID.TID 0000.0001) %MON DXC_max                      =   5.0000000000000E+03
(PID.TID 0000.0001) %MON DXC_min                      =   5.0000000000000E+03
(PID.TID 0000.0001) %MON DXC_mean                     =   5.0000000000000E+03
(PID.TID 0000.0001) %MON DXC_sd                       =   0.0000000000000E+00
(PID.TID 0000.0001) %MON DXF_max                      =   5.0000000000000E+03
(PID.TID 0000.0001) %MON DXF_min                      =   5.0000000000000E+03
(PID.TID 0000.0001) %MON DXF_mean                     =   5.0000000000000E+03
(PID.TID 0000.0001) %MON DXF_sd                       =   0.0000000000000E+00
(PID.TID 0000.0001) %MON DXG_max                      =   5.0000000000000E+03
(PID.TID 0000.0001) %MON DXG_min                      =   5.0000000000000E+03
(PID.TID 0000.0001) %MON DXG_mean                     =   5.0000000000000E+03
(PID.TID 0000.0001) %MON DXG_sd                       =   0.0000000000000E+00
(PID.TID 0000.0001) %MON DXV_max                      =   5.0000000000000E+03
(PID.TID 0000.0001) %MON DXV_min                      =   5.0000000000000E+03
(PID.TID 0000.0001) %MON DXV_mean                     =   5.0000000000000E+03
(PID.TID 0000.0001) %MON DXV_sd                       =   0.0000000000000E+00
(PID.TID 0000.0001) %MON YC_max                       =   2.5000000000000E+03
(PID.TID 0000.0001) %MON YC_min                       =   2.5000000000000E+03
(PID.TID 0000.0001) %MON YC_mean                      =   2.5000000000000E+03
(PID.TID 0000.0001) %MON YC_sd                        =   0.0000000000000E+00
(PID.TID 0000.0001) %MON YG_max                       =   0.0000000000000E+00
(PID.TID 0000.0001) %MON YG_min                       =   0.0000000000000E+00
(PID.TID 0000.0001) %MON YG_mean                      =   0.0000000000000E+00
(PID.TID 0000.0001) %MON YG_sd                        =   0.0000000000000E+00
(PID.TID 0000.0001) %MON DYC_max                      =   5.0000000000000E+03
(PID.TID 0000.0001) %MON DYC_min                      =   5.0000000000000E+03
(PID.TID 0000.0001) %MON DYC_mean                     =   5.0000000000000E+03
(PID.TID 0000.0001) %MON DYC_sd                       =   0.0000000000000E+00
(PID.TID 0000.0001) %MON DYF_max                      =   5.0000000000000E+03
(PID.TID 0000.0001) %MON DYF_min                      =   5.0000000000000E+03
(PID.TID 0000.0001) %MON DYF_mean                     =   5.0000000000000E+03
(PID.TID 0000.0001) %MON DYF_sd                       =   0.0000000000000E+00
(PID.TID 0000.0001) %MON DYG_max                      =   5.0000000000000E+03
(PID.TID 0000.0001) %MON DYG_min                      =   5.0000000000000E+03
(PID.TID 0000.0001) %MON DYG_mean                     =   5.0000000000000E+03
(PID.TID 0000.0001) %MON DYG_sd                       =   0.0000000000000E+00
(PID.TID 0000.0001) %MON DYU_max                      =   5.0000000000000E+03
(PID.TID 0000.0001) %MON DYU_min                      =   5.0000000000000E+03
(PID.TID 0000.0001) %MON DYU_mean                     =   5.0000000000000E+03
(PID.TID 0000.0001) %MON DYU_sd                       =   0.0000000000000E+00
(PID.TID 0000.0001) %MON RA_max                       =   2.5000000000000E+07
(PID.TID 0000.0001) %MON RA_min                       =   2.5000000000000E+07
(PID.TID 0000.0001) %MON RA_mean                      =   2.5000000000000E+07
(PID.TID 0000.0001) %MON RA_sd                        =   0.0000000000000E+00
(PID.TID 0000.0001) %MON RAW_max                      =   2.5000000000000E+07
(PID.TID 0000.0001) %MON RAW_min                      =   2.5000000000000E+07
(PID.TID 0000.0001) %MON RAW_mean                     =   2.5000000000000E+07
(PID.TID 0000.0001) %MON RAW_sd                       =   0.0000000000000E+00
(PID.TID 0000.0001) %MON RAS_max                      =   2.5000000000000E+07
(PID.TID 0000.0001) %MON RAS_min                      =   2.5000000000000E+07
(PID.TID 0000.0001) %MON RAS_mean                     =   2.5000000000000E+07
(PID.TID 0000.0001) %MON RAS_sd                       =   0.0000000000000E+00
(PID.TID 0000.0001) %MON RAZ_max                      =   2.5000000000000E+07
(PID.TID 0000.0001) %MON RAZ_min                      =   2.5000000000000E+07
(PID.TID 0000.0001) %MON RAZ_mean                     =   2.5000000000000E+07
(PID.TID 0000.0001) %MON RAZ_sd                       =   0.0000000000000E+00
(PID.TID 0000.0001) %MON AngleCS_max                  =   1.0000000000000E+00
(PID.TID 0000.0001) %MON AngleCS_min                  =   1.0000000000000E+00
(PID.TID 0000.0001) %MON AngleCS_mean                 =   1.0000000000000E+00
(PID.TID 0000.0001) %MON AngleCS_sd                   =   0.0000000000000E+00
(PID.TID 0000.0001) %MON AngleSN_max                  =   0.0000000000000E+00
(PID.TID 0000.0001) %MON AngleSN_min                  =   0.0000000000000E+00
(PID.TID 0000.0001) %MON AngleSN_mean                 =   0.0000000000000E+00
(PID.TID 0000.0001) %MON AngleSN_sd                   =   0.0000000000000E+00
(PID.TID 0000.0001) // =======================================================
(PID.TID 0000.0001) // Field Model R_low (ini_masks_etc) at iteration          1
(PID.TID 0000.0001) // CMIN =         -1.000000000000000E+03
(PID.TID 0000.0001) // CMAX =         -1.000000000000000E+03
(PID.TID 0000.0001) // CINT =          0.000000000000000E+00
(PID.TID 0000.0001) // SYMBOLS (CMIN->CMAX): -abcdefghijklmnopqrstuvwxyz+
(PID.TID 0000.0001) //                  0.0: .
(PID.TID 0000.0001) // RANGE I (Lo:Hi:Step):(  -2:   6:   1)
(PID.TID 0000.0001) // RANGE J (Lo:Hi:Step):(   4:  -2:  -1)
(PID.TID 0000.0001) // RANGE K (Lo:Hi:Step):(   1:   1:   1)
(PID.TID 0000.0001) // =======================================================
(PID.TID 0000.0001) // =======================================================
(PID.TID 0000.0001) // END OF FIELD                                          =
(PID.TID 0000.0001) // =======================================================
(PID.TID 0000.0001) 
(PID.TID 0000.0001) // =======================================================
(PID.TID 0000.0001) // Field Model Ro_surf (ini_masks_etc) at iteration          1
(PID.TID 0000.0001) // CMIN =          1.000000000000000E+32
(PID.TID 0000.0001) // CMAX =         -1.000000000000000E+32
(PID.TID 0000.0001) // CINT =          0.000000000000000E+00
(PID.TID 0000.0001) // SYMBOLS (CMIN->CMAX): -abcdefghijklmnopqrstuvwxyz+
(PID.TID 0000.0001) //                  0.0: .
(PID.TID 0000.0001) // RANGE I (Lo:Hi:Step):(  -2:   6:   1)
(PID.TID 0000.0001) // RANGE J (Lo:Hi:Step):(   4:  -2:  -1)
(PID.TID 0000.0001) // RANGE K (Lo:Hi:Step):(   1:   1:   1)
(PID.TID 0000.0001) // =======================================================
(PID.TID 0000.0001) // =======================================================
(PID.TID 0000.0001) // END OF FIELD                                          =
(PID.TID 0000.0001) // =======================================================
(PID.TID 0000.0001) 
(PID.TID 0000.0001) // =======================================================
(PID.TID 0000.0001) // Field hFacC at iteration          1
(PID.TID 0000.0001) // CMIN =          1.000000000000000E+00
(PID.TID 0000.0001) // CMAX =          1.000000000000000E+00
(PID.TID 0000.0001) // CINT =          0.000000000000000E+00
(PID.TID 0000.0001) // SYMBOLS (CMIN->CMAX): -abcdefghijklmnopqrstuvwxyz+
(PID.TID 0000.0001) //                  0.0: .
(PID.TID 0000.0001) // RANGE I (Lo:Hi:Step):(  -2:   6:   1)
(PID.TID 0000.0001) // RANGE J (Lo:Hi:Step):(   4:  -2:  -1)
(PID.TID 0000.0001) // RANGE K (Lo:Hi:Step):(   1:   1:   1)
(PID.TID 0000.0001) // =======================================================
(PID.TID 0000.0001) // =======================================================
(PID.TID 0000.0001) // END OF FIELD                                          =
(PID.TID 0000.0001) // =======================================================
(PID.TID 0000.0001) 
(PID.TID 0000.0001) // =======================================================
(PID.TID 0000.0001) // Field hFacW at iteration          1
(PID.TID 0000.0001) // CMIN =          1.000000000000000E+00
(PID.TID 0000.0001) // CMAX =          1.000000000000000E+00
(PID.TID 0000.0001) // CINT =          0.000000000000000E+00
(PID.TID 0000.0001) // SYMBOLS (CMIN->CMAX): -abcdefghijklmnopqrstuvwxyz+
(PID.TID 0000.0001) //                  0.0: .
(PID.TID 0000.0001) // RANGE I (Lo:Hi:Step):(  -2:   6:   1)
(PID.TID 0000.0001) // RANGE J (Lo:Hi:Step):(   4:  -2:  -1)
(PID.TID 0000.0001) // RANGE K (Lo:Hi:Step):(   1:   1:   1)
(PID.TID 0000.0001) // =======================================================
(PID.TID 0000.0001) // =======================================================
(PID.TID 0000.0001) // END OF FIELD                                          =
(PID.TID 0000.0001) // =======================================================
(PID.TID 0000.0001) 
(PID.TID 0000.0001) // =======================================================
(PID.TID 0000.0001) // Field hFacS at iteration          1
(PID.TID 0000.0001) // CMIN =          1.000000000000000E+00
(PID.TID 0000.0001) // CMAX =          1.000000000000000E+00
(PID.TID 0000.0001) // CINT =          0.000000000000000E+00
(PID.TID 0000.0001) // SYMBOLS (CMIN->CMAX): -abcdefghijklmnopqrstuvwxyz+
(PID.TID 0000.0001) //                  0.0: .
(PID.TID 0000.0001) // RANGE I (Lo:Hi:Step):(  -2:   6:   1)
(PID.TID 0000.0001) // RANGE J (Lo:Hi:Step):(   4:  -2:  -1)
(PID.TID 0000.0001) // RANGE K (Lo:Hi:Step):(   1:   1:   1)
(PID.TID 0000.0001) // =======================================================
(PID.TID 0000.0001) // =======================================================
(PID.TID 0000.0001) // END OF FIELD                                          =
(PID.TID 0000.0001) // =======================================================
(PID.TID 0000.0001) 
(PID.TID 0000.0001) 
(PID.TID 0000.0001) // ===================================
(PID.TID 0000.0001) // GAD parameters :
(PID.TID 0000.0001) // ===================================
(PID.TID 0000.0001) tempAdvScheme =   /* Temp. Horiz.Advection scheme selector */
(PID.TID 0000.0001)                      33
(PID.TID 0000.0001)     ;
(PID.TID 0000.0001) tempVertAdvScheme =   /* Temp. Vert. Advection scheme selector */
(PID.TID 0000.0001)                      33
(PID.TID 0000.0001)     ;
(PID.TID 0000.0001) tempMultiDimAdvec =   /* use Muti-Dim Advec method for Temp */
(PID.TID 0000.0001)                   F
(PID.TID 0000.0001)     ;
(PID.TID 0000.0001) tempAdamsBashforth =   /* use Adams-Bashforth time-stepping for Temp */
(PID.TID 0000.0001)                   F
(PID.TID 0000.0001)     ;
(PID.TID 0000.0001) saltAdvScheme =   /* Salt. Horiz.advection scheme selector */
(PID.TID 0000.0001)                       2
(PID.TID 0000.0001)     ;
(PID.TID 0000.0001) saltVertAdvScheme =   /* Salt. Vert. Advection scheme selector */
(PID.TID 0000.0001)                       2
(PID.TID 0000.0001)     ;
(PID.TID 0000.0001) saltMultiDimAdvec =   /* use Muti-Dim Advec method for Salt */
(PID.TID 0000.0001)                   F
(PID.TID 0000.0001)     ;
(PID.TID 0000.0001) saltAdamsBashforth =   /* use Adams-Bashforth time-stepping for Salt */
(PID.TID 0000.0001)                   T
(PID.TID 0000.0001)     ;
(PID.TID 0000.0001) // ===================================
(PID.TID 0000.0001) MY82_CHECK: #define ALLOW_MY82
(PID.TID 0000.0001) %MON fCori_max                    =   1.4000000000000E-04
(PID.TID 0000.0001) %MON fCori_min                    =   1.4000000000000E-04
(PID.TID 0000.0001) %MON fCori_mean                   =   1.4000000000000E-04
(PID.TID 0000.0001) %MON fCori_sd                     =   0.0000000000000E+00
(PID.TID 0000.0001) %MON fCoriG_max                   =   1.4000000000000E-04
(PID.TID 0000.0001) %MON fCoriG_min                   =   1.4000000000000E-04
(PID.TID 0000.0001) %MON fCoriG_mean                  =   1.4000000000000E-04
(PID.TID 0000.0001) %MON fCoriG_sd                    =   0.0000000000000E+00
(PID.TID 0000.0001) %MON fCoriCos_max                 =   0.0000000000000E+00
(PID.TID 0000.0001) %MON fCoriCos_min                 =   0.0000000000000E+00
(PID.TID 0000.0001) %MON fCoriCos_mean                =   0.0000000000000E+00
(PID.TID 0000.0001) %MON fCoriCos_sd                  =   0.0000000000000E+00
(PID.TID 0000.0001) INI_CG2D: CG2D normalisation factor =  1.0000000000000000E-03
(PID.TID 0000.0001) 
(PID.TID 0000.0001) // CG3D normalisation factor =          0.1999999999999999909496224E-05
(PID.TID 0000.0001) 
(PID.TID 0000.0001) CONFIG_CHECK: OK
(PID.TID 0000.0001) // =======================================================
(PID.TID 0000.0001) // Model configuration
(PID.TID 0000.0001) // =======================================================
(PID.TID 0000.0001) //
(PID.TID 0000.0001) // "Physical" paramters ( PARM01 in namelist )
(PID.TID 0000.0001) //
(PID.TID 0000.0001) buoyancyRelation = OCEANIC
(PID.TID 0000.0001) fluidIsAir  =  /* fluid major constituent is Air */
(PID.TID 0000.0001)                   F
(PID.TID 0000.0001)     ;
(PID.TID 0000.0001) fluidIsWater=  /* fuild major constituent is Water */
(PID.TID 0000.0001)                   T
(PID.TID 0000.0001)     ;
(PID.TID 0000.0001) usingPCoords =  /* use p (or p*) vertical coordinate */
(PID.TID 0000.0001)                   F
(PID.TID 0000.0001)     ;
(PID.TID 0000.0001) usingZCoords =  /* use z (or z*) vertical coordinate */
(PID.TID 0000.0001)                   T
(PID.TID 0000.0001)     ;
(PID.TID 0000.0001) tRef =   /* Reference temperature profile ( oC or oK ) */
(PID.TID 0000.0001)    20 @  1.000000000000000E+00              /* K =  1: 20 */
(PID.TID 0000.0001)     ;
(PID.TID 0000.0001) sRef =   /* Reference salinity profile ( ppt ) */
(PID.TID 0000.0001)    20 @  3.500000000000000E+01              /* K =  1: 20 */
(PID.TID 0000.0001)     ;
(PID.TID 0000.0001) viscAh =   /* Lateral eddy viscosity ( m^2/s ) */
(PID.TID 0000.0001)                 0.000000000000000E+00
(PID.TID 0000.0001)     ;
(PID.TID 0000.0001) viscAhMax =   /* Maximum lateral eddy viscosity ( m^2/s ) */
(PID.TID 0000.0001)                 1.000000000000000E+21
(PID.TID 0000.0001)     ;
(PID.TID 0000.0001) viscAhGrid =   /* Grid dependent lateral eddy viscosity ( non-dim. ) */
(PID.TID 0000.0001)                 0.000000000000000E+00
(PID.TID 0000.0001)     ;
(PID.TID 0000.0001) useFullLeith =   /* Use Full Form of Leith Viscosity on/off flag*/
(PID.TID 0000.0001)                   F
(PID.TID 0000.0001)     ;
(PID.TID 0000.0001) viscC2leith = /* Leith harmonic viscosity factor (on grad(vort),non-dim.) */
(PID.TID 0000.0001)                 0.000000000000000E+00
(PID.TID 0000.0001)     ;
(PID.TID 0000.0001) viscC2leithD = /* Leith harmonic viscosity factor (on grad(div),non-dim.) */
(PID.TID 0000.0001)                 0.000000000000000E+00
(PID.TID 0000.0001)     ;
(PID.TID 0000.0001) viscC2smag =   /* Smagorinsky harmonic viscosity factor (non-dim.) */
(PID.TID 0000.0001)                 0.000000000000000E+00
(PID.TID 0000.0001)     ;
(PID.TID 0000.0001) viscA4 =   /* Lateral biharmonic viscosity ( m^4/s ) */
(PID.TID 0000.0001)                 0.000000000000000E+00
(PID.TID 0000.0001)     ;
(PID.TID 0000.0001) viscA4Max =   /* Maximum biharmonic viscosity ( m^2/s ) */
(PID.TID 0000.0001)                 1.000000000000000E+21
(PID.TID 0000.0001)     ;
(PID.TID 0000.0001) viscA4Grid =   /* Grid dependent biharmonic viscosity ( non-dim. ) */
(PID.TID 0000.0001)                 0.000000000000000E+00
(PID.TID 0000.0001)     ;
(PID.TID 0000.0001) viscC4leith = /* Leith biharm viscosity factor (on grad(vort), non-dim.) */
(PID.TID 0000.0001)                 0.000000000000000E+00
(PID.TID 0000.0001)     ;
(PID.TID 0000.0001) viscC4leithD = /* Leith biharm viscosity factor (on grad(div), non-dim.) */
(PID.TID 0000.0001)                 0.000000000000000E+00
(PID.TID 0000.0001)     ;
(PID.TID 0000.0001) no_slip_sides =  /* Viscous BCs: No-slip sides */
(PID.TID 0000.0001)                   T
(PID.TID 0000.0001)     ;
(PID.TID 0000.0001) viscAr =   /* Vertical eddy viscosity ( units of r^2/s ) */
(PID.TID 0000.0001)                 1.000000000000000E-04
(PID.TID 0000.0001)     ;
(PID.TID 0000.0001) no_slip_bottom =  /* Viscous BCs: No-slip bottom */
(PID.TID 0000.0001)                   T
(PID.TID 0000.0001)     ;
(PID.TID 0000.0001) diffKhT =   /* Laplacian diffusion of heat laterally ( m^2/s ) */
(PID.TID 0000.0001)                 0.000000000000000E+00
(PID.TID 0000.0001)     ;
(PID.TID 0000.0001) diffK4T =   /* Bihaarmonic diffusion of heat laterally ( m^4/s ) */
(PID.TID 0000.0001)                 0.000000000000000E+00
(PID.TID 0000.0001)     ;
(PID.TID 0000.0001) diffKhS =   /* Laplacian diffusion of salt laterally ( m^2/s ) */
(PID.TID 0000.0001)                 0.000000000000000E+00
(PID.TID 0000.0001)     ;
(PID.TID 0000.0001) diffK4S =   /* Bihaarmonic diffusion of salt laterally ( m^4/s ) */
(PID.TID 0000.0001)                 0.000000000000000E+00
(PID.TID 0000.0001)     ;
(PID.TID 0000.0001) diffKrNrT = /* vertical profile of vertical diffusion of Temp ( m^2/s )*/
(PID.TID 0000.0001)    20 @  1.000000000000000E-05              /* K =  1: 20 */
(PID.TID 0000.0001)     ;
(PID.TID 0000.0001) diffKrNrS = /* vertical profile of vertical diffusion of Salt ( m^2/s )*/
(PID.TID 0000.0001)    20 @  1.000000000000000E-05              /* K =  1: 20 */
(PID.TID 0000.0001)     ;
(PID.TID 0000.0001) diffKrBL79surf =   /* Surface diffusion for Bryan and Lewis 1979 ( m^2/s ) */
(PID.TID 0000.0001)                 0.000000000000000E+00
(PID.TID 0000.0001)     ;
(PID.TID 0000.0001) diffKrBL79deep =   /* Deep diffusion for Bryan and Lewis 1979 ( m^2/s ) */
(PID.TID 0000.0001)                 0.000000000000000E+00
(PID.TID 0000.0001)     ;
(PID.TID 0000.0001) diffKrBL79scl =   /* Depth scale for Bryan and Lewis 1979 ( m ) */
(PID.TID 0000.0001)                 2.000000000000000E+02
(PID.TID 0000.0001)     ;
(PID.TID 0000.0001) diffKrBL79Ho =   /* Turning depth for Bryan and Lewis 1979 ( m ) */
(PID.TID 0000.0001)                -2.000000000000000E+03
(PID.TID 0000.0001)     ;
(PID.TID 0000.0001)  Equation of State : eosType = LINEAR
(PID.TID 0000.0001) tAlpha =   /* Linear EOS thermal expansion coefficient ( 1/degree ) */
(PID.TID 0000.0001)                 2.000000000000000E-04
(PID.TID 0000.0001)     ;
(PID.TID 0000.0001) sBeta =   /* Linear EOS haline contraction coefficient ( 1/ppt ) */
(PID.TID 0000.0001)                 0.000000000000000E+00
(PID.TID 0000.0001)     ;
(PID.TID 0000.0001) rhonil =   /* Reference density ( kg/m^3 ) */
(PID.TID 0000.0001)                 9.998000000000000E+02
(PID.TID 0000.0001)     ;
(PID.TID 0000.0001) rhoConst =   /* Reference density ( kg/m^3 ) */
(PID.TID 0000.0001)                 9.998000000000000E+02
(PID.TID 0000.0001)     ;
(PID.TID 0000.0001) rhoConstFresh =   /* Reference density ( kg/m^3 ) */
(PID.TID 0000.0001)                 9.998000000000000E+02
(PID.TID 0000.0001)     ;
(PID.TID 0000.0001) gravity =   /* Gravitational acceleration ( m/s^2 ) */
(PID.TID 0000.0001)                 9.810000000000000E+00
(PID.TID 0000.0001)     ;
(PID.TID 0000.0001) gBaro =   /* Barotropic gravity ( m/s^2 ) */
(PID.TID 0000.0001)                 9.810000000000000E+00
(PID.TID 0000.0001)     ;
(PID.TID 0000.0001) rotationPeriod =   /* Rotation Period ( s ) */
(PID.TID 0000.0001)                 8.640000000000000E+04
(PID.TID 0000.0001)     ;
(PID.TID 0000.0001) omega =   /* Angular velocity ( rad/s ) */
(PID.TID 0000.0001)                 7.272205216643040E-05
(PID.TID 0000.0001)     ;
(PID.TID 0000.0001) f0 =   /* Reference coriolis parameter ( 1/s ) */
(PID.TID 0000.0001)                 1.400000000000000E-04
(PID.TID 0000.0001)     ;
(PID.TID 0000.0001) beta =   /* Beta ( 1/(m.s) ) */
(PID.TID 0000.0001)                 0.000000000000000E+00
(PID.TID 0000.0001)     ;
(PID.TID 0000.0001) freeSurfFac =   /* Implicit free surface factor */
(PID.TID 0000.0001)                 1.000000000000000E+00
(PID.TID 0000.0001)     ;
(PID.TID 0000.0001) implicitFreeSurface =   /* Implicit free surface on/off flag */
(PID.TID 0000.0001)                   T
(PID.TID 0000.0001)     ;
(PID.TID 0000.0001) rigidLid =   /* Rigid lid on/off flag */
(PID.TID 0000.0001)                   F
(PID.TID 0000.0001)     ;
(PID.TID 0000.0001) implicSurfPress =   /* Surface Pressure implicit factor (0-1)*/
(PID.TID 0000.0001)                 1.000000000000000E+00
(PID.TID 0000.0001)     ;
(PID.TID 0000.0001) implicDiv2Dflow =   /* Barot. Flow Div. implicit factor (0-1)*/
(PID.TID 0000.0001)                 1.000000000000000E+00
(PID.TID 0000.0001)     ;
(PID.TID 0000.0001) exactConserv =   /* Exact Volume Conservation on/off flag*/
(PID.TID 0000.0001)                   F
(PID.TID 0000.0001)     ;
(PID.TID 0000.0001) uniformLin_PhiSurf =   /* use uniform Bo_surf on/off flag*/
(PID.TID 0000.0001)                   T
(PID.TID 0000.0001)     ;
(PID.TID 0000.0001) nonlinFreeSurf =   /* Non-linear Free Surf. options (-1,0,1,2,3)*/
(PID.TID 0000.0001)                       0
(PID.TID 0000.0001)     ;
(PID.TID 0000.0001)      -1,0= Off ; 1,2,3= On, 2=+rescale gU,gV, 3=+update cg2d solv.
(PID.TID 0000.0001) hFacInf =   /* lower threshold for hFac (nonlinFreeSurf only)*/
(PID.TID 0000.0001)                 2.000000000000000E-01
(PID.TID 0000.0001)     ;
(PID.TID 0000.0001) hFacSup =   /* upper threshold for hFac (nonlinFreeSurf only)*/
(PID.TID 0000.0001)                 2.000000000000000E+00
(PID.TID 0000.0001)     ;
(PID.TID 0000.0001) select_rStar =   /* r* Coordinate options (not yet implemented)*/
(PID.TID 0000.0001)                       0
(PID.TID 0000.0001)     ;
(PID.TID 0000.0001) useRealFreshWaterFlux =   /* Real Fresh Water Flux on/off flag*/
(PID.TID 0000.0001)                   F
(PID.TID 0000.0001)     ;
(PID.TID 0000.0001) convertFW2Salt = /* convert F.W. Flux to Salt Flux (-1=use local S)(ppt)*/
(PID.TID 0000.0001)                 3.500000000000000E+01
(PID.TID 0000.0001)     ;
(PID.TID 0000.0001) nonHydrostatic =  /* Non-Hydrostatic on/off flag */
(PID.TID 0000.0001)                   F
(PID.TID 0000.0001)     ;
(PID.TID 0000.0001) momStepping =  /* Momentum equation on/off flag */
(PID.TID 0000.0001)                   T
(PID.TID 0000.0001)     ;
(PID.TID 0000.0001) momAdvection =  /* Momentum advection on/off flag */
(PID.TID 0000.0001)                   T
(PID.TID 0000.0001)     ;
(PID.TID 0000.0001) momViscosity =  /* Momentum viscosity on/off flag */
(PID.TID 0000.0001)                   T
(PID.TID 0000.0001)     ;
(PID.TID 0000.0001) momImplVertAdv =/* Momentum implicit vert. advection on/off*/
(PID.TID 0000.0001)                   F
(PID.TID 0000.0001)     ;
(PID.TID 0000.0001) implicitViscosity = /* Implicit viscosity on/off flag */
(PID.TID 0000.0001)                   T
(PID.TID 0000.0001)     ;
(PID.TID 0000.0001) useCoriolis =  /* Coriolis on/off flag */
(PID.TID 0000.0001)                   T
(PID.TID 0000.0001)     ;
(PID.TID 0000.0001) useCDscheme =  /* CD scheme on/off flag */
(PID.TID 0000.0001)                   F
(PID.TID 0000.0001)     ;
(PID.TID 0000.0001) useJamartWetPoints= /* Coriolis WetPoints method flag */
(PID.TID 0000.0001)                   F
(PID.TID 0000.0001)     ;
(PID.TID 0000.0001) useJamartMomAdv= /* V.I. Non-linear terms Jamart flag */
(PID.TID 0000.0001)                   F
(PID.TID 0000.0001)     ;
(PID.TID 0000.0001) SadournyCoriolis= /* Sadourny Coriolis discr. flag */
(PID.TID 0000.0001)                   F
(PID.TID 0000.0001)     ;
(PID.TID 0000.0001) upwindVorticity= /* Upwind bias vorticity flag */
(PID.TID 0000.0001)                   F
(PID.TID 0000.0001)     ;
(PID.TID 0000.0001) useAbsVorticity= /* Work with f+zeta in Coriolis */
(PID.TID 0000.0001)                   F
(PID.TID 0000.0001)     ;
(PID.TID 0000.0001) highOrderVorticity= /* High order interp. of vort. flag */
(PID.TID 0000.0001)                   F
(PID.TID 0000.0001)     ;
(PID.TID 0000.0001) upwindShear= /* Upwind vertical Shear advection flag */
(PID.TID 0000.0001)                   F
(PID.TID 0000.0001)     ;
(PID.TID 0000.0001) momForcing =  /* Momentum forcing on/off flag */
(PID.TID 0000.0001)                   T
(PID.TID 0000.0001)     ;
(PID.TID 0000.0001) momPressureForcing =  /* Momentum pressure term on/off flag */
(PID.TID 0000.0001)                   T
(PID.TID 0000.0001)     ;
(PID.TID 0000.0001) staggerTimeStep =   /* Stagger time stepping on/off flag */
(PID.TID 0000.0001)                   F
(PID.TID 0000.0001)     ;
(PID.TID 0000.0001) multiDimAdvection =   /* enable/disable Multi-Dim Advection */
(PID.TID 0000.0001)                   T
(PID.TID 0000.0001)     ;
(PID.TID 0000.0001) useMultiDimAdvec =   /* Multi-Dim Advection is/is-not used */
(PID.TID 0000.0001)                   F
(PID.TID 0000.0001)     ;
(PID.TID 0000.0001) implicitDiffusion =/* Implicit Diffusion on/off flag */
(PID.TID 0000.0001)                   T
(PID.TID 0000.0001)     ;
(PID.TID 0000.0001) tempStepping =  /* Temperature equation on/off flag */
(PID.TID 0000.0001)                   T
(PID.TID 0000.0001)     ;
(PID.TID 0000.0001) tempAdvection=  /* Temperature advection on/off flag */
(PID.TID 0000.0001)                   F
(PID.TID 0000.0001)     ;
(PID.TID 0000.0001) tempImplVertAdv =/* Temp. implicit vert. advection on/off */
(PID.TID 0000.0001)                   F
(PID.TID 0000.0001)     ;
(PID.TID 0000.0001) tempForcing  =  /* Temperature forcing on/off flag */
(PID.TID 0000.0001)                   T
(PID.TID 0000.0001)     ;
(PID.TID 0000.0001) saltStepping =  /* Salinity equation on/off flag */
(PID.TID 0000.0001)                   T
(PID.TID 0000.0001)     ;
(PID.TID 0000.0001) saltAdvection=  /* Salinity advection on/off flag */
(PID.TID 0000.0001)                   T
(PID.TID 0000.0001)     ;
(PID.TID 0000.0001) saltImplVertAdv =/* Sali. implicit vert. advection on/off */
(PID.TID 0000.0001)                   F
(PID.TID 0000.0001)     ;
(PID.TID 0000.0001) saltForcing  =  /* Salinity forcing on/off flag */
(PID.TID 0000.0001)                   T
(PID.TID 0000.0001)     ;
(PID.TID 0000.0001)  debugMode  =  /* Debug Mode on/off flag */
(PID.TID 0000.0001)                   F
(PID.TID 0000.0001)     ;
(PID.TID 0000.0001)    debLevA  =  /* 1rst level of debugging */
(PID.TID 0000.0001)                       1
(PID.TID 0000.0001)     ;
(PID.TID 0000.0001)    debLevB  =  /* 2nd  level of debugging */
(PID.TID 0000.0001)                       2
(PID.TID 0000.0001)     ;
(PID.TID 0000.0001)  debugLevel =  /* select debugging level */
(PID.TID 0000.0001)                       1
(PID.TID 0000.0001)     ;
(PID.TID 0000.0001) //
(PID.TID 0000.0001) // Elliptic solver(s) paramters ( PARM02 in namelist )
(PID.TID 0000.0001) //
(PID.TID 0000.0001) cg2dMaxIters =   /* Upper limit on 2d con. grad iterations  */
(PID.TID 0000.0001)                     300
(PID.TID 0000.0001)     ;
(PID.TID 0000.0001) cg2dChkResFreq =   /* 2d con. grad convergence test frequency */
(PID.TID 0000.0001)                       1
(PID.TID 0000.0001)     ;
(PID.TID 0000.0001) cg2dTargetResidual =   /* 2d con. grad target residual  */
(PID.TID 0000.0001)                 1.000000000000000E-13
(PID.TID 0000.0001)     ;
(PID.TID 0000.0001) cg2dTargetResWunit =   /* CG2d target residual [W units] */
(PID.TID 0000.0001)                -1.000000000000000E+00
(PID.TID 0000.0001)     ;
(PID.TID 0000.0001) cg2dPreCondFreq =   /* Freq. for updating cg2d preconditioner */
(PID.TID 0000.0001)                       1
(PID.TID 0000.0001)     ;
(PID.TID 0000.0001) //
(PID.TID 0000.0001) // Time stepping paramters ( PARM03 in namelist )
(PID.TID 0000.0001) //
(PID.TID 0000.0001) nIter0 =   /* Run starting timestep number  */
(PID.TID 0000.0001)                       0
(PID.TID 0000.0001)     ;
(PID.TID 0000.0001) nTimeSteps =   /* Number of timesteps */
(PID.TID 0000.0001)                      20
(PID.TID 0000.0001)     ;
(PID.TID 0000.0001) deltatTmom =   /* Momentum equation timestep ( s ) */
(PID.TID 0000.0001)                 1.200000000000000E+03
(PID.TID 0000.0001)     ;
(PID.TID 0000.0001) deltaTfreesurf =   /* FreeSurface equation timestep ( s ) */
(PID.TID 0000.0001)                 1.200000000000000E+03
(PID.TID 0000.0001)     ;
(PID.TID 0000.0001) dTtracerLev =   /* Tracer equation timestep ( s ) */
(PID.TID 0000.0001)    20 @  1.200000000000000E+03              /* K =  1: 20 */
(PID.TID 0000.0001)     ;
(PID.TID 0000.0001) deltatTClock  =   /* Model clock timestep ( s ) */
(PID.TID 0000.0001)                 1.200000000000000E+03
(PID.TID 0000.0001)     ;
(PID.TID 0000.0001) cAdjFreq =   /* Convective adjustment interval ( s ) */
(PID.TID 0000.0001)                 0.000000000000000E+00
(PID.TID 0000.0001)     ;
(PID.TID 0000.0001) forcing_In_AB =   /* put T,S Forcing in Adams-Bash. stepping */
(PID.TID 0000.0001)                   T
(PID.TID 0000.0001)     ;
(PID.TID 0000.0001) abEps =   /* Adams-Bashforth-2 stabilizing weight */
(PID.TID 0000.0001)                 1.000000000000000E-02
(PID.TID 0000.0001)     ;
(PID.TID 0000.0001) baseTime =   /* Model base time ( s ). */
(PID.TID 0000.0001)                 0.000000000000000E+00
(PID.TID 0000.0001)     ;
(PID.TID 0000.0001) startTime =   /* Run start time ( s ). */
(PID.TID 0000.0001)                 0.000000000000000E+00
(PID.TID 0000.0001)     ;
(PID.TID 0000.0001) endTime =   /* Integration ending time ( s ). */
(PID.TID 0000.0001)                 2.400000000000000E+04
(PID.TID 0000.0001)     ;
(PID.TID 0000.0001) pChkPtFreq =   /* Permanent restart/checkpoint file interval ( s ). */
(PID.TID 0000.0001)                 0.000000000000000E+00
(PID.TID 0000.0001)     ;
(PID.TID 0000.0001) chkPtFreq =   /* Rolling restart/checkpoint file interval ( s ). */
(PID.TID 0000.0001)                 0.000000000000000E+00
(PID.TID 0000.0001)     ;
(PID.TID 0000.0001) pickup_write_mdsio =   /* Model IO flag. */
(PID.TID 0000.0001)                   T
(PID.TID 0000.0001)     ;
(PID.TID 0000.0001) pickup_read_mdsio =   /* Model IO flag. */
(PID.TID 0000.0001)                   T
(PID.TID 0000.0001)     ;
(PID.TID 0000.0001) pickup_write_immed =   /* Model IO flag. */
(PID.TID 0000.0001)                   F
(PID.TID 0000.0001)     ;
(PID.TID 0000.0001) dumpFreq =   /* Model state write out interval ( s ). */
(PID.TID 0000.0001)                 8.640000000000000E+04
(PID.TID 0000.0001)     ;
(PID.TID 0000.0001) snapshot_mdsio =   /* Model IO flag. */
(PID.TID 0000.0001)                   T
(PID.TID 0000.0001)     ;
(PID.TID 0000.0001) monitorFreq =   /* Monitor output interval ( s ). */
(PID.TID 0000.0001)                 1.000000000000000E+00
(PID.TID 0000.0001)     ;
(PID.TID 0000.0001) monitor_stdio =   /* Model IO flag. */
(PID.TID 0000.0001)                   T
(PID.TID 0000.0001)     ;
(PID.TID 0000.0001) externForcingPeriod =   /* forcing period (s) */
(PID.TID 0000.0001)                 0.000000000000000E+00
(PID.TID 0000.0001)     ;
(PID.TID 0000.0001) externForcingCycle =   /* period of the cyle (s). */
(PID.TID 0000.0001)                 0.000000000000000E+00
(PID.TID 0000.0001)     ;
(PID.TID 0000.0001) tauThetaClimRelax =   /* relaxation time scale (s) */
(PID.TID 0000.0001)                 0.000000000000000E+00
(PID.TID 0000.0001)     ;
(PID.TID 0000.0001) tauSaltClimRelax =   /* relaxation time scale (s) */
(PID.TID 0000.0001)                 0.000000000000000E+00
(PID.TID 0000.0001)     ;
(PID.TID 0000.0001) latBandClimRelax =   /* max. Lat. where relaxation */
(PID.TID 0000.0001)                 5.000000000000000E+03
(PID.TID 0000.0001)     ;
(PID.TID 0000.0001) //
(PID.TID 0000.0001) // Gridding paramters ( PARM04 in namelist )
(PID.TID 0000.0001) //
(PID.TID 0000.0001) usingCartesianGrid =   /* Cartesian coordinates flag ( True / False ) */
(PID.TID 0000.0001)                   T
(PID.TID 0000.0001)     ;
(PID.TID 0000.0001) usingSphericalPolarGrid =   /* Spherical coordinates flag ( True / False ) */
(PID.TID 0000.0001)                   F
(PID.TID 0000.0001)     ;
(PID.TID 0000.0001) usingCylindricalGrid =   /* Spherical coordinates flag ( True / False ) */
(PID.TID 0000.0001)                   F
(PID.TID 0000.0001)     ;
(PID.TID 0000.0001) Ro_SeaLevel =   /* r(1) ( units of r ) */
(PID.TID 0000.0001)                 0.000000000000000E+00
(PID.TID 0000.0001)     ;
(PID.TID 0000.0001) rkSign =   /* index orientation relative to vertical coordinate */
(PID.TID 0000.0001)                -1.000000000000000E+00
(PID.TID 0000.0001)     ;
(PID.TID 0000.0001) horiVertRatio =   /* Ratio on units : Horiz - Vertical */
(PID.TID 0000.0001)                 1.000000000000000E+00
(PID.TID 0000.0001)     ;
(PID.TID 0000.0001) drC =   /* C spacing ( units of r ) */
(PID.TID 0000.0001)                 2.500000000000000E+01,      /* K =  1 */
(PID.TID 0000.0001)    19 @  5.000000000000000E+01              /* K =  2: 20 */
(PID.TID 0000.0001)     ;
(PID.TID 0000.0001) drF =   /* W spacing ( units of r ) */
(PID.TID 0000.0001)    20 @  5.000000000000000E+01              /* K =  1: 20 */
(PID.TID 0000.0001)     ;
(PID.TID 0000.0001) delX =   /* U spacing ( m - cartesian, degrees - spherical ) */
(PID.TID 0000.0001)     3 @  5.000000000000000E+03              /* I =  1:  3 */
(PID.TID 0000.0001)     ;
(PID.TID 0000.0001) delY =   /* V spacing ( m - cartesian, degrees - spherical ) */
(PID.TID 0000.0001)                 5.000000000000000E+03       /* J =  1 */
(PID.TID 0000.0001)     ;
(PID.TID 0000.0001) phiMin =    /* South edge (ignored - cartesian, degrees - spherical ) */
(PID.TID 0000.0001)                 0.000000000000000E+00
(PID.TID 0000.0001)     ;
(PID.TID 0000.0001) thetaMin =    /* West edge ( ignored - cartesian, degrees - spherical ) */
(PID.TID 0000.0001)                 0.000000000000000E+00
(PID.TID 0000.0001)     ;
(PID.TID 0000.0001) rSphere =    /* Radius ( ignored - cartesian, m - spherical ) */
(PID.TID 0000.0001)                 6.370000000000000E+06
(PID.TID 0000.0001)     ;
(PID.TID 0000.0001) xcoord =   /* P-point X coord ( m - cartesian, degrees - spherical ) */
(PID.TID 0000.0001)                 2.500000000000000E+03,      /* I =  1 */
(PID.TID 0000.0001)                 7.500000000000000E+03,      /* I =  2 */
(PID.TID 0000.0001)                 1.250000000000000E+04       /* I =  3 */
(PID.TID 0000.0001)     ;
(PID.TID 0000.0001) ycoord =   /* P-point Y coord ( m - cartesian, degrees - spherical ) */
(PID.TID 0000.0001)                 2.500000000000000E+03       /* J =  1 */
(PID.TID 0000.0001)     ;
(PID.TID 0000.0001) rcoord =   /* P-point R coordinate (  units of r ) */
(PID.TID 0000.0001)                -2.500000000000000E+01,      /* K =  1 */
(PID.TID 0000.0001)                -7.500000000000000E+01,      /* K =  2 */
(PID.TID 0000.0001)                -1.250000000000000E+02,      /* K =  3 */
(PID.TID 0000.0001)                -1.750000000000000E+02,      /* K =  4 */
(PID.TID 0000.0001)                -2.250000000000000E+02,      /* K =  5 */
(PID.TID 0000.0001)                -2.750000000000000E+02,      /* K =  6 */
(PID.TID 0000.0001)                -3.250000000000000E+02,      /* K =  7 */
(PID.TID 0000.0001)                -3.750000000000000E+02,      /* K =  8 */
(PID.TID 0000.0001)                -4.250000000000000E+02,      /* K =  9 */
(PID.TID 0000.0001)                -4.750000000000000E+02,      /* K = 10 */
(PID.TID 0000.0001)                -5.250000000000000E+02,      /* K = 11 */
(PID.TID 0000.0001)                -5.750000000000000E+02,      /* K = 12 */
(PID.TID 0000.0001)                -6.250000000000000E+02,      /* K = 13 */
(PID.TID 0000.0001)                -6.750000000000000E+02,      /* K = 14 */
(PID.TID 0000.0001)                -7.250000000000000E+02,      /* K = 15 */
(PID.TID 0000.0001)                -7.750000000000000E+02,      /* K = 16 */
(PID.TID 0000.0001)                -8.250000000000000E+02,      /* K = 17 */
(PID.TID 0000.0001)                -8.750000000000000E+02,      /* K = 18 */
(PID.TID 0000.0001)                -9.250000000000000E+02,      /* K = 19 */
(PID.TID 0000.0001)                -9.750000000000000E+02       /* K = 20 */
(PID.TID 0000.0001)     ;
(PID.TID 0000.0001) rF =   /* W-Interf. R coordinate (  units of r ) */
(PID.TID 0000.0001)                 0.000000000000000E+00,      /* K =  1 */
(PID.TID 0000.0001)                -5.000000000000000E+01,      /* K =  2 */
(PID.TID 0000.0001)                -1.000000000000000E+02,      /* K =  3 */
(PID.TID 0000.0001)                -1.500000000000000E+02,      /* K =  4 */
(PID.TID 0000.0001)                -2.000000000000000E+02,      /* K =  5 */
(PID.TID 0000.0001)                -2.500000000000000E+02,      /* K =  6 */
(PID.TID 0000.0001)                -3.000000000000000E+02,      /* K =  7 */
(PID.TID 0000.0001)                -3.500000000000000E+02,      /* K =  8 */
(PID.TID 0000.0001)                -4.000000000000000E+02,      /* K =  9 */
(PID.TID 0000.0001)                -4.500000000000000E+02,      /* K = 10 */
(PID.TID 0000.0001)                -5.000000000000000E+02,      /* K = 11 */
(PID.TID 0000.0001)                -5.500000000000000E+02,      /* K = 12 */
(PID.TID 0000.0001)                -6.000000000000000E+02,      /* K = 13 */
(PID.TID 0000.0001)                -6.500000000000000E+02,      /* K = 14 */
(PID.TID 0000.0001)                -7.000000000000000E+02,      /* K = 15 */
(PID.TID 0000.0001)                -7.500000000000000E+02,      /* K = 16 */
(PID.TID 0000.0001)                -8.000000000000000E+02,      /* K = 17 */
(PID.TID 0000.0001)                -8.500000000000000E+02,      /* K = 18 */
(PID.TID 0000.0001)                -9.000000000000000E+02,      /* K = 19 */
(PID.TID 0000.0001)                -9.500000000000000E+02,      /* K = 20 */
(PID.TID 0000.0001)                -1.000000000000000E+03       /* K = 21 */
(PID.TID 0000.0001)     ;
(PID.TID 0000.0001) dxF =  /* dxF(:,1,:,1) ( m - cartesian, degrees - spherical ) */
(PID.TID 0000.0001)     3 @  5.000000000000000E+03              /* I =  1:  3 */
(PID.TID 0000.0001)     ;
(PID.TID 0000.0001) dxF =  /* dxF(1,:,1,:) ( m - cartesian, degrees - spherical ) */
(PID.TID 0000.0001)                 5.000000000000000E+03       /* J =  1 */
(PID.TID 0000.0001)     ;
(PID.TID 0000.0001) dyF =  /* dyF(:,1,:,1) ( m - cartesian, degrees - spherical ) */
(PID.TID 0000.0001)     3 @  5.000000000000000E+03              /* I =  1:  3 */
(PID.TID 0000.0001)     ;
(PID.TID 0000.0001) dyF =  /* dyF(1,:,1,:) ( m - cartesian, degrees - spherical ) */
(PID.TID 0000.0001)                 5.000000000000000E+03       /* J =  1 */
(PID.TID 0000.0001)     ;
(PID.TID 0000.0001) dxG =  /* dxG(:,1,:,1) ( m - cartesian, degrees - spherical ) */
(PID.TID 0000.0001)     3 @  5.000000000000000E+03              /* I =  1:  3 */
(PID.TID 0000.0001)     ;
(PID.TID 0000.0001) dxG =  /* dxG(1,:,1,:) ( m - cartesian, degrees - spherical ) */
(PID.TID 0000.0001)                 5.000000000000000E+03       /* J =  1 */
(PID.TID 0000.0001)     ;
(PID.TID 0000.0001) dyG =  /* dyG(:,1,:,1) ( m - cartesian, degrees - spherical ) */
(PID.TID 0000.0001)     3 @  5.000000000000000E+03              /* I =  1:  3 */
(PID.TID 0000.0001)     ;
(PID.TID 0000.0001) dyG =  /* dyG(1,:,1,:) ( m - cartesian, degrees - spherical ) */
(PID.TID 0000.0001)                 5.000000000000000E+03       /* J =  1 */
(PID.TID 0000.0001)     ;
(PID.TID 0000.0001) dxC =  /* dxC(:,1,:,1) ( m - cartesian, degrees - spherical ) */
(PID.TID 0000.0001)     3 @  5.000000000000000E+03              /* I =  1:  3 */
(PID.TID 0000.0001)     ;
(PID.TID 0000.0001) dxC =  /* dxC(1,:,1,:) ( m - cartesian, degrees - spherical ) */
(PID.TID 0000.0001)                 5.000000000000000E+03       /* J =  1 */
(PID.TID 0000.0001)     ;
(PID.TID 0000.0001) dyC =  /* dyC(:,1,:,1) ( m - cartesian, degrees - spherical ) */
(PID.TID 0000.0001)     3 @  5.000000000000000E+03              /* I =  1:  3 */
(PID.TID 0000.0001)     ;
(PID.TID 0000.0001) dyC =  /* dyC(1,:,1,:) ( m - cartesian, degrees - spherical ) */
(PID.TID 0000.0001)                 5.000000000000000E+03       /* J =  1 */
(PID.TID 0000.0001)     ;
(PID.TID 0000.0001) dxV =  /* dxV(:,1,:,1) ( m - cartesian, degrees - spherical ) */
(PID.TID 0000.0001)     3 @  5.000000000000000E+03              /* I =  1:  3 */
(PID.TID 0000.0001)     ;
(PID.TID 0000.0001) dxV =  /* dxV(1,:,1,:) ( m - cartesian, degrees - spherical ) */
(PID.TID 0000.0001)                 5.000000000000000E+03       /* J =  1 */
(PID.TID 0000.0001)     ;
(PID.TID 0000.0001) dyU =  /* dyU(:,1,:,1) ( m - cartesian, degrees - spherical ) */
(PID.TID 0000.0001)     3 @  5.000000000000000E+03              /* I =  1:  3 */
(PID.TID 0000.0001)     ;
(PID.TID 0000.0001) dyU =  /* dyU(1,:,1,:) ( m - cartesian, degrees - spherical ) */
(PID.TID 0000.0001)                 5.000000000000000E+03       /* J =  1 */
(PID.TID 0000.0001)     ;
(PID.TID 0000.0001) rA =  /* rA(:,1,:,1) ( m - cartesian, degrees - spherical ) */
(PID.TID 0000.0001)     3 @  2.500000000000000E+07              /* I =  1:  3 */
(PID.TID 0000.0001)     ;
(PID.TID 0000.0001) rA =  /* rA(1,:,1,:) ( m - cartesian, degrees - spherical ) */
(PID.TID 0000.0001)                 2.500000000000000E+07       /* J =  1 */
(PID.TID 0000.0001)     ;
(PID.TID 0000.0001) rAw =  /* rAw(:,1,:,1) ( m - cartesian, degrees - spherical ) */
(PID.TID 0000.0001)     3 @  2.500000000000000E+07              /* I =  1:  3 */
(PID.TID 0000.0001)     ;
(PID.TID 0000.0001) rAw =  /* rAw(1,:,1,:) ( m - cartesian, degrees - spherical ) */
(PID.TID 0000.0001)                 2.500000000000000E+07       /* J =  1 */
(PID.TID 0000.0001)     ;
(PID.TID 0000.0001) rAs =  /* rAs(:,1,:,1) ( m - cartesian, degrees - spherical ) */
(PID.TID 0000.0001)     3 @  2.500000000000000E+07              /* I =  1:  3 */
(PID.TID 0000.0001)     ;
(PID.TID 0000.0001) rAs =  /* rAs(1,:,1,:) ( m - cartesian, degrees - spherical ) */
(PID.TID 0000.0001)                 2.500000000000000E+07       /* J =  1 */
(PID.TID 0000.0001)     ;
(PID.TID 0000.0001) 
(PID.TID 0000.0001)  MDSREADFIELD: opening global file: Tstable2.init
(PID.TID 0000.0001) // =======================================================
(PID.TID 0000.0001) // Field Initial Temperature at iteration          1
(PID.TID 0000.0001) // CMIN =          1.434760448521916E+00
(PID.TID 0000.0001) // CMAX =          2.934760448521916E+00
(PID.TID 0000.0001) // CINT =          5.555555555555555E-02
(PID.TID 0000.0001) // SYMBOLS (CMIN->CMAX): -abcdefghijklmnopqrstuvwxyz+
(PID.TID 0000.0001) //                  0.0: .
(PID.TID 0000.0001) // RANGE I (Lo:Hi:Step):(   1:   3:   1)
(PID.TID 0000.0001) // RANGE J (Lo:Hi:Step):(   1:   1:  -1)
(PID.TID 0000.0001) // RANGE K (Lo:Hi:Step):(   1:   1:   1)
(PID.TID 0000.0001) // =======================================================
(PID.TID 0000.0001) K =   1
(PID.TID 0000.0001) 
(PID.TID 0000.0001) |--J--|123
(PID.TID 0000.0001)      1 +-+
(PID.TID 0000.0001) // =======================================================
(PID.TID 0000.0001) // END OF FIELD                                          =
(PID.TID 0000.0001) // =======================================================
(PID.TID 0000.0001) 
(PID.TID 0000.0001) // =======================================================
(PID.TID 0000.0001) // Field Initial Salinity at iteration          1
(PID.TID 0000.0001) // CMIN =          3.500000000000000E+01
(PID.TID 0000.0001) // CMAX =          3.500000000000000E+01
(PID.TID 0000.0001) // CINT =          0.000000000000000E+00
(PID.TID 0000.0001) // SYMBOLS (CMIN->CMAX): -abcdefghijklmnopqrstuvwxyz+
(PID.TID 0000.0001) //                  0.0: .
(PID.TID 0000.0001) // RANGE I (Lo:Hi:Step):(   1:   3:   1)
(PID.TID 0000.0001) // RANGE J (Lo:Hi:Step):(   1:   1:  -1)
(PID.TID 0000.0001) // RANGE K (Lo:Hi:Step):(   1:   1:   1)
(PID.TID 0000.0001) // =======================================================
(PID.TID 0000.0001) // =======================================================
(PID.TID 0000.0001) // END OF FIELD                                          =
(PID.TID 0000.0001) // =======================================================
(PID.TID 0000.0001) 
(PID.TID 0000.0001) Start initial hydrostatic pressure computation
(PID.TID 0000.0001) Pressure is predetermined for buoyancyRelation OCEANIC
(PID.TID 0000.0001) 
(PID.TID 0000.0001)  MDSREADFIELD: opening global file: taux.forcing
(PID.TID 0000.0001)  MDSREADFIELD: opening global file: Qnet.forcing
(PID.TID 0000.0001) // =======================================================
(PID.TID 0000.0001) // Model current state
(PID.TID 0000.0001) // =======================================================
(PID.TID 0000.0001) 
(PID.TID 0000.0001) // =======================================================
(PID.TID 0000.0001) // Begin MONITOR dynamic field statistics
(PID.TID 0000.0001) // =======================================================
(PID.TID 0000.0001) %MON time_tsnumber                =                     0
(PID.TID 0000.0001) %MON time_secondsf                =   0.0000000000000E+00
(PID.TID 0000.0001) %MON dynstat_eta_max              =   0.0000000000000E+00
(PID.TID 0000.0001) %MON dynstat_eta_min              =   0.0000000000000E+00
(PID.TID 0000.0001) %MON dynstat_eta_mean             =   0.0000000000000E+00
(PID.TID 0000.0001) %MON dynstat_eta_sd               =   0.0000000000000E+00
(PID.TID 0000.0001) %MON dynstat_eta_del2             =   0.0000000000000E+00
(PID.TID 0000.0001) %MON dynstat_uvel_max             =   0.0000000000000E+00
(PID.TID 0000.0001) %MON dynstat_uvel_min             =   0.0000000000000E+00
(PID.TID 0000.0001) %MON dynstat_uvel_mean            =   0.0000000000000E+00
(PID.TID 0000.0001) %MON dynstat_uvel_sd              =   0.0000000000000E+00
(PID.TID 0000.0001) %MON dynstat_uvel_del2            =   0.0000000000000E+00
(PID.TID 0000.0001) %MON dynstat_vvel_max             =   0.0000000000000E+00
(PID.TID 0000.0001) %MON dynstat_vvel_min             =   0.0000000000000E+00
(PID.TID 0000.0001) %MON dynstat_vvel_mean            =   0.0000000000000E+00
(PID.TID 0000.0001) %MON dynstat_vvel_sd              =   0.0000000000000E+00
(PID.TID 0000.0001) %MON dynstat_vvel_del2            =   0.0000000000000E+00
(PID.TID 0000.0001) %MON dynstat_wvel_max             =   0.0000000000000E+00
(PID.TID 0000.0001) %MON dynstat_wvel_min             =   0.0000000000000E+00
(PID.TID 0000.0001) %MON dynstat_wvel_mean            =   0.0000000000000E+00
(PID.TID 0000.0001) %MON dynstat_wvel_sd              =   0.0000000000000E+00
(PID.TID 0000.0001) %MON dynstat_wvel_del2            =   0.0000000000000E+00
(PID.TID 0000.0001) %MON dynstat_theta_max            =   2.9347604485219E+00
(PID.TID 0000.0001) %MON dynstat_theta_min            =   4.5565749235474E-01
(PID.TID 0000.0001) %MON dynstat_theta_mean           =   1.6702089704383E+00
(PID.TID 0000.0001) %MON dynstat_theta_sd             =   7.3550792201376E-01
(PID.TID 0000.0001) %MON dynstat_theta_del2           =   2.5000000000000E-02
(PID.TID 0000.0001) %MON dynstat_salt_max             =   3.5000000000000E+01
(PID.TID 0000.0001) %MON dynstat_salt_min             =   3.5000000000000E+01
(PID.TID 0000.0001) %MON dynstat_salt_mean            =   3.5000000000000E+01
(PID.TID 0000.0001) %MON dynstat_salt_sd              =   0.0000000000000E+00
(PID.TID 0000.0001) %MON dynstat_salt_del2            =   0.0000000000000E+00
(PID.TID 0000.0001) %MON advcfl_uvel_max              =   0.0000000000000E+00
(PID.TID 0000.0001) %MON advcfl_vvel_max              =   0.0000000000000E+00
(PID.TID 0000.0001) %MON advcfl_wvel_max              =   0.0000000000000E+00
(PID.TID 0000.0001) %MON advcfl_W_hf_max              =   0.0000000000000E+00
(PID.TID 0000.0001) %MON pe_b_mean                    =   0.0000000000000E+00
(PID.TID 0000.0001) %MON ke_max                       =   0.0000000000000E+00
(PID.TID 0000.0001) %MON ke_mean                      =   0.0000000000000E+00
(PID.TID 0000.0001) %MON ke_vol                       =   7.5000000000000E+10
(PID.TID 0000.0001) %MON vort_r_min                   =   0.0000000000000E+00
(PID.TID 0000.0001) %MON vort_r_max                   =   0.0000000000000E+00
(PID.TID 0000.0001) %MON vort_a_mean                  =   1.4000000000000E-04
(PID.TID 0000.0001) %MON vort_a_sd                    =   0.0000000000000E+00
(PID.TID 0000.0001) %MON vort_p_mean                  =   1.4000000000000E-04
(PID.TID 0000.0001) %MON vort_p_sd                    =   0.0000000000000E+00
(PID.TID 0000.0001) %MON surfExpan_theta_mean         =   0.0000000000000E+00
(PID.TID 0000.0001) %MON surfExpan_salt_mean          =   0.0000000000000E+00
(PID.TID 0000.0001) // =======================================================
(PID.TID 0000.0001) // End MONITOR dynamic field statistics
(PID.TID 0000.0001) // =======================================================
 cg2d: Sum(rhs),rhsMax =   0.00000000000000E+00  2.86942500000000E-01
(PID.TID 0000.0001)                    cg2d_init_res =    1.22499286151932E+00
(PID.TID 0000.0001)                       cg2d_iters =     1
(PID.TID 0000.0001)                         cg2d_res =    0.00000000000000E+00
(PID.TID 0000.0001) // =======================================================
(PID.TID 0000.0001) // Begin MONITOR dynamic field statistics
(PID.TID 0000.0001) // =======================================================
(PID.TID 0000.0001) %MON time_tsnumber                =                     1
(PID.TID 0000.0001) %MON time_secondsf                =   1.2000000000000E+03
(PID.TID 0000.0001) %MON dynstat_eta_max              =   5.0419543415053E-03
(PID.TID 0000.0001) %MON dynstat_eta_min              =  -9.7442517486476E-03
(PID.TID 0000.0001) %MON dynstat_eta_mean             =  -2.4835268656413E-19
(PID.TID 0000.0001) %MON dynstat_eta_sd               =   6.8916216434175E-03
(PID.TID 0000.0001) %MON dynstat_eta_del2             =   4.8721258743238E-03
(PID.TID 0000.0001) %MON dynstat_uvel_max             =   3.3603117335968E-02
(PID.TID 0000.0001) %MON dynstat_uvel_min             =  -1.3030446676085E-03
(PID.TID 0000.0001) %MON dynstat_uvel_mean            =   8.0016003200640E-04
(PID.TID 0000.0001) %MON dynstat_uvel_sd              =   4.4807665887842E-03
(PID.TID 0000.0001) %MON dynstat_uvel_del2            =   1.1626978888121E-03
(PID.TID 0000.0001) %MON dynstat_vvel_max             =   0.0000000000000E+00
(PID.TID 0000.0001) %MON dynstat_vvel_min             =   0.0000000000000E+00
(PID.TID 0000.0001) %MON dynstat_vvel_mean            =   0.0000000000000E+00
(PID.TID 0000.0001) %MON dynstat_vvel_sd              =   0.0000000000000E+00
(PID.TID 0000.0001) %MON dynstat_vvel_del2            =   0.0000000000000E+00
(PID.TID 0000.0001) %MON dynstat_wvel_max             =   3.7848868882169E-04
(PID.TID 0000.0001) %MON dynstat_wvel_min             =  -3.2514943994716E-04
(PID.TID 0000.0001) %MON dynstat_wvel_mean            =  -8.0346472115598E-21
(PID.TID 0000.0001) %MON dynstat_wvel_sd              =   1.7702738548806E-04
(PID.TID 0000.0001) %MON dynstat_wvel_del2            =   9.8393579738787E-05
(PID.TID 0000.0001) %MON dynstat_theta_max            =   2.9347598222252E+00
(PID.TID 0000.0001) %MON dynstat_theta_min            =   4.5565811865143E-01
(PID.TID 0000.0001) %MON dynstat_theta_mean           =   1.6701889363865E+00
(PID.TID 0000.0001) %MON dynstat_theta_sd             =   7.2525020686350E-01
(PID.TID 0000.0001) %MON dynstat_theta_del2           =   2.5020034051878E-02
(PID.TID 0000.0001) %MON dynstat_salt_max             =   3.5000000000000E+01
(PID.TID 0000.0001) %MON dynstat_salt_min             =   3.5000000000000E+01
(PID.TID 0000.0001) %MON dynstat_salt_mean            =   3.5000000000000E+01
(PID.TID 0000.0001) %MON dynstat_salt_sd              =   1.8346134549117E-15
(PID.TID 0000.0001) %MON dynstat_salt_del2            =   1.1842378929335E-16
(PID.TID 0000.0001) %MON advcfl_uvel_max              =   8.0647481606323E-03
(PID.TID 0000.0001) %MON advcfl_vvel_max              =   0.0000000000000E+00
(PID.TID 0000.0001) %MON advcfl_wvel_max              =   9.0837285317207E-03
(PID.TID 0000.0001) %MON advcfl_W_hf_max              =   1.5933737840143E-02
(PID.TID 0000.0001) %MON pe_b_mean                    =   2.3296027173688E-07
(PID.TID 0000.0001) %MON ke_max                       =   2.9076300214160E-04
(PID.TID 0000.0001) %MON ke_mean                      =   1.0358762649992E-05
(PID.TID 0000.0001) %MON ke_vol                       =   7.5000000000000E+10
(PID.TID 0000.0001) %MON vort_r_min                   =   0.0000000000000E+00
(PID.TID 0000.0001) %MON vort_r_max                   =   0.0000000000000E+00
(PID.TID 0000.0001) %MON vort_a_mean                  =   1.4000000000000E-04
(PID.TID 0000.0001) %MON vort_a_sd                    =   0.0000000000000E+00
(PID.TID 0000.0001) %MON vort_p_mean                  =   1.4000000000000E-04
(PID.TID 0000.0001) %MON vort_p_sd                    =   0.0000000000000E+00
(PID.TID 0000.0001) %MON surfExpan_theta_mean         =   2.5902946377837E-06
(PID.TID 0000.0001) %MON surfExpan_salt_mean          =  -7.2153246340652E-19
(PID.TID 0000.0001) // =======================================================
(PID.TID 0000.0001) // End MONITOR dynamic field statistics
(PID.TID 0000.0001) // =======================================================
 cg2d: Sum(rhs),rhsMax =  -1.11022302462516E-16  2.79602192484744E-01
(PID.TID 0000.0001)                    cg2d_init_res =    3.21534353776799E-02
(PID.TID 0000.0001)                       cg2d_iters =     1
(PID.TID 0000.0001)                         cg2d_res =    3.19533050626013E-16
(PID.TID 0000.0001) // =======================================================
(PID.TID 0000.0001) // Begin MONITOR dynamic field statistics
(PID.TID 0000.0001) // =======================================================
(PID.TID 0000.0001) %MON time_tsnumber                =                     2
(PID.TID 0000.0001) %MON time_secondsf                =   2.4000000000000E+03
(PID.TID 0000.0001) %MON dynstat_eta_max              =   4.9186359403002E-03
(PID.TID 0000.0001) %MON dynstat_eta_min              =  -9.4949829775832E-03
(PID.TID 0000.0001) %MON dynstat_eta_mean             =   2.2351741790771E-18
(PID.TID 0000.0001) %MON dynstat_eta_sd               =   6.7154208967980E-03
(PID.TID 0000.0001) %MON dynstat_eta_del2             =   4.7474914887916E-03
(PID.TID 0000.0001) %MON dynstat_uvel_max             =   7.0642647088095E-02
(PID.TID 0000.0001) %MON dynstat_uvel_min             =  -4.0003568495731E-03
(PID.TID 0000.0001) %MON dynstat_uvel_mean            =   1.6003676301392E-03
(PID.TID 0000.0001) %MON dynstat_uvel_sd              =   9.6614197889504E-03
(PID.TID 0000.0001) %MON dynstat_uvel_del2            =   3.0156165526000E-03
(PID.TID 0000.0001) %MON dynstat_vvel_max             =   1.0143246222975E-04
(PID.TID 0000.0001) %MON dynstat_vvel_min             =  -4.3634804943224E-03
(PID.TID 0000.0001) %MON dynstat_vvel_mean            =  -2.0298459691938E-04
(PID.TID 0000.0001) %MON dynstat_vvel_sd              =   7.7568742050389E-04
(PID.TID 0000.0001) %MON dynstat_vvel_del2            =   1.4689473188372E-04
(PID.TID 0000.0001) %MON dynstat_wvel_max             =   8.7859464277721E-04
(PID.TID 0000.0001) %MON dynstat_wvel_min             =  -9.2801899486366E-04
(PID.TID 0000.0001) %MON dynstat_wvel_mean            =  -4.8506384094556E-21
(PID.TID 0000.0001) %MON dynstat_wvel_sd              =   4.6449099458746E-04
(PID.TID 0000.0001) %MON dynstat_wvel_del2            =   2.4921565381483E-04
(PID.TID 0000.0001) %MON dynstat_theta_max            =   2.9347591959315E+00
(PID.TID 0000.0001) %MON dynstat_theta_min            =   4.5565874494511E-01
(PID.TID 0000.0001) %MON dynstat_theta_mean           =   1.6701689023346E+00
(PID.TID 0000.0001) %MON dynstat_theta_sd             =   7.2270362015403E-01
(PID.TID 0000.0001) %MON dynstat_theta_del2           =   2.5040068103756E-02
(PID.TID 0000.0001) %MON dynstat_salt_max             =   3.5000000000000E+01
(PID.TID 0000.0001) %MON dynstat_salt_min             =   3.5000000000000E+01
(PID.TID 0000.0001) %MON dynstat_salt_mean            =   3.5000000000000E+01
(PID.TID 0000.0001) %MON dynstat_salt_sd              =   7.1643945708190E-15
(PID.TID 0000.0001) %MON dynstat_salt_del2            =   3.5527136788005E-16
(PID.TID 0000.0001) %MON advcfl_uvel_max              =   1.6954235301143E-02
(PID.TID 0000.0001) %MON advcfl_vvel_max              =   1.0472353186374E-03
(PID.TID 0000.0001) %MON advcfl_wvel_max              =   2.2272455876728E-02
(PID.TID 0000.0001) %MON advcfl_W_hf_max              =   3.3180387024596E-02
(PID.TID 0000.0001) %MON pe_b_mean                    =   2.2120018571275E-07
(PID.TID 0000.0001) %MON ke_max                       =   1.2576831466720E-03
(PID.TID 0000.0001) %MON ke_mean                      =   4.8273551305417E-05
(PID.TID 0000.0001) %MON ke_vol                       =   7.5000000000000E+10
(PID.TID 0000.0001) %MON vort_r_min                   =  -7.0475102731458E-07
(PID.TID 0000.0001) %MON vort_r_max                   =   6.0518016220992E-07
(PID.TID 0000.0001) %MON vort_a_mean                  =   1.4000000000000E-04
(PID.TID 0000.0001) %MON vort_a_sd                    =   1.3290866667307E-07
(PID.TID 0000.0001) %MON vort_p_mean                  =   1.4000000000000E-04
(PID.TID 0000.0001) %MON vort_p_sd                    =   1.3290866667307E-07
(PID.TID 0000.0001) %MON surfExpan_theta_mean         =  -5.1525669734560E-08
(PID.TID 0000.0001) %MON surfExpan_salt_mean          =  -7.7136519394116E-19
(PID.TID 0000.0001) // =======================================================
(PID.TID 0000.0001) // End MONITOR dynamic field statistics
(PID.TID 0000.0001) // =======================================================
 cg2d: Sum(rhs),rhsMax =   4.44089209850063E-16  2.75437030867036E-01
(PID.TID 0000.0001)                    cg2d_init_res =    1.85291175187289E-02
(PID.TID 0000.0001)                       cg2d_iters =     1
(PID.TID 0000.0001)                         cg2d_res =    2.87944502330319E-16
(PID.TID 0000.0001) // =======================================================
(PID.TID 0000.0001) // Begin MONITOR dynamic field statistics
(PID.TID 0000.0001) // =======================================================
(PID.TID 0000.0001) %MON time_tsnumber                =                     3
(PID.TID 0000.0001) %MON time_secondsf                =   3.6000000000000E+03
(PID.TID 0000.0001) %MON dynstat_eta_max              =   4.8516282292252E-03
(PID.TID 0000.0001) %MON dynstat_eta_min              =  -9.3535386694839E-03
(PID.TID 0000.0001) %MON dynstat_eta_mean             =   0.0000000000000E+00
(PID.TID 0000.0001) %MON dynstat_eta_sd               =   6.6154914085112E-03
(PID.TID 0000.0001) %MON dynstat_eta_del2             =   4.6767693347420E-03
(PID.TID 0000.0001) %MON dynstat_uvel_max             =   1.0344654326164E-01
(PID.TID 0000.0001) %MON dynstat_uvel_min             =  -1.2332617650747E-02
(PID.TID 0000.0001) %MON dynstat_uvel_mean            =   2.3490162883312E-03
(PID.TID 0000.0001) %MON dynstat_uvel_sd              =   1.4817424574639E-02
(PID.TID 0000.0001) %MON dynstat_uvel_del2            =   5.2227244926933E-03
(PID.TID 0000.0001) %MON dynstat_vvel_max             =   2.8662986411377E-04
(PID.TID 0000.0001) %MON dynstat_vvel_min             =  -1.2001314013291E-02
(PID.TID 0000.0001) %MON dynstat_vvel_mean            =  -5.4040798953382E-04
(PID.TID 0000.0001) %MON dynstat_vvel_sd              =   2.0451001798505E-03
(PID.TID 0000.0001) %MON dynstat_vvel_del2            =   4.7743125578585E-04
(PID.TID 0000.0001) %MON dynstat_wvel_max             =   1.4504083078436E-03
(PID.TID 0000.0001) %MON dynstat_wvel_min             =  -1.6831364373952E-03
(PID.TID 0000.0001) %MON dynstat_wvel_mean            =   4.4227872266729E-20
(PID.TID 0000.0001) %MON dynstat_wvel_sd              =   8.1240685740449E-04
(PID.TID 0000.0001) %MON dynstat_wvel_del2            =   4.5258359459303E-04
(PID.TID 0000.0001) %MON dynstat_theta_max            =   2.9347585696409E+00
(PID.TID 0000.0001) %MON dynstat_theta_min            =   4.5565937123579E-01
(PID.TID 0000.0001) %MON dynstat_theta_mean           =   1.6701488682827E+00
(PID.TID 0000.0001) %MON dynstat_theta_sd             =   7.2206148044427E-01
(PID.TID 0000.0001) %MON dynstat_theta_del2           =   2.5060102155634E-02
(PID.TID 0000.0001) %MON dynstat_salt_max             =   3.5000000000000E+01
(PID.TID 0000.0001) %MON dynstat_salt_min             =   3.5000000000000E+01
(PID.TID 0000.0001) %MON dynstat_salt_mean            =   3.5000000000000E+01
(PID.TID 0000.0001) %MON dynstat_salt_sd              =   1.3512771891627E-14
(PID.TID 0000.0001) %MON dynstat_salt_del2            =   7.1054273576010E-16
(PID.TID 0000.0001) %MON advcfl_uvel_max              =   2.4827170382794E-02
(PID.TID 0000.0001) %MON advcfl_vvel_max              =   2.8803153631898E-03
(PID.TID 0000.0001) %MON advcfl_wvel_max              =   4.0395274497485E-02
(PID.TID 0000.0001) %MON advcfl_W_hf_max              =   5.0655447401659E-02
(PID.TID 0000.0001) %MON pe_b_mean                    =   2.1466598385570E-07
(PID.TID 0000.0001) %MON ke_max                       =   2.7477046777720E-03
(PID.TID 0000.0001) %MON ke_mean                      =   1.1477421204436E-04
(PID.TID 0000.0001) %MON ke_vol                       =   7.5000000000000E+10
(PID.TID 0000.0001) %MON vort_r_min                   =  -2.1883354000589E-06
(PID.TID 0000.0001) %MON vort_r_max                   =   1.6192116686828E-06
(PID.TID 0000.0001) %MON vort_a_mean                  =   1.4000000000000E-04
(PID.TID 0000.0001) %MON vort_a_sd                    =   4.0934523900227E-07
(PID.TID 0000.0001) %MON vort_p_mean                  =   1.4000000000000E-04
(PID.TID 0000.0001) %MON vort_p_sd                    =   4.0934523900227E-07
(PID.TID 0000.0001) %MON surfExpan_theta_mean         =  -2.5592127198586E-08
(PID.TID 0000.0001) %MON surfExpan_salt_mean          =   2.5292479222117E-18
(PID.TID 0000.0001) // =======================================================
(PID.TID 0000.0001) // End MONITOR dynamic field statistics
(PID.TID 0000.0001) // =======================================================
 cg2d: Sum(rhs),rhsMax =  -7.77156117237610E-16  2.73359089422405E-01
(PID.TID 0000.0001)                    cg2d_init_res =    9.34061042702234E-03
(PID.TID 0000.0001)                       cg2d_iters =     1
(PID.TID 0000.0001)                         cg2d_res =    5.44590078120268E-16
(PID.TID 0000.0001) // =======================================================
(PID.TID 0000.0001) // Begin MONITOR dynamic field statistics
(PID.TID 0000.0001) // =======================================================
(PID.TID 0000.0001) %MON time_tsnumber                =                     4
(PID.TID 0000.0001) %MON time_secondsf                =   4.8000000000000E+03
(PID.TID 0000.0001) %MON dynstat_eta_max              =   4.8213129925315E-03
(PID.TID 0000.0001) %MON dynstat_eta_min              =  -9.2829740631414E-03
(PID.TID 0000.0001) %MON dynstat_eta_mean             =   4.9670537312826E-18
(PID.TID 0000.0001) %MON dynstat_eta_sd               =   6.5656958488268E-03
(PID.TID 0000.0001) %MON dynstat_eta_del2             =   4.6414870315707E-03
(PID.TID 0000.0001) %MON dynstat_uvel_max             =   1.3275084142518E-01
(PID.TID 0000.0001) %MON dynstat_uvel_min             =  -2.0383828380700E-02
(PID.TID 0000.0001) %MON dynstat_uvel_mean            =   3.0294764161076E-03
(PID.TID 0000.0001) %MON dynstat_uvel_sd              =   1.9826744836489E-02
(PID.TID 0000.0001) %MON dynstat_uvel_del2            =   7.5081642653958E-03
(PID.TID 0000.0001) %MON dynstat_vvel_max             =   1.2945163042844E-03
(PID.TID 0000.0001) %MON dynstat_vvel_min             =  -2.2091792309809E-02
(PID.TID 0000.0001) %MON dynstat_vvel_mean            =  -9.9918682958464E-04
(PID.TID 0000.0001) %MON dynstat_vvel_sd              =   3.7600771392609E-03
(PID.TID 0000.0001) %MON dynstat_vvel_del2            =   1.0039747122221E-03
(PID.TID 0000.0001) %MON dynstat_wvel_max             =   2.0370980817239E-03
(PID.TID 0000.0001) %MON dynstat_wvel_min             =  -2.4595141815677E-03
(PID.TID 0000.0001) %MON dynstat_wvel_mean            =  -1.4328039609469E-20
(PID.TID 0000.0001) %MON dynstat_wvel_sd              =   1.1856783812615E-03
(PID.TID 0000.0001) %MON dynstat_wvel_del2            =   6.7198778580920E-04
(PID.TID 0000.0001) %MON dynstat_theta_max            =   2.9347579433532E+00
(PID.TID 0000.0001) %MON dynstat_theta_min            =   4.5565999752346E-01
(PID.TID 0000.0001) %MON dynstat_theta_mean           =   1.6701288342308E+00
(PID.TID 0000.0001) %MON dynstat_theta_sd             =   7.2192670831314E-01
(PID.TID 0000.0001) %MON dynstat_theta_del2           =   2.5080136207512E-02
(PID.TID 0000.0001) %MON dynstat_salt_max             =   3.5000000000000E+01
(PID.TID 0000.0001) %MON dynstat_salt_min             =   3.5000000000000E+01
(PID.TID 0000.0001) %MON dynstat_salt_mean            =   3.5000000000000E+01
(PID.TID 0000.0001) %MON dynstat_salt_sd              =   2.0159889344187E-14
(PID.TID 0000.0001) %MON dynstat_salt_del2            =   1.3026616822269E-15
(PID.TID 0000.0001) %MON advcfl_uvel_max              =   3.1860201942044E-02
(PID.TID 0000.0001) %MON advcfl_vvel_max              =   5.3020301543542E-03
(PID.TID 0000.0001) %MON advcfl_wvel_max              =   5.9028340357626E-02
(PID.TID 0000.0001) %MON advcfl_W_hf_max              =   6.7308937193425E-02
(PID.TID 0000.0001) %MON pe_b_mean                    =   2.1144651550848E-07
(PID.TID 0000.0001) %MON ke_max                       =   4.6497251422324E-03
(PID.TID 0000.0001) %MON ke_mean                      =   2.0870704629031E-04
(PID.TID 0000.0001) %MON ke_vol                       =   7.5000000000000E+10
(PID.TID 0000.0001) %MON vort_r_min                   =  -4.2631605211070E-06
(PID.TID 0000.0001) %MON vort_r_max                   =   2.9543491434340E-06
(PID.TID 0000.0001) %MON vort_a_mean                  =   1.4000000000000E-04
(PID.TID 0000.0001) %MON vort_a_sd                    =   8.2068801211537E-07
(PID.TID 0000.0001) %MON vort_p_mean                  =   1.4000000000000E-04
(PID.TID 0000.0001) %MON vort_p_sd                    =   8.2068801211537E-07
(PID.TID 0000.0001) %MON surfExpan_theta_mean         =  -1.2102013049158E-08
(PID.TID 0000.0001) %MON surfExpan_salt_mean          =   6.3214618724790E-19
(PID.TID 0000.0001) // =======================================================
(PID.TID 0000.0001) // End MONITOR dynamic field statistics
(PID.TID 0000.0001) // =======================================================
 cg2d: Sum(rhs),rhsMax =   2.22044604925031E-16  2.73404294451111E-01
(PID.TID 0000.0001)                    cg2d_init_res =    8.28149197570541E-04
(PID.TID 0000.0001)                       cg2d_iters =     1
(PID.TID 0000.0001)                         cg2d_res =    1.60074761026663E-16
(PID.TID 0000.0001) // =======================================================
(PID.TID 0000.0001) // Begin MONITOR dynamic field statistics
(PID.TID 0000.0001) // =======================================================
(PID.TID 0000.0001) %MON time_tsnumber                =                     5
(PID.TID 0000.0001) %MON time_secondsf                =   6.0000000000000E+03
(PID.TID 0000.0001) %MON dynstat_eta_max              =   4.8273524192067E-03
(PID.TID 0000.0001) %MON dynstat_eta_min              =  -9.2845091762043E-03
(PID.TID 0000.0001) %MON dynstat_eta_mean             =   3.4769376118978E-18
(PID.TID 0000.0001) %MON dynstat_eta_sd               =   6.5668787202316E-03
(PID.TID 0000.0001) %MON dynstat_eta_del2             =   4.6422545881021E-03
(PID.TID 0000.0001) %MON dynstat_uvel_max             =   1.5879204936272E-01
(PID.TID 0000.0001) %MON dynstat_uvel_min             =  -2.7925155193730E-02
(PID.TID 0000.0001) %MON dynstat_uvel_mean            =   3.6224645110057E-03
(PID.TID 0000.0001) %MON dynstat_uvel_sd              =   2.4525977952966E-02
(PID.TID 0000.0001) %MON dynstat_uvel_del2            =   9.7309193721046E-03
(PID.TID 0000.0001) %MON dynstat_vvel_max             =   3.1431733786925E-03
(PID.TID 0000.0001) %MON dynstat_vvel_min             =  -3.4267516608835E-02
(PID.TID 0000.0001) %MON dynstat_vvel_mean            =  -1.5664406556410E-03
(PID.TID 0000.0001) %MON dynstat_vvel_sd              =   5.8773497409117E-03
(PID.TID 0000.0001) %MON dynstat_vvel_del2            =   1.7037621005021E-03
(PID.TID 0000.0001) %MON dynstat_wvel_max             =   2.6012711149073E-03
(PID.TID 0000.0001) %MON dynstat_wvel_min             =  -3.2232291993422E-03
(PID.TID 0000.0001) %MON dynstat_wvel_mean            =   1.4775790847265E-19
(PID.TID 0000.0001) %MON dynstat_wvel_sd              =   1.5501027870893E-03
(PID.TID 0000.0001) %MON dynstat_wvel_del2            =   8.8560687804835E-04
(PID.TID 0000.0001) %MON dynstat_theta_max            =   2.9347573170685E+00
(PID.TID 0000.0001) %MON dynstat_theta_min            =   4.5566062380812E-01
(PID.TID 0000.0001) %MON dynstat_theta_mean           =   1.6701088001789E+00
(PID.TID 0000.0001) %MON dynstat_theta_sd             =   7.2186799691876E-01
(PID.TID 0000.0001) %MON dynstat_theta_del2           =   2.5100170259390E-02
(PID.TID 0000.0001) %MON dynstat_salt_max             =   3.5000000000000E+01
(PID.TID 0000.0001) %MON dynstat_salt_min             =   3.5000000000000E+01
(PID.TID 0000.0001) %MON dynstat_salt_mean            =   3.5000000000000E+01
(PID.TID 0000.0001) %MON dynstat_salt_sd              =   2.6586074758753E-14
(PID.TID 0000.0001) %MON dynstat_salt_del2            =   2.4868995751604E-15
(PID.TID 0000.0001) %MON advcfl_uvel_max              =   3.8110091847052E-02
(PID.TID 0000.0001) %MON advcfl_vvel_max              =   8.2242039861204E-03
(PID.TID 0000.0001) %MON advcfl_wvel_max              =   7.7357500784212E-02
(PID.TID 0000.0001) %MON advcfl_W_hf_max              =   8.2638535876922E-02
(PID.TID 0000.0001) %MON pe_b_mean                    =   2.1152271049916E-07
(PID.TID 0000.0001) %MON ke_max                       =   6.8928807420848E-03
(PID.TID 0000.0001) %MON ke_mean                      =   3.2582140999376E-04
(PID.TID 0000.0001) %MON ke_vol                       =   7.5000000000000E+10
(PID.TID 0000.0001) %MON vort_r_min                   =  -6.8885153012113E-06
(PID.TID 0000.0001) %MON vort_r_max                   =   4.6044337619751E-06
(PID.TID 0000.0001) %MON vort_a_mean                  =   1.4000000000000E-04
(PID.TID 0000.0001) %MON vort_a_sd                    =   1.3611952226080E-06
(PID.TID 0000.0001) %MON vort_p_mean                  =   1.4000000000000E-04
(PID.TID 0000.0001) %MON vort_p_sd                    =   1.3611952226080E-06
(PID.TID 0000.0001) %MON surfExpan_theta_mean         =   2.5550986394447E-10
(PID.TID 0000.0001) %MON surfExpan_salt_mean          =   1.4072050191771E-17
(PID.TID 0000.0001) // =======================================================
(PID.TID 0000.0001) // End MONITOR dynamic field statistics
(PID.TID 0000.0001) // =======================================================
 cg2d: Sum(rhs),rhsMax =  -6.66133814775094E-16  2.73102226958549E-01
(PID.TID 0000.0001)                    cg2d_init_res =    1.52804472701973E-03
(PID.TID 0000.0001)                       cg2d_iters =     1
(PID.TID 0000.0001)                         cg2d_res =    3.52269434779200E-16
(PID.TID 0000.0001) // =======================================================
(PID.TID 0000.0001) // Begin MONITOR dynamic field statistics
(PID.TID 0000.0001) // =======================================================
(PID.TID 0000.0001) %MON time_tsnumber                =                     6
(PID.TID 0000.0001) %MON time_secondsf                =   7.2000000000000E+03
(PID.TID 0000.0001) %MON dynstat_eta_max              =   4.8268599884920E-03
(PID.TID 0000.0001) %MON dynstat_eta_min              =  -9.2742512963412E-03
(PID.TID 0000.0001) %MON dynstat_eta_mean             =   5.9604644775391E-18
(PID.TID 0000.0001) %MON dynstat_eta_sd               =   6.5597155401060E-03
(PID.TID 0000.0001) %MON dynstat_eta_del2             =   4.6371256481706E-03
(PID.TID 0000.0001) %MON dynstat_uvel_max             =   1.8181069935194E-01
(PID.TID 0000.0001) %MON dynstat_uvel_min             =  -3.5259873213477E-02
(PID.TID 0000.0001) %MON dynstat_uvel_mean            =   4.1108607796839E-03
(PID.TID 0000.0001) %MON dynstat_uvel_sd              =   2.8932115753368E-02
(PID.TID 0000.0001) %MON dynstat_uvel_del2            =   1.1938813839093E-02
(PID.TID 0000.0001) %MON dynstat_vvel_max             =   5.6505742537357E-03
(PID.TID 0000.0001) %MON dynstat_vvel_min             =  -4.8154384025521E-02
(PID.TID 0000.0001) %MON dynstat_vvel_mean            =  -2.2258220432689E-03
(PID.TID 0000.0001) %MON dynstat_vvel_sd              =   8.3555391267741E-03
(PID.TID 0000.0001) %MON dynstat_vvel_del2            =   2.6104375604557E-03
(PID.TID 0000.0001) %MON dynstat_wvel_max             =   3.1451958350559E-03
(PID.TID 0000.0001) %MON dynstat_wvel_min             =  -3.9774392261528E-03
(PID.TID 0000.0001) %MON dynstat_wvel_mean            =   2.2049260954572E-19
(PID.TID 0000.0001) %MON dynstat_wvel_sd              =   1.9087512869991E-03
(PID.TID 0000.0001) %MON dynstat_wvel_del2            =   1.0957682829226E-03
(PID.TID 0000.0001) %MON dynstat_theta_max            =   2.9347566907869E+00
(PID.TID 0000.0001) %MON dynstat_theta_min            =   4.5566125008978E-01
(PID.TID 0000.0001) %MON dynstat_theta_mean           =   1.6700887661271E+00
(PID.TID 0000.0001) %MON dynstat_theta_sd             =   7.2183099122995E-01
(PID.TID 0000.0001) %MON dynstat_theta_del2           =   2.5120204311268E-02
(PID.TID 0000.0001) %MON dynstat_salt_max             =   3.5000000000000E+01
(PID.TID 0000.0001) %MON dynstat_salt_min             =   3.5000000000000E+01
(PID.TID 0000.0001) %MON dynstat_salt_mean            =   3.5000000000000E+01
(PID.TID 0000.0001) %MON dynstat_salt_sd              =   3.3035780102939E-14
(PID.TID 0000.0001) %MON dynstat_salt_del2            =   3.1974423109205E-15
(PID.TID 0000.0001) %MON advcfl_uvel_max              =   4.3634567844464E-02
(PID.TID 0000.0001) %MON advcfl_vvel_max              =   1.1557052166125E-02
(PID.TID 0000.0001) %MON advcfl_wvel_max              =   9.5458541427667E-02
(PID.TID 0000.0001) %MON advcfl_W_hf_max              =   9.6696815478469E-02
(PID.TID 0000.0001) %MON pe_b_mean                    =   2.1106150237866E-07
(PID.TID 0000.0001) %MON ke_max                       =   9.4352816407609E-03
(PID.TID 0000.0001) %MON ke_mean                      =   4.6436790809179E-04
(PID.TID 0000.0001) %MON ke_vol                       =   7.5000000000000E+10
(PID.TID 0000.0001) %MON vort_r_min                   =  -1.0019170216254E-05
(PID.TID 0000.0001) %MON vort_r_max                   =   6.5658040685155E-06
(PID.TID 0000.0001) %MON vort_a_mean                  =   1.4000000000000E-04
(PID.TID 0000.0001) %MON vort_a_sd                    =   2.0246473427146E-06
(PID.TID 0000.0001) %MON vort_p_mean                  =   1.4000000000000E-04
(PID.TID 0000.0001) %MON vort_p_sd                    =   2.0246473427146E-06
(PID.TID 0000.0001) %MON surfExpan_theta_mean         =  -1.6787538264406E-09
(PID.TID 0000.0001) %MON surfExpan_salt_mean          =   1.1700253358763E-17
(PID.TID 0000.0001) // =======================================================
(PID.TID 0000.0001) // End MONITOR dynamic field statistics
(PID.TID 0000.0001) // =======================================================
 cg2d: Sum(rhs),rhsMax =   4.44089209850063E-16  2.72905583497627E-01
(PID.TID 0000.0001)                    cg2d_init_res =    1.01264851272563E-03
(PID.TID 0000.0001)                       cg2d_iters =     1
(PID.TID 0000.0001)                         cg2d_res =    3.20220917915288E-16
(PID.TID 0000.0001) // =======================================================
(PID.TID 0000.0001) // Begin MONITOR dynamic field statistics
(PID.TID 0000.0001) // =======================================================
(PID.TID 0000.0001) %MON time_tsnumber                =                     7
(PID.TID 0000.0001) %MON time_secondsf                =   8.4000000000000E+03
(PID.TID 0000.0001) %MON dynstat_eta_max              =   4.8267756978026E-03
(PID.TID 0000.0001) %MON dynstat_eta_min              =  -9.2675735006575E-03
(PID.TID 0000.0001) %MON dynstat_eta_mean             =   3.2285849253337E-18
(PID.TID 0000.0001) %MON dynstat_eta_sd               =   6.5550582848370E-03
(PID.TID 0000.0001) %MON dynstat_eta_del2             =   4.6337867503288E-03
(PID.TID 0000.0001) %MON dynstat_uvel_max             =   2.0211614337996E-01
(PID.TID 0000.0001) %MON dynstat_uvel_min             =  -4.2480301572685E-02
(PID.TID 0000.0001) %MON dynstat_uvel_mean            =   4.4805868310570E-03
(PID.TID 0000.0001) %MON dynstat_uvel_sd              =   3.3044504532742E-02
(PID.TID 0000.0001) %MON dynstat_uvel_del2            =   1.4072436018523E-02
(PID.TID 0000.0001) %MON dynstat_vvel_max             =   8.8642567602463E-03
(PID.TID 0000.0001) %MON dynstat_vvel_min             =  -6.3402678163722E-02
(PID.TID 0000.0001) %MON dynstat_vvel_mean            =  -2.9582924958694E-03
(PID.TID 0000.0001) %MON dynstat_vvel_sd              =   1.1153587597387E-02
(PID.TID 0000.0001) %MON dynstat_vvel_del2            =   3.7055857589001E-03
(PID.TID 0000.0001) %MON dynstat_wvel_max             =   3.6944526409161E-03
(PID.TID 0000.0001) %MON dynstat_wvel_min             =  -4.7047953958536E-03
(PID.TID 0000.0001) %MON dynstat_wvel_mean            =  -4.5372125429985E-20
(PID.TID 0000.0001) %MON dynstat_wvel_sd              =   2.2579679898020E-03
(PID.TID 0000.0001) %MON dynstat_wvel_del2            =   1.3003887552780E-03
(PID.TID 0000.0001) %MON dynstat_theta_max            =   2.9347560645082E+00
(PID.TID 0000.0001) %MON dynstat_theta_min            =   4.5566187636843E-01
(PID.TID 0000.0001) %MON dynstat_theta_mean           =   1.6700687320752E+00
(PID.TID 0000.0001) %MON dynstat_theta_sd             =   7.2180360349044E-01
(PID.TID 0000.0001) %MON dynstat_theta_del2           =   2.5140238363146E-02
(PID.TID 0000.0001) %MON dynstat_salt_max             =   3.5000000000000E+01
(PID.TID 0000.0001) %MON dynstat_salt_min             =   3.5000000000000E+01
(PID.TID 0000.0001) %MON dynstat_salt_mean            =   3.5000000000000E+01
(PID.TID 0000.0001) %MON dynstat_salt_sd              =   3.9794622398858E-14
(PID.TID 0000.0001) %MON dynstat_salt_del2            =   3.1974423109205E-15
(PID.TID 0000.0001) %MON advcfl_uvel_max              =   4.8507874411191E-02
(PID.TID 0000.0001) %MON advcfl_vvel_max              =   1.5216642759293E-02
(PID.TID 0000.0001) %MON advcfl_wvel_max              =   1.1291508950049E-01
(PID.TID 0000.0001) %MON advcfl_W_hf_max              =   1.1291508950049E-01
(PID.TID 0000.0001) %MON pe_b_mean                    =   2.1076191062188E-07
(PID.TID 0000.0001) %MON ke_max                       =   1.2261720726869E-02
(PID.TID 0000.0001) %MON ke_mean                      =   6.2258447447437E-04
(PID.TID 0000.0001) %MON ke_vol                       =   7.5000000000000E+10
(PID.TID 0000.0001) %MON vort_r_min                   =  -1.3614038297432E-05
(PID.TID 0000.0001) %MON vort_r_max                   =   8.8459927051368E-06
(PID.TID 0000.0001) %MON vort_a_mean                  =   1.4000000000000E-04
(PID.TID 0000.0001) %MON vort_a_sd                    =   2.8045697926763E-06
(PID.TID 0000.0001) %MON vort_p_mean                  =   1.4000000000000E-04
(PID.TID 0000.0001) %MON vort_p_sd                    =   2.8045697926763E-06
(PID.TID 0000.0001) %MON surfExpan_theta_mean         =  -1.0822720220952E-09
(PID.TID 0000.0001) %MON surfExpan_salt_mean          =  -3.7947731993763E-18
(PID.TID 0000.0001) // =======================================================
(PID.TID 0000.0001) // End MONITOR dynamic field statistics
(PID.TID 0000.0001) // =======================================================
 cg2d: Sum(rhs),rhsMax =   3.33066907387547E-16  2.72835809473360E-01
(PID.TID 0000.0001)                    cg2d_init_res =    3.58814505152199E-04
(PID.TID 0000.0001)                       cg2d_iters =     1
(PID.TID 0000.0001)                         cg2d_res =    2.88178368930477E-16
(PID.TID 0000.0001) // =======================================================
(PID.TID 0000.0001) // Begin MONITOR dynamic field statistics
(PID.TID 0000.0001) // =======================================================
(PID.TID 0000.0001) %MON time_tsnumber                =                     8
(PID.TID 0000.0001) %MON time_secondsf                =   9.6000000000000E+03
(PID.TID 0000.0001) %MON dynstat_eta_max              =   4.8267378815478E-03
(PID.TID 0000.0001) %MON dynstat_eta_min              =  -9.2652040515241E-03
(PID.TID 0000.0001) %MON dynstat_eta_mean             =   7.4505805969238E-19
(PID.TID 0000.0001) %MON dynstat_eta_sd               =   6.5534058991126E-03
(PID.TID 0000.0001) %MON dynstat_eta_del2             =   4.6326020257621E-03
(PID.TID 0000.0001) %MON dynstat_uvel_max             =   2.2249991556992E-01
(PID.TID 0000.0001) %MON dynstat_uvel_min             =  -5.0024670900644E-02
(PID.TID 0000.0001) %MON dynstat_uvel_mean            =   4.7209956688839E-03
(PID.TID 0000.0001) %MON dynstat_uvel_sd              =   3.6991457186727E-02
(PID.TID 0000.0001) %MON dynstat_uvel_del2            =   1.6107154357477E-02
(PID.TID 0000.0001) %MON dynstat_vvel_max             =   1.2830980530047E-02
(PID.TID 0000.0001) %MON dynstat_vvel_min             =  -7.9698915229807E-02
(PID.TID 0000.0001) %MON dynstat_vvel_mean            =  -3.7427092713632E-03
(PID.TID 0000.0001) %MON dynstat_vvel_sd              =   1.4246687612428E-02
(PID.TID 0000.0001) %MON dynstat_vvel_del2            =   4.9758890004002E-03
(PID.TID 0000.0001) %MON dynstat_wvel_max             =   4.2188387709679E-03
(PID.TID 0000.0001) %MON dynstat_wvel_min             =  -5.3963823947157E-03
(PID.TID 0000.0001) %MON dynstat_wvel_mean            =  -4.4576123229459E-20
(PID.TID 0000.0001) %MON dynstat_wvel_sd              =   2.5947499275592E-03
(PID.TID 0000.0001) %MON dynstat_wvel_del2            =   1.4978240490378E-03
(PID.TID 0000.0001) %MON dynstat_theta_max            =   2.9347554382326E+00
(PID.TID 0000.0001) %MON dynstat_theta_min            =   4.5566250264407E-01
(PID.TID 0000.0001) %MON dynstat_theta_mean           =   1.6700486980233E+00
(PID.TID 0000.0001) %MON dynstat_theta_sd             =   7.2178012569126E-01
(PID.TID 0000.0001) %MON dynstat_theta_del2           =   2.5160272415024E-02
(PID.TID 0000.0001) %MON dynstat_salt_max             =   3.5000000000000E+01
(PID.TID 0000.0001) %MON dynstat_salt_min             =   3.5000000000000E+01
(PID.TID 0000.0001) %MON dynstat_salt_mean            =   3.5000000000000E+01
(PID.TID 0000.0001) %MON dynstat_salt_sd              =   2.8019178661694E-14
(PID.TID 0000.0001) %MON dynstat_salt_del2            =   4.1448326252673E-15
(PID.TID 0000.0001) %MON advcfl_uvel_max              =   5.3399979736781E-02
(PID.TID 0000.0001) %MON advcfl_vvel_max              =   1.9127739655154E-02
(PID.TID 0000.0001) %MON advcfl_wvel_max              =   1.2951317747318E-01
(PID.TID 0000.0001) %MON advcfl_W_hf_max              =   1.2951317747318E-01
(PID.TID 0000.0001) %MON pe_b_mean                    =   2.1065566714916E-07
(PID.TID 0000.0001) %MON ke_max                       =   1.5647168346489E-02
(PID.TID 0000.0001) %MON ke_mean                      =   8.0381584275959E-04
(PID.TID 0000.0001) %MON ke_vol                       =   7.5000000000000E+10
(PID.TID 0000.0001) %MON vort_r_min                   =  -1.7633753637468E-05
(PID.TID 0000.0001) %MON vort_r_max                   =   1.1583349146595E-05
(PID.TID 0000.0001) %MON vort_a_mean                  =   1.4000000000000E-04
(PID.TID 0000.0001) %MON vort_a_sd                    =   3.6921207666896E-06
(PID.TID 0000.0001) %MON vort_p_mean                  =   1.4000000000000E-04
(PID.TID 0000.0001) %MON vort_p_sd                    =   3.6921207666896E-06
(PID.TID 0000.0001) %MON surfExpan_theta_mean         =  -3.8168500398019E-10
(PID.TID 0000.0001) %MON surfExpan_salt_mean          =   1.2648745476943E-18
(PID.TID 0000.0001) // =======================================================
(PID.TID 0000.0001) // End MONITOR dynamic field statistics
(PID.TID 0000.0001) // =======================================================
 cg2d: Sum(rhs),rhsMax =   0.00000000000000E+00  2.72806469968021E-01
(PID.TID 0000.0001)                    cg2d_init_res =    2.16869919210974E-04
(PID.TID 0000.0001)                       cg2d_iters =     1
(PID.TID 0000.0001)                         cg2d_res =    6.40518241751088E-17
(PID.TID 0000.0001) // =======================================================
(PID.TID 0000.0001) // Begin MONITOR dynamic field statistics
(PID.TID 0000.0001) // =======================================================
(PID.TID 0000.0001) %MON time_tsnumber                =                     9
(PID.TID 0000.0001) %MON time_secondsf                =   1.0800000000000E+04
(PID.TID 0000.0001) %MON dynstat_eta_max              =   4.8251110935678E-03
(PID.TID 0000.0001) %MON dynstat_eta_min              =  -9.2642077141875E-03
(PID.TID 0000.0001) %MON dynstat_eta_mean             =   1.2417634328206E-18
(PID.TID 0000.0001) %MON dynstat_eta_sd               =   6.5526793615050E-03
(PID.TID 0000.0001) %MON dynstat_eta_del2             =   4.6321038570938E-03
(PID.TID 0000.0001) %MON dynstat_uvel_max             =   2.4211805426633E-01
(PID.TID 0000.0001) %MON dynstat_uvel_min             =  -5.7830113239211E-02
(PID.TID 0000.0001) %MON dynstat_uvel_mean            =   4.8251717094386E-03
(PID.TID 0000.0001) %MON dynstat_uvel_sd              =   4.0744260324528E-02
(PID.TID 0000.0001) %MON dynstat_uvel_del2            =   1.8068474546675E-02
(PID.TID 0000.0001) %MON dynstat_vvel_max             =   1.7644137698420E-02
(PID.TID 0000.0001) %MON dynstat_vvel_min             =  -9.7046181971927E-02
(PID.TID 0000.0001) %MON dynstat_vvel_mean            =  -4.5564347946117E-03
(PID.TID 0000.0001) %MON dynstat_vvel_sd              =   1.7618521314193E-02
(PID.TID 0000.0001) %MON dynstat_vvel_del2            =   6.4098671490011E-03
(PID.TID 0000.0001) %MON dynstat_wvel_max             =   4.7132091808493E-03
(PID.TID 0000.0001) %MON dynstat_wvel_min             =  -6.0469270530010E-03
(PID.TID 0000.0001) %MON dynstat_wvel_mean            =   5.3730148535508E-21
(PID.TID 0000.0001) %MON dynstat_wvel_sd              =   2.9164417765025E-03
(PID.TID 0000.0001) %MON dynstat_wvel_del2            =   1.6866003430974E-03
(PID.TID 0000.0001) %MON dynstat_theta_max            =   2.9347548119599E+00
(PID.TID 0000.0001) %MON dynstat_theta_min            =   4.5566312891671E-01
(PID.TID 0000.0001) %MON dynstat_theta_mean           =   1.6700286639714E+00
(PID.TID 0000.0001) %MON dynstat_theta_sd             =   7.2175841837908E-01
(PID.TID 0000.0001) %MON dynstat_theta_del2           =   2.5180306466902E-02
(PID.TID 0000.0001) %MON dynstat_salt_max             =   3.5000000000000E+01
(PID.TID 0000.0001) %MON dynstat_salt_min             =   3.5000000000000E+01
(PID.TID 0000.0001) %MON dynstat_salt_mean            =   3.5000000000000E+01
(PID.TID 0000.0001) %MON dynstat_salt_sd              =   3.4334730765834E-14
(PID.TID 0000.0001) %MON dynstat_salt_del2            =   4.7369515717340E-15
(PID.TID 0000.0001) %MON advcfl_uvel_max              =   5.8108333023918E-02
(PID.TID 0000.0001) %MON advcfl_vvel_max              =   2.3291083673262E-02
(PID.TID 0000.0001) %MON advcfl_wvel_max              =   1.4512624927202E-01
(PID.TID 0000.0001) %MON advcfl_W_hf_max              =   1.4512624927202E-01
(PID.TID 0000.0001) %MON pe_b_mean                    =   2.1060896142607E-07
(PID.TID 0000.0001) %MON ke_max                       =   1.9558463896794E-02
(PID.TID 0000.0001) %MON ke_mean                      =   1.0072752113773E-03
(PID.TID 0000.0001) %MON ke_vol                       =   7.5000000000000E+10
(PID.TID 0000.0001) %MON vort_r_min                   =  -2.2086059764122E-05
(PID.TID 0000.0001) %MON vort_r_max                   =   1.4790960775004E-05
(PID.TID 0000.0001) %MON vort_a_mean                  =   1.4000000000000E-04
(PID.TID 0000.0001) %MON vort_a_sd                    =   4.6837052244810E-06
(PID.TID 0000.0001) %MON vort_p_mean                  =   1.4000000000000E-04
(PID.TID 0000.0001) %MON vort_p_sd                    =   4.6837052244810E-06
(PID.TID 0000.0001) %MON surfExpan_theta_mean         =  -1.5986974827966E-10
(PID.TID 0000.0001) %MON surfExpan_salt_mean          =  -3.6366080517306E-18
(PID.TID 0000.0001) // =======================================================
(PID.TID 0000.0001) // End MONITOR dynamic field statistics
(PID.TID 0000.0001) // =======================================================
 cg2d: Sum(rhs),rhsMax =  -5.55111512312578E-16  2.72779463075180E-01
(PID.TID 0000.0001)                    cg2d_init_res =    6.45309903093456E-04
(PID.TID 0000.0001)                       cg2d_iters =     1
(PID.TID 0000.0001)                         cg2d_res =    2.56215151123035E-16
(PID.TID 0000.0001) // =======================================================
(PID.TID 0000.0001) // Begin MONITOR dynamic field statistics
(PID.TID 0000.0001) // =======================================================
(PID.TID 0000.0001) %MON time_tsnumber                =                    10
(PID.TID 0000.0001) %MON time_secondsf                =   1.2000000000000E+04
(PID.TID 0000.0001) %MON dynstat_eta_max              =   4.8205009569931E-03
(PID.TID 0000.0001) %MON dynstat_eta_min              =  -9.2632905898062E-03
(PID.TID 0000.0001) %MON dynstat_eta_mean             =   2.7318795522054E-18
(PID.TID 0000.0001) %MON dynstat_eta_sd               =   6.5519503902526E-03
(PID.TID 0000.0001) %MON dynstat_eta_del2             =   4.6316452949031E-03
(PID.TID 0000.0001) %MON dynstat_uvel_max             =   2.6026763604037E-01
(PID.TID 0000.0001) %MON dynstat_uvel_min             =  -6.6093096702482E-02
(PID.TID 0000.0001) %MON dynstat_uvel_mean            =   4.7901305729471E-03
(PID.TID 0000.0001) %MON dynstat_uvel_sd              =   4.4333770676770E-02
(PID.TID 0000.0001) %MON dynstat_uvel_del2            =   1.9971865585429E-02
(PID.TID 0000.0001) %MON dynstat_vvel_max             =   2.3360858273098E-02
(PID.TID 0000.0001) %MON dynstat_vvel_min             =  -1.1520619399781E-01
(PID.TID 0000.0001) %MON dynstat_vvel_mean            =  -5.3759893811148E-03
(PID.TID 0000.0001) %MON dynstat_vvel_sd              =   2.1246883061667E-02
(PID.TID 0000.0001) %MON dynstat_vvel_del2            =   7.9934273247784E-03
(PID.TID 0000.0001) %MON dynstat_wvel_max             =   5.1791464672670E-03
(PID.TID 0000.0001) %MON dynstat_wvel_min             =  -6.6840552810868E-03
(PID.TID 0000.0001) %MON dynstat_wvel_mean            =   6.6864184844188E-20
(PID.TID 0000.0001) %MON dynstat_wvel_sd              =   3.2226198356690E-03
(PID.TID 0000.0001) %MON dynstat_wvel_del2            =   1.8664983111297E-03
(PID.TID 0000.0001) %MON dynstat_theta_max            =   2.9347541856903E+00
(PID.TID 0000.0001) %MON dynstat_theta_min            =   4.5566375518635E-01
(PID.TID 0000.0001) %MON dynstat_theta_mean           =   1.6700086299196E+00
(PID.TID 0000.0001) %MON dynstat_theta_sd             =   7.2173758923762E-01
(PID.TID 0000.0001) %MON dynstat_theta_del2           =   2.5200340518780E-02
(PID.TID 0000.0001) %MON dynstat_salt_max             =   3.5000000000000E+01
(PID.TID 0000.0001) %MON dynstat_salt_min             =   3.5000000000000E+01
(PID.TID 0000.0001) %MON dynstat_salt_mean            =   3.5000000000000E+01
(PID.TID 0000.0001) %MON dynstat_salt_sd              =   3.5086232883581E-14
(PID.TID 0000.0001) %MON dynstat_salt_del2            =   5.3290705182008E-15
(PID.TID 0000.0001) %MON advcfl_uvel_max              =   6.2464232649688E-02
(PID.TID 0000.0001) %MON advcfl_vvel_max              =   2.7649486559473E-02
(PID.TID 0000.0001) %MON advcfl_wvel_max              =   1.6041732674608E-01
(PID.TID 0000.0001) %MON advcfl_W_hf_max              =   1.6041732674608E-01
(PID.TID 0000.0001) %MON pe_b_mean                    =   2.1056210445961E-07
(PID.TID 0000.0001) %MON ke_max                       =   2.3926628863631E-02
(PID.TID 0000.0001) %MON ke_mean                      =   1.2343799374942E-03
(PID.TID 0000.0001) %MON ke_vol                       =   7.5000000000000E+10
(PID.TID 0000.0001) %MON vort_r_min                   =  -2.6936065206710E-05
(PID.TID 0000.0001) %MON vort_r_max                   =   1.8454923772729E-05
(PID.TID 0000.0001) %MON vort_a_mean                  =   1.4000000000000E-04
(PID.TID 0000.0001) %MON vort_a_sd                    =   5.7749580425523E-06
(PID.TID 0000.0001) %MON vort_p_mean                  =   1.4000000000000E-04
(PID.TID 0000.0001) %MON vort_p_sd                    =   5.7749580425523E-06
(PID.TID 0000.0001) %MON surfExpan_theta_mean         =  -1.4677718215898E-10
(PID.TID 0000.0001) %MON surfExpan_salt_mean          =   7.6684614214173E-18
(PID.TID 0000.0001) // =======================================================
(PID.TID 0000.0001) // End MONITOR dynamic field statistics
(PID.TID 0000.0001) // =======================================================
 cg2d: Sum(rhs),rhsMax =  -2.22044604925031E-16  2.72729022785112E-01
(PID.TID 0000.0001)                    cg2d_init_res =    1.16624239936834E-03
(PID.TID 0000.0001)                       cg2d_iters =     1
(PID.TID 0000.0001)                         cg2d_res =    1.60043539316729E-16
(PID.TID 0000.0001) // =======================================================
(PID.TID 0000.0001) // Begin MONITOR dynamic field statistics
(PID.TID 0000.0001) // =======================================================
(PID.TID 0000.0001) %MON time_tsnumber                =                    11
(PID.TID 0000.0001) %MON time_secondsf                =   1.3200000000000E+04
(PID.TID 0000.0001) %MON dynstat_eta_max              =   4.8121523172797E-03
(PID.TID 0000.0001) %MON dynstat_eta_min              =  -9.2615776930248E-03
(PID.TID 0000.0001) %MON dynstat_eta_mean             =   3.7252902984619E-18
(PID.TID 0000.0001) %MON dynstat_eta_sd               =   6.5505983813938E-03
(PID.TID 0000.0001) %MON dynstat_eta_del2             =   4.6307888465124E-03
(PID.TID 0000.0001) %MON dynstat_uvel_max             =   2.7641476801295E-01
(PID.TID 0000.0001) %MON dynstat_uvel_min             =  -7.4670649317735E-02
(PID.TID 0000.0001) %MON dynstat_uvel_mean            =   4.6169046283703E-03
(PID.TID 0000.0001) %MON dynstat_uvel_sd              =   4.7724452996250E-02
(PID.TID 0000.0001) %MON dynstat_uvel_del2            =   2.1769322676003E-02
(PID.TID 0000.0001) %MON dynstat_vvel_max             =   3.0065102166880E-02
(PID.TID 0000.0001) %MON dynstat_vvel_min             =  -1.3389512631257E-01
(PID.TID 0000.0001) %MON dynstat_vvel_mean            =  -6.1777287529427E-03
(PID.TID 0000.0001) %MON dynstat_vvel_sd              =   2.5098835835036E-02
(PID.TID 0000.0001) %MON dynstat_vvel_del2            =   9.7155683464211E-03
(PID.TID 0000.0001) %MON dynstat_wvel_max             =   5.6113412482906E-03
(PID.TID 0000.0001) %MON dynstat_wvel_min             =  -7.3140717908289E-03
(PID.TID 0000.0001) %MON dynstat_wvel_mean            =  -1.0228628276760E-19
(PID.TID 0000.0001) %MON dynstat_wvel_sd              =   3.5111691622635E-03
(PID.TID 0000.0001) %MON dynstat_wvel_del2            =   2.0365712387659E-03
(PID.TID 0000.0001) %MON dynstat_theta_max            =   2.9347535594237E+00
(PID.TID 0000.0001) %MON dynstat_theta_min            =   4.5566438145297E-01
(PID.TID 0000.0001) %MON dynstat_theta_mean           =   1.6699885958677E+00
(PID.TID 0000.0001) %MON dynstat_theta_sd             =   7.2171723490449E-01
(PID.TID 0000.0001) %MON dynstat_theta_del2           =   2.5220374570658E-02
(PID.TID 0000.0001) %MON dynstat_salt_max             =   3.5000000000000E+01
(PID.TID 0000.0001) %MON dynstat_salt_min             =   3.5000000000000E+01
(PID.TID 0000.0001) %MON dynstat_salt_mean            =   3.5000000000000E+01
(PID.TID 0000.0001) %MON dynstat_salt_sd              =   4.1482147821950E-14
(PID.TID 0000.0001) %MON dynstat_salt_del2            =   6.1580370432542E-15
(PID.TID 0000.0001) %MON advcfl_uvel_max              =   6.6339544323108E-02
(PID.TID 0000.0001) %MON advcfl_vvel_max              =   3.2134830315017E-02
(PID.TID 0000.0001) %MON advcfl_wvel_max              =   1.7553772297989E-01
(PID.TID 0000.0001) %MON advcfl_W_hf_max              =   1.7553772297989E-01
(PID.TID 0000.0001) %MON pe_b_mean                    =   2.1047521355194E-07
(PID.TID 0000.0001) %MON ke_max                       =   2.8662983187963E-02
(PID.TID 0000.0001) %MON ke_mean                      =   1.4835275574789E-03
(PID.TID 0000.0001) %MON ke_vol                       =   7.5000000000000E+10
(PID.TID 0000.0001) %MON vort_r_min                   =  -3.2140043150561E-05
(PID.TID 0000.0001) %MON vort_r_max                   =   2.2540938599238E-05
(PID.TID 0000.0001) %MON vort_a_mean                  =   1.4000000000000E-04
(PID.TID 0000.0001) %MON vort_a_sd                    =   6.9609742193483E-06
(PID.TID 0000.0001) %MON vort_p_mean                  =   1.4000000000000E-04
(PID.TID 0000.0001) %MON vort_p_sd                    =   6.9609742193483E-06
(PID.TID 0000.0001) %MON surfExpan_theta_mean         =  -2.7364776824810E-10
(PID.TID 0000.0001) %MON surfExpan_salt_mean          =   2.9744621580600E-18
(PID.TID 0000.0001) // =======================================================
(PID.TID 0000.0001) // End MONITOR dynamic field statistics
(PID.TID 0000.0001) // =======================================================
 cg2d: Sum(rhs),rhsMax =  -6.66133814775094E-16  2.72636571844044E-01
(PID.TID 0000.0001)                    cg2d_init_res =    1.77914861222610E-03
(PID.TID 0000.0001)                       cg2d_iters =     1
(PID.TID 0000.0001)                         cg2d_res =    2.56175941129344E-16
(PID.TID 0000.0001) // =======================================================
(PID.TID 0000.0001) // Begin MONITOR dynamic field statistics
(PID.TID 0000.0001) // =======================================================
(PID.TID 0000.0001) %MON time_tsnumber                =                    12
(PID.TID 0000.0001) %MON time_secondsf                =   1.4400000000000E+04
(PID.TID 0000.0001) %MON dynstat_eta_max              =   4.7992567770730E-03
(PID.TID 0000.0001) %MON dynstat_eta_min              =  -9.2584381607346E-03
(PID.TID 0000.0001) %MON dynstat_eta_mean             =   5.7121117909749E-18
(PID.TID 0000.0001) %MON dynstat_eta_sd               =   6.5481763721111E-03
(PID.TID 0000.0001) %MON dynstat_eta_del2             =   4.6292190803673E-03
(PID.TID 0000.0001) %MON dynstat_uvel_max             =   2.9026024384714E-01
(PID.TID 0000.0001) %MON dynstat_uvel_min             =  -8.3409062936894E-02
(PID.TID 0000.0001) %MON dynstat_uvel_mean            =   4.3105126191275E-03
(PID.TID 0000.0001) %MON dynstat_uvel_sd              =   5.0880128707832E-02
(PID.TID 0000.0001) %MON dynstat_uvel_del2            =   2.3466097276296E-02
(PID.TID 0000.0001) %MON dynstat_vvel_max             =   3.7809144414224E-02
(PID.TID 0000.0001) %MON dynstat_vvel_min             =  -1.5281562334381E-01
(PID.TID 0000.0001) %MON dynstat_vvel_mean            =  -6.9385262372803E-03
(PID.TID 0000.0001) %MON dynstat_vvel_sd              =   2.9133314839370E-02
(PID.TID 0000.0001) %MON dynstat_vvel_del2            =   1.1582795073511E-02
(PID.TID 0000.0001) %MON dynstat_wvel_max             =   6.0038377744612E-03
(PID.TID 0000.0001) %MON dynstat_wvel_min             =  -7.9022267745608E-03
(PID.TID 0000.0001) %MON dynstat_wvel_mean            =  -1.2935035758548E-19
(PID.TID 0000.0001) %MON dynstat_wvel_sd              =   3.7797413792485E-03
(PID.TID 0000.0001) %MON dynstat_wvel_del2            =   2.1973925294882E-03
(PID.TID 0000.0001) %MON dynstat_theta_max            =   2.9347529331601E+00
(PID.TID 0000.0001) %MON dynstat_theta_min            =   4.5566500771660E-01
(PID.TID 0000.0001) %MON dynstat_theta_mean           =   1.6699685618158E+00
(PID.TID 0000.0001) %MON dynstat_theta_sd             =   7.2169715585382E-01
(PID.TID 0000.0001) %MON dynstat_theta_del2           =   2.5240408622536E-02
(PID.TID 0000.0001) %MON dynstat_salt_max             =   3.5000000000000E+01
(PID.TID 0000.0001) %MON dynstat_salt_min             =   3.5000000000000E+01
(PID.TID 0000.0001) %MON dynstat_salt_mean            =   3.5000000000000E+01
(PID.TID 0000.0001) %MON dynstat_salt_sd              =   4.7735217817607E-14
(PID.TID 0000.0001) %MON dynstat_salt_del2            =   6.8685797790143E-15
(PID.TID 0000.0001) %MON advcfl_uvel_max              =   6.9662458523314E-02
(PID.TID 0000.0001) %MON advcfl_vvel_max              =   3.6675749602515E-02
(PID.TID 0000.0001) %MON advcfl_wvel_max              =   1.8965344258946E-01
(PID.TID 0000.0001) %MON advcfl_W_hf_max              =   1.8965344258946E-01
(PID.TID 0000.0001) %MON pe_b_mean                    =   2.1031960069035E-07
(PID.TID 0000.0001) %MON ke_max                       =   3.3677681358230E-02
(PID.TID 0000.0001) %MON ke_mean                      =   1.7521305981202E-03
(PID.TID 0000.0001) %MON ke_vol                       =   7.5000000000000E+10
(PID.TID 0000.0001) %MON vort_r_min                   =  -3.7648374102312E-05
(PID.TID 0000.0001) %MON vort_r_max                   =   2.7006664561161E-05
(PID.TID 0000.0001) %MON vort_a_mean                  =   1.4000000000000E-04
(PID.TID 0000.0001) %MON vort_a_sd                    =   8.2340913857907E-06
(PID.TID 0000.0001) %MON vort_p_mean                  =   1.4000000000000E-04
(PID.TID 0000.0001) %MON vort_p_sd                    =   8.2340913857907E-06
(PID.TID 0000.0001) %MON surfExpan_theta_mean         =  -5.0095470767064E-10
(PID.TID 0000.0001) %MON surfExpan_salt_mean          =  -1.4072109403666E-17
(PID.TID 0000.0001) // =======================================================
(PID.TID 0000.0001) // End MONITOR dynamic field statistics
(PID.TID 0000.0001) // =======================================================
 cg2d: Sum(rhs),rhsMax =  -4.44089209850063E-16  2.72490087380706E-01
(PID.TID 0000.0001)                    cg2d_init_res =    2.44092184794424E-03
(PID.TID 0000.0001)                       cg2d_iters =     1
(PID.TID 0000.0001)                         cg2d_res =    2.56270260081959E-16
(PID.TID 0000.0001) // =======================================================
(PID.TID 0000.0001) // Begin MONITOR dynamic field statistics
(PID.TID 0000.0001) // =======================================================
(PID.TID 0000.0001) %MON time_tsnumber                =                    13
(PID.TID 0000.0001) %MON time_secondsf                =   1.5600000000000E+04
(PID.TID 0000.0001) %MON dynstat_eta_max              =   4.7813901171814E-03
(PID.TID 0000.0001) %MON dynstat_eta_min              =  -9.2534637094490E-03
(PID.TID 0000.0001) %MON dynstat_eta_mean             =   7.4505805969238E-18
(PID.TID 0000.0001) %MON dynstat_eta_sd               =   6.5444053534151E-03
(PID.TID 0000.0001) %MON dynstat_eta_del2             =   4.6267318547245E-03
(PID.TID 0000.0001) %MON dynstat_uvel_max             =   3.0165256950682E-01
(PID.TID 0000.0001) %MON dynstat_uvel_min             =  -9.2174992400030E-02
(PID.TID 0000.0001) %MON dynstat_uvel_mean            =   3.8798141967588E-03
(PID.TID 0000.0001) %MON dynstat_uvel_sd              =   5.3779946167136E-02
(PID.TID 0000.0001) %MON dynstat_uvel_del2            =   2.5069428844455E-02
(PID.TID 0000.0001) %MON dynstat_vvel_max             =   4.6624737437593E-02
(PID.TID 0000.0001) %MON dynstat_vvel_min             =  -1.7167925982234E-01
(PID.TID 0000.0001) %MON dynstat_vvel_mean            =  -7.6364398233742E-03
(PID.TID 0000.0001) %MON dynstat_vvel_sd              =   3.3309056822659E-02
(PID.TID 0000.0001) %MON dynstat_vvel_del2            =   1.3573264246710E-02
(PID.TID 0000.0001) %MON dynstat_wvel_max             =   6.3508546947849E-03
(PID.TID 0000.0001) %MON dynstat_wvel_min             =  -8.4459343610908E-03
(PID.TID 0000.0001) %MON dynstat_wvel_mean            =  -8.3580231055235E-20
(PID.TID 0000.0001) %MON dynstat_wvel_sd              =   4.0264498665392E-03
(PID.TID 0000.0001) %MON dynstat_wvel_del2            =   2.3470103883576E-03
(PID.TID 0000.0001) %MON dynstat_theta_max            =   2.9347523068994E+00
(PID.TID 0000.0001) %MON dynstat_theta_min            =   4.5566563397721E-01
(PID.TID 0000.0001) %MON dynstat_theta_mean           =   1.6699485277639E+00
(PID.TID 0000.0001) %MON dynstat_theta_sd             =   7.2167724616923E-01
(PID.TID 0000.0001) %MON dynstat_theta_del2           =   2.5260442674414E-02
(PID.TID 0000.0001) %MON dynstat_salt_max             =   3.5000000000000E+01
(PID.TID 0000.0001) %MON dynstat_salt_min             =   3.5000000000000E+01
(PID.TID 0000.0001) %MON dynstat_salt_mean            =   3.5000000000000E+01
(PID.TID 0000.0001) %MON dynstat_salt_sd              =   5.4415698964891E-14
(PID.TID 0000.0001) %MON dynstat_salt_del2            =   7.9936057773011E-15
(PID.TID 0000.0001) %MON advcfl_uvel_max              =   7.2396616681637E-02
(PID.TID 0000.0001) %MON advcfl_vvel_max              =   4.1203022357361E-02
(PID.TID 0000.0001) %MON advcfl_wvel_max              =   2.0270242466618E-01
(PID.TID 0000.0001) %MON advcfl_W_hf_max              =   2.0270242466618E-01
(PID.TID 0000.0001) %MON pe_b_mean                    =   2.1007742921321E-07
(PID.TID 0000.0001) %MON ke_max                       =   3.8878422594144E-02
(PID.TID 0000.0001) %MON ke_mean                      =   2.0375720237663E-03
(PID.TID 0000.0001) %MON ke_vol                       =   7.5000000000000E+10
(PID.TID 0000.0001) %MON vort_r_min                   =  -4.3408775789133E-05
(PID.TID 0000.0001) %MON vort_r_max                   =   3.1803073015167E-05
(PID.TID 0000.0001) %MON vort_a_mean                  =   1.4000000000000E-04
(PID.TID 0000.0001) %MON vort_a_sd                    =   9.5851917309374E-06
(PID.TID 0000.0001) %MON vort_p_mean                  =   1.4000000000000E-04
(PID.TID 0000.0001) %MON vort_p_sd                    =   9.5851917309374E-06
(PID.TID 0000.0001) %MON surfExpan_theta_mean         =  -7.9308818622425E-10
(PID.TID 0000.0001) %MON surfExpan_salt_mean          =  -1.2332890264588E-17
(PID.TID 0000.0001) // =======================================================
(PID.TID 0000.0001) // End MONITOR dynamic field statistics
(PID.TID 0000.0001) // =======================================================
 cg2d: Sum(rhs),rhsMax =   4.44089209850063E-16  2.72281739154618E-01
(PID.TID 0000.0001)                    cg2d_init_res =    3.11050085843684E-03
(PID.TID 0000.0001)                       cg2d_iters =     1
(PID.TID 0000.0001)                         cg2d_res =    2.88132413478634E-16
(PID.TID 0000.0001) // =======================================================
(PID.TID 0000.0001) // Begin MONITOR dynamic field statistics
(PID.TID 0000.0001) // =======================================================
(PID.TID 0000.0001) %MON time_tsnumber                =                    14
(PID.TID 0000.0001) %MON time_secondsf                =   1.6800000000000E+04
(PID.TID 0000.0001) %MON dynstat_eta_max              =   4.7584604700562E-03
(PID.TID 0000.0001) %MON dynstat_eta_min              =  -9.2463884328121E-03
(PID.TID 0000.0001) %MON dynstat_eta_mean             =   4.9670537312826E-18
(PID.TID 0000.0001) %MON dynstat_eta_sd               =   6.5391167215564E-03
(PID.TID 0000.0001) %MON dynstat_eta_del2             =   4.6231942164060E-03
(PID.TID 0000.0001) %MON dynstat_uvel_max             =   3.1055122515030E-01
(PID.TID 0000.0001) %MON dynstat_uvel_min             =  -1.0084441816248E-01
(PID.TID 0000.0001) %MON dynstat_uvel_mean            =   3.3372538009256E-03
(PID.TID 0000.0001) %MON dynstat_uvel_sd              =   5.6413773485675E-02
(PID.TID 0000.0001) %MON dynstat_uvel_del2            =   2.6554265152584E-02
(PID.TID 0000.0001) %MON dynstat_vvel_max             =   5.6623039930733E-02
(PID.TID 0000.0001) %MON dynstat_vvel_min             =  -1.9022067195196E-01
(PID.TID 0000.0001) %MON dynstat_vvel_mean            =  -8.2513450252687E-03
(PID.TID 0000.0001) %MON dynstat_vvel_sd              =   3.7586501789012E-02
(PID.TID 0000.0001) %MON dynstat_vvel_del2            =   1.5686191835364E-02
(PID.TID 0000.0001) %MON dynstat_wvel_max             =   6.6470894510816E-03
(PID.TID 0000.0001) %MON dynstat_wvel_min             =  -8.9432477939094E-03
(PID.TID 0000.0001) %MON dynstat_wvel_mean            =   1.5721043460389E-19
(PID.TID 0000.0001) %MON dynstat_wvel_sd              =   4.2498666187845E-03
(PID.TID 0000.0001) %MON dynstat_wvel_del2            =   2.4847202587157E-03
(PID.TID 0000.0001) %MON dynstat_theta_max            =   2.9347516806418E+00
(PID.TID 0000.0001) %MON dynstat_theta_min            =   4.5566626023482E-01
(PID.TID 0000.0001) %MON dynstat_theta_mean           =   1.6699284937120E+00
(PID.TID 0000.0001) %MON dynstat_theta_sd             =   7.2165744608311E-01
(PID.TID 0000.0001) %MON dynstat_theta_del2           =   2.5280476726292E-02
(PID.TID 0000.0001) %MON dynstat_salt_max             =   3.5000000000000E+01
(PID.TID 0000.0001) %MON dynstat_salt_min             =   3.5000000000000E+01
(PID.TID 0000.0001) %MON dynstat_salt_mean            =   3.5000000000000E+01
(PID.TID 0000.0001) %MON dynstat_salt_sd              =   6.0660266960894E-14
(PID.TID 0000.0001) %MON dynstat_salt_del2            =   8.2896652505345E-15
(PID.TID 0000.0001) %MON advcfl_uvel_max              =   7.4532294036072E-02
(PID.TID 0000.0001) %MON advcfl_vvel_max              =   4.5652961268471E-02
(PID.TID 0000.0001) %MON advcfl_wvel_max              =   2.1463794705383E-01
(PID.TID 0000.0001) %MON advcfl_W_hf_max              =   2.1463794705383E-01
(PID.TID 0000.0001) %MON pe_b_mean                    =   2.0973803297837E-07
(PID.TID 0000.0001) %MON ke_max                       =   4.4172748057952E-02
(PID.TID 0000.0001) %MON ke_mean                      =   2.3372404566431E-03
(PID.TID 0000.0001) %MON ke_vol                       =   7.5000000000000E+10
(PID.TID 0000.0001) %MON vort_r_min                   =  -4.9368742376539E-05
(PID.TID 0000.0001) %MON vort_r_max                   =   3.6875306728486E-05
(PID.TID 0000.0001) %MON vort_a_mean                  =   1.4000000000000E-04
(PID.TID 0000.0001) %MON vort_a_sd                    =   1.1004119473344E-05
(PID.TID 0000.0001) %MON vort_p_mean                  =   1.4000000000000E-04
(PID.TID 0000.0001) %MON vort_p_sd                    =   1.1004119473344E-05
(PID.TID 0000.0001) %MON surfExpan_theta_mean         =  -1.1274190235322E-09
(PID.TID 0000.0001) %MON surfExpan_salt_mean          =   4.2057924550439E-17
(PID.TID 0000.0001) // =======================================================
(PID.TID 0000.0001) // End MONITOR dynamic field statistics
(PID.TID 0000.0001) // =======================================================
 cg2d: Sum(rhs),rhsMax =  -4.44089209850063E-16  2.72007996679354E-01
(PID.TID 0000.0001)                    cg2d_init_res =    3.75099360973272E-03
(PID.TID 0000.0001)                       cg2d_iters =     1
(PID.TID 0000.0001)                         cg2d_res =    2.24096380018031E-16
(PID.TID 0000.0001) // =======================================================
(PID.TID 0000.0001) // Begin MONITOR dynamic field statistics
(PID.TID 0000.0001) // =======================================================
(PID.TID 0000.0001) %MON time_tsnumber                =                    15
(PID.TID 0000.0001) %MON time_secondsf                =   1.8000000000000E+04
(PID.TID 0000.0001) %MON dynstat_eta_max              =   4.7306729000986E-03
(PID.TID 0000.0001) %MON dynstat_eta_min              =  -9.2370924393873E-03
(PID.TID 0000.0001) %MON dynstat_eta_mean             =   5.9604644775391E-18
(PID.TID 0000.0001) %MON dynstat_eta_sd               =   6.5322522885959E-03
(PID.TID 0000.0001) %MON dynstat_eta_del2             =   4.6185462196937E-03
(PID.TID 0000.0001) %MON dynstat_uvel_max             =   3.1699892678977E-01
(PID.TID 0000.0001) %MON dynstat_uvel_min             =  -1.0929938883448E-01
(PID.TID 0000.0001) %MON dynstat_uvel_mean            =   2.6985010815287E-03
(PID.TID 0000.0001) %MON dynstat_uvel_sd              =   5.8779293196142E-02
(PID.TID 0000.0001) %MON dynstat_uvel_del2            =   2.7885975053823E-02
(PID.TID 0000.0001) %MON dynstat_vvel_max             =   6.9179438106173E-02
(PID.TID 0000.0001) %MON dynstat_vvel_min             =  -2.0820862847464E-01
(PID.TID 0000.0001) %MON dynstat_vvel_mean            =  -8.7655151848749E-03
(PID.TID 0000.0001) %MON dynstat_vvel_sd              =   4.1928705612041E-02
(PID.TID 0000.0001) %MON dynstat_vvel_del2            =   1.7895261317094E-02
(PID.TID 0000.0001) %MON dynstat_wvel_max             =   6.8879723019042E-03
(PID.TID 0000.0001) %MON dynstat_wvel_min             =  -9.3927517600088E-03
(PID.TID 0000.0001) %MON dynstat_wvel_mean            =   8.8356244258392E-20
(PID.TID 0000.0001) %MON dynstat_wvel_sd              =   4.4490208243970E-03
(PID.TID 0000.0001) %MON dynstat_wvel_del2            =   2.6100944966937E-03
(PID.TID 0000.0001) %MON dynstat_theta_max            =   2.9347510543872E+00
(PID.TID 0000.0001) %MON dynstat_theta_min            =   4.5566688648943E-01
(PID.TID 0000.0001) %MON dynstat_theta_mean           =   1.6699084596602E+00
(PID.TID 0000.0001) %MON dynstat_theta_sd             =   7.2163772008509E-01
(PID.TID 0000.0001) %MON dynstat_theta_del2           =   2.5300510778170E-02
(PID.TID 0000.0001) %MON dynstat_salt_max             =   3.5000000000000E+01
(PID.TID 0000.0001) %MON dynstat_salt_min             =   3.5000000000000E+01
(PID.TID 0000.0001) %MON dynstat_salt_mean            =   3.5000000000000E+01
(PID.TID 0000.0001) %MON dynstat_salt_sd              =   4.0724699718189E-14
(PID.TID 0000.0001) %MON dynstat_salt_del2            =   8.8817841970013E-15
(PID.TID 0000.0001) %MON advcfl_uvel_max              =   7.6079742429544E-02
(PID.TID 0000.0001) %MON advcfl_vvel_max              =   4.9970070833914E-02
(PID.TID 0000.0001) %MON advcfl_wvel_max              =   2.2542604224021E-01
(PID.TID 0000.0001) %MON advcfl_W_hf_max              =   2.2542604224021E-01
(PID.TID 0000.0001) %MON pe_b_mean                    =   2.0929791941295E-07
(PID.TID 0000.0001) %MON ke_max                       =   4.9470513945665E-02
(PID.TID 0000.0001) %MON ke_mean                      =   2.6485689137413E-03
(PID.TID 0000.0001) %MON ke_vol                       =   7.5000000000000E+10
(PID.TID 0000.0001) %MON vort_r_min                   =  -5.5477613316163E-05
(PID.TID 0000.0001) %MON vort_r_max                   =   4.2164092502332E-05
(PID.TID 0000.0001) %MON vort_a_mean                  =   1.4000000000000E-04
(PID.TID 0000.0001) %MON vort_a_sd                    =   1.2479827729810E-05
(PID.TID 0000.0001) %MON vort_p_mean                  =   1.4000000000000E-04
(PID.TID 0000.0001) %MON vort_p_sd                    =   1.2479827729810E-05
(PID.TID 0000.0001) %MON surfExpan_theta_mean         =  -1.4807916562525E-09
(PID.TID 0000.0001) %MON surfExpan_salt_mean          =  -1.2650976562630E-18
(PID.TID 0000.0001) // =======================================================
(PID.TID 0000.0001) // End MONITOR dynamic field statistics
(PID.TID 0000.0001) // =======================================================
 cg2d: Sum(rhs),rhsMax =   1.11022302462516E-16  2.71669481245881E-01
(PID.TID 0000.0001)                    cg2d_init_res =    4.32766798833181E-03
(PID.TID 0000.0001)                       cg2d_iters =     1
(PID.TID 0000.0001)                         cg2d_res =    4.84869951806108E-19
(PID.TID 0000.0001) // =======================================================
(PID.TID 0000.0001) // Begin MONITOR dynamic field statistics
(PID.TID 0000.0001) // =======================================================
(PID.TID 0000.0001) %MON time_tsnumber                =                    16
(PID.TID 0000.0001) %MON time_secondsf                =   1.9200000000000E+04
(PID.TID 0000.0001) %MON dynstat_eta_max              =   4.6985072257456E-03
(PID.TID 0000.0001) %MON dynstat_eta_min              =  -9.2255968275329E-03
(PID.TID 0000.0001) %MON dynstat_eta_mean             =   5.7121117909749E-18
(PID.TID 0000.0001) %MON dynstat_eta_sd               =   6.5238574283721E-03
(PID.TID 0000.0001) %MON dynstat_eta_del2             =   4.6127984137664E-03
(PID.TID 0000.0001) %MON dynstat_uvel_max             =   3.2110114575139E-01
(PID.TID 0000.0001) %MON dynstat_uvel_min             =  -1.1824580834822E-01
(PID.TID 0000.0001) %MON dynstat_uvel_mean            =   1.9819983444476E-03
(PID.TID 0000.0001) %MON dynstat_uvel_sd              =   6.0879931397308E-02
(PID.TID 0000.0001) %MON dynstat_uvel_del2            =   2.9055711888443E-02
(PID.TID 0000.0001) %MON dynstat_vvel_max             =   8.2987225954955E-02
(PID.TID 0000.0001) %MON dynstat_vvel_min             =  -2.2545322734495E-01
(PID.TID 0000.0001) %MON dynstat_vvel_mean            =  -9.1641325093500E-03
(PID.TID 0000.0001) %MON dynstat_vvel_sd              =   4.6302074718989E-02
(PID.TID 0000.0001) %MON dynstat_vvel_del2            =   2.0175452001112E-02
(PID.TID 0000.0001) %MON dynstat_wvel_max             =   7.0698551830406E-03
(PID.TID 0000.0001) %MON dynstat_wvel_min             =  -9.7934603930093E-03
(PID.TID 0000.0001) %MON dynstat_wvel_mean            =  -2.3840265905755E-19
(PID.TID 0000.0001) %MON dynstat_wvel_sd              =   4.6233929056505E-03
(PID.TID 0000.0001) %MON dynstat_wvel_del2            =   2.7228331968808E-03
(PID.TID 0000.0001) %MON dynstat_theta_max            =   2.9347504281356E+00
(PID.TID 0000.0001) %MON dynstat_theta_min            =   4.5566751274102E-01
(PID.TID 0000.0001) %MON dynstat_theta_mean           =   1.6698884256083E+00
(PID.TID 0000.0001) %MON dynstat_theta_sd             =   7.2161804612599E-01
(PID.TID 0000.0001) %MON dynstat_theta_del2           =   2.5320544830048E-02
(PID.TID 0000.0001) %MON dynstat_salt_max             =   3.5000000000000E+01
(PID.TID 0000.0001) %MON dynstat_salt_min             =   3.5000000000000E+01
(PID.TID 0000.0001) %MON dynstat_salt_mean            =   3.5000000000000E+01
(PID.TID 0000.0001) %MON dynstat_salt_sd              =   4.1166534798581E-14
(PID.TID 0000.0001) %MON dynstat_salt_del2            =   1.0243657773875E-14
(PID.TID 0000.0001) %MON advcfl_uvel_max              =   7.7064274980333E-02
(PID.TID 0000.0001) %MON advcfl_vvel_max              =   5.4108774562788E-02
(PID.TID 0000.0001) %MON advcfl_wvel_max              =   2.3504304943222E-01
(PID.TID 0000.0001) %MON advcfl_W_hf_max              =   2.3504304943222E-01
(PID.TID 0000.0001) %MON pe_b_mean                    =   2.0876031073279E-07
(PID.TID 0000.0001) %MON ke_max                       =   5.4686583108821E-02
(PID.TID 0000.0001) %MON ke_mean                      =   2.9690789061550E-03
(PID.TID 0000.0001) %MON ke_vol                       =   7.5000000000000E+10
(PID.TID 0000.0001) %MON vort_r_min                   =  -6.1688090659981E-05
(PID.TID 0000.0001) %MON vort_r_max                   =   4.7607455804124E-05
(PID.TID 0000.0001) %MON vort_a_mean                  =   1.4000000000000E-04
(PID.TID 0000.0001) %MON vort_a_sd                    =   1.4000569678683E-05
(PID.TID 0000.0001) %MON vort_p_mean                  =   1.4000000000000E-04
(PID.TID 0000.0001) %MON vort_p_sd                    =   1.4000569678683E-05
(PID.TID 0000.0001) %MON surfExpan_theta_mean         =  -1.8308556903886E-09
(PID.TID 0000.0001) %MON surfExpan_salt_mean          =  -2.6563166481234E-17
(PID.TID 0000.0001) // =======================================================
(PID.TID 0000.0001) // End MONITOR dynamic field statistics
(PID.TID 0000.0001) // =======================================================
 cg2d: Sum(rhs),rhsMax =   6.66133814775094E-16  2.71270561512879E-01
(PID.TID 0000.0001)                    cg2d_init_res =    4.81064444744674E-03
(PID.TID 0000.0001)                       cg2d_iters =     1
(PID.TID 0000.0001)                         cg2d_res =    4.16392583554200E-16
(PID.TID 0000.0001) // =======================================================
(PID.TID 0000.0001) // Begin MONITOR dynamic field statistics
(PID.TID 0000.0001) // =======================================================
(PID.TID 0000.0001) %MON time_tsnumber                =                    17
(PID.TID 0000.0001) %MON time_secondsf                =   2.0400000000000E+04
(PID.TID 0000.0001) %MON dynstat_eta_max              =   4.6626767581417E-03
(PID.TID 0000.0001) %MON dynstat_eta_min              =  -9.2120499520931E-03
(PID.TID 0000.0001) %MON dynstat_eta_mean             =   2.4835268656413E-18
(PID.TID 0000.0001) %MON dynstat_eta_sd               =   6.5140672222664E-03
(PID.TID 0000.0001) %MON dynstat_eta_del2             =   4.6060249760465E-03
(PID.TID 0000.0001) %MON dynstat_uvel_max             =   3.2301054383989E-01
(PID.TID 0000.0001) %MON dynstat_uvel_min             =  -1.3302095195283E-01
(PID.TID 0000.0001) %MON dynstat_uvel_mean            =   1.2084280769332E-03
(PID.TID 0000.0001) %MON dynstat_uvel_sd              =   6.2723275407990E-02
(PID.TID 0000.0001) %MON dynstat_uvel_del2            =   3.0056552875558E-02
(PID.TID 0000.0001) %MON dynstat_vvel_max             =   9.7976374332961E-02
(PID.TID 0000.0001) %MON dynstat_vvel_min             =  -2.4181009878235E-01
(PID.TID 0000.0001) %MON dynstat_vvel_mean            =  -9.4357151145322E-03
(PID.TID 0000.0001) %MON dynstat_vvel_sd              =   5.0676858128933E-02
(PID.TID 0000.0001) %MON dynstat_vvel_del2            =   2.2507207382971E-02
(PID.TID 0000.0001) %MON dynstat_wvel_max             =   7.1901380658340E-03
(PID.TID 0000.0001) %MON dynstat_wvel_min             =  -1.0144724483398E-02
(PID.TID 0000.0001) %MON dynstat_wvel_mean            =   1.7989649731889E-19
(PID.TID 0000.0001) %MON dynstat_wvel_sd              =   4.7728973404660E-03
(PID.TID 0000.0001) %MON dynstat_wvel_del2            =   2.8227292250339E-03
(PID.TID 0000.0001) %MON dynstat_theta_max            =   2.9347498018870E+00
(PID.TID 0000.0001) %MON dynstat_theta_min            =   4.5566813898962E-01
(PID.TID 0000.0001) %MON dynstat_theta_mean           =   1.6698683915564E+00
(PID.TID 0000.0001) %MON dynstat_theta_sd             =   7.2159840999667E-01
(PID.TID 0000.0001) %MON dynstat_theta_del2           =   2.5340578881926E-02
(PID.TID 0000.0001) %MON dynstat_salt_max             =   3.5000000000000E+01
(PID.TID 0000.0001) %MON dynstat_salt_min             =   3.5000000000000E+01
(PID.TID 0000.0001) %MON dynstat_salt_mean            =   3.5000000000000E+01
(PID.TID 0000.0001) %MON dynstat_salt_sd              =   4.1704682277069E-14
(PID.TID 0000.0001) %MON dynstat_salt_del2            =   1.1131836193575E-14
(PID.TID 0000.0001) %MON advcfl_uvel_max              =   7.7522530521574E-02
(PID.TID 0000.0001) %MON advcfl_vvel_max              =   5.8034423707764E-02
(PID.TID 0000.0001) %MON advcfl_wvel_max              =   2.4347338760156E-01
(PID.TID 0000.0001) %MON advcfl_W_hf_max              =   2.4347338760156E-01
(PID.TID 0000.0001) %MON pe_b_mean                    =   2.0813421706229E-07
(PID.TID 0000.0001) %MON ke_max                       =   5.9743658209110E-02
(PID.TID 0000.0001) %MON ke_mean                      =   3.2964231229332E-03
(PID.TID 0000.0001) %MON ke_vol                       =   7.5000000000000E+10
(PID.TID 0000.0001) %MON vort_r_min                   =  -6.7957294623062E-05
(PID.TID 0000.0001) %MON vort_r_max                   =   5.3142680271722E-05
(PID.TID 0000.0001) %MON vort_a_mean                  =   1.4000000000000E-04
(PID.TID 0000.0001) %MON vort_a_sd                    =   1.5554133067128E-05
(PID.TID 0000.0001) %MON vort_p_mean                  =   1.4000000000000E-04
(PID.TID 0000.0001) %MON vort_p_sd                    =   1.5554133067128E-05
(PID.TID 0000.0001) %MON surfExpan_theta_mean         =  -2.1574263267420E-09
(PID.TID 0000.0001) %MON surfExpan_salt_mean          =  -6.3247303690635E-18
(PID.TID 0000.0001) // =======================================================
(PID.TID 0000.0001) // End MONITOR dynamic field statistics
(PID.TID 0000.0001) // =======================================================
 cg2d: Sum(rhs),rhsMax =  -1.11022302462516E-16  2.70818673440336E-01
(PID.TID 0000.0001)                    cg2d_init_res =    5.17690777119508E-03
(PID.TID 0000.0001)                       cg2d_iters =     1
(PID.TID 0000.0001)                         cg2d_res =    1.91795823979534E-16
(PID.TID 0000.0001) // =======================================================
(PID.TID 0000.0001) // Begin MONITOR dynamic field statistics
(PID.TID 0000.0001) // =======================================================
(PID.TID 0000.0001) %MON time_tsnumber                =                    18
(PID.TID 0000.0001) %MON time_secondsf                =   2.1600000000000E+04
(PID.TID 0000.0001) %MON dynstat_eta_max              =   4.6240723565163E-03
(PID.TID 0000.0001) %MON dynstat_eta_min              =  -9.1967043300919E-03
(PID.TID 0000.0001) %MON dynstat_eta_mean             =   4.2219956715902E-18
(PID.TID 0000.0001) %MON dynstat_eta_sd               =   6.5030859048915E-03
(PID.TID 0000.0001) %MON dynstat_eta_del2             =   4.5983521650460E-03
(PID.TID 0000.0001) %MON dynstat_uvel_max             =   3.2291437872943E-01
(PID.TID 0000.0001) %MON dynstat_uvel_min             =  -1.4744852732251E-01
(PID.TID 0000.0001) %MON dynstat_uvel_mean            =   4.0011592246579E-04
(PID.TID 0000.0001) %MON dynstat_uvel_sd              =   6.4319838565629E-02
(PID.TID 0000.0001) %MON dynstat_uvel_del2            =   3.0883469705027E-02
(PID.TID 0000.0001) %MON dynstat_vvel_max             =   1.1405480090166E-01
(PID.TID 0000.0001) %MON dynstat_vvel_min             =  -2.5718201556348E-01
(PID.TID 0000.0001) %MON dynstat_vvel_mean            =  -9.5724477605395E-03
(PID.TID 0000.0001) %MON dynstat_vvel_sd              =   5.5027354097145E-02
(PID.TID 0000.0001) %MON dynstat_vvel_del2            =   2.4870773317240E-02
(PID.TID 0000.0001) %MON dynstat_wvel_max             =   7.2473394057588E-03
(PID.TID 0000.0001) %MON dynstat_wvel_min             =  -1.0446152810188E-02
(PID.TID 0000.0001) %MON dynstat_wvel_mean            =   1.0825629927154E-19
(PID.TID 0000.0001) %MON dynstat_wvel_sd              =   4.8978519271572E-03
(PID.TID 0000.0001) %MON dynstat_wvel_del2            =   2.9096378620266E-03
(PID.TID 0000.0001) %MON dynstat_theta_max            =   2.9347491756415E+00
(PID.TID 0000.0001) %MON dynstat_theta_min            =   4.5566876523520E-01
(PID.TID 0000.0001) %MON dynstat_theta_mean           =   1.6698483575045E+00
(PID.TID 0000.0001) %MON dynstat_theta_sd             =   7.2157880225284E-01
(PID.TID 0000.0001) %MON dynstat_theta_del2           =   2.5360612933804E-02
(PID.TID 0000.0001) %MON dynstat_salt_max             =   3.5000000000000E+01
(PID.TID 0000.0001) %MON dynstat_salt_min             =   3.5000000000000E+01
(PID.TID 0000.0001) %MON dynstat_salt_mean            =   3.5000000000000E+01
(PID.TID 0000.0001) %MON dynstat_salt_sd              =   4.4325946817530E-14
(PID.TID 0000.0001) %MON dynstat_salt_del2            =   1.1960802718628E-14
(PID.TID 0000.0001) %MON advcfl_uvel_max              =   7.7499450895062E-02
(PID.TID 0000.0001) %MON advcfl_vvel_max              =   6.1723683735235E-02
(PID.TID 0000.0001) %MON advcfl_wvel_max              =   2.5070766744452E-01
(PID.TID 0000.0001) %MON advcfl_W_hf_max              =   2.5070766744452E-01
(PID.TID 0000.0001) %MON pe_b_mean                    =   2.0743306943478E-07
(PID.TID 0000.0001) %MON ke_max                       =   6.4574985614594E-02
(PID.TID 0000.0001) %MON ke_mean                      =   3.6284215904604E-03
(PID.TID 0000.0001) %MON ke_vol                       =   7.5000000000000E+10
(PID.TID 0000.0001) %MON vort_r_min                   =  -7.4247363293028E-05
(PID.TID 0000.0001) %MON vort_r_max                   =   5.8708352357417E-05
(PID.TID 0000.0001) %MON vort_a_mean                  =   1.4000000000000E-04
(PID.TID 0000.0001) %MON vort_a_sd                    =   1.7128107310067E-05
(PID.TID 0000.0001) %MON vort_p_mean                  =   1.4000000000000E-04
(PID.TID 0000.0001) %MON vort_p_sd                    =   1.7128107310067E-05
(PID.TID 0000.0001) %MON surfExpan_theta_mean         =  -2.4439634646761E-09
(PID.TID 0000.0001) %MON surfExpan_salt_mean          =   1.2648750195391E-17
(PID.TID 0000.0001) // =======================================================
(PID.TID 0000.0001) // End MONITOR dynamic field statistics
(PID.TID 0000.0001) // =======================================================
 cg2d: Sum(rhs),rhsMax =   0.00000000000000E+00  2.70323375680122E-01
(PID.TID 0000.0001)                    cg2d_init_res =    5.41178999966404E-03
(PID.TID 0000.0001)                       cg2d_iters =     1
(PID.TID 0000.0001)                         cg2d_res =    6.44847870132702E-17
(PID.TID 0000.0001) // =======================================================
(PID.TID 0000.0001) // Begin MONITOR dynamic field statistics
(PID.TID 0000.0001) // =======================================================
(PID.TID 0000.0001) %MON time_tsnumber                =                    19
(PID.TID 0000.0001) %MON time_secondsf                =   2.2800000000000E+04
(PID.TID 0000.0001) %MON dynstat_eta_max              =   4.5961885297165E-03
(PID.TID 0000.0001) %MON dynstat_eta_min              =  -9.1798845628352E-03
(PID.TID 0000.0001) %MON dynstat_eta_mean             =   3.2285849253337E-18
(PID.TID 0000.0001) %MON dynstat_eta_sd               =   6.4911606284163E-03
(PID.TID 0000.0001) %MON dynstat_eta_del2             =   4.5899422814176E-03
(PID.TID 0000.0001) %MON dynstat_uvel_max             =   3.2102357420973E-01
(PID.TID 0000.0001) %MON dynstat_uvel_min             =  -1.6126419157564E-01
(PID.TID 0000.0001) %MON dynstat_uvel_mean            =  -4.1961365872736E-04
(PID.TID 0000.0001) %MON dynstat_uvel_sd              =   6.5682123164320E-02
(PID.TID 0000.0001) %MON dynstat_uvel_del2            =   3.1533282246551E-02
(PID.TID 0000.0001) %MON dynstat_vvel_max             =   1.3110983347778E-01
(PID.TID 0000.0001) %MON dynstat_vvel_min             =  -2.7151816018349E-01
(PID.TID 0000.0001) %MON dynstat_vvel_mean            =  -9.5704067518916E-03
(PID.TID 0000.0001) %MON dynstat_vvel_sd              =   5.9331824537473E-02
(PID.TID 0000.0001) %MON dynstat_vvel_del2            =   2.7246611200672E-02
(PID.TID 0000.0001) %MON dynstat_wvel_max             =   7.2411166230293E-03
(PID.TID 0000.0001) %MON dynstat_wvel_min             =  -1.0697552705557E-02
(PID.TID 0000.0001) %MON dynstat_wvel_mean            =  -2.2765662935045E-19
(PID.TID 0000.0001) %MON dynstat_wvel_sd              =   4.9989335453170E-03
(PID.TID 0000.0001) %MON dynstat_wvel_del2            =   2.9834536701248E-03
(PID.TID 0000.0001) %MON dynstat_theta_max            =   2.9347485493989E+00
(PID.TID 0000.0001) %MON dynstat_theta_min            =   4.5566939147778E-01
(PID.TID 0000.0001) %MON dynstat_theta_mean           =   1.6698283234527E+00
(PID.TID 0000.0001) %MON dynstat_theta_sd             =   7.2155921645820E-01
(PID.TID 0000.0001) %MON dynstat_theta_del2           =   2.5380646985682E-02
(PID.TID 0000.0001) %MON dynstat_salt_max             =   3.5000000000000E+01
(PID.TID 0000.0001) %MON dynstat_salt_min             =   3.5000000000000E+01
(PID.TID 0000.0001) %MON dynstat_salt_mean            =   3.5000000000000E+01
(PID.TID 0000.0001) %MON dynstat_salt_sd              =   4.5681506629539E-14
(PID.TID 0000.0001) %MON dynstat_salt_del2            =   1.2848981138328E-14
(PID.TID 0000.0001) %MON advcfl_uvel_max              =   7.7045657810335E-02
(PID.TID 0000.0001) %MON advcfl_vvel_max              =   6.5164358444038E-02
(PID.TID 0000.0001) %MON advcfl_wvel_max              =   2.5674126493338E-01
(PID.TID 0000.0001) %MON advcfl_W_hf_max              =   2.5674126493338E-01
(PID.TID 0000.0001) %MON pe_b_mean                    =   2.0667299072064E-07
(PID.TID 0000.0001) %MON ke_max                       =   6.9126624325448E-02
(PID.TID 0000.0001) %MON ke_mean                      =   3.9630877336688E-03
(PID.TID 0000.0001) %MON ke_vol                       =   7.5000000000000E+10
(PID.TID 0000.0001) %MON vort_r_min                   =  -8.0525598732255E-05
(PID.TID 0000.0001) %MON vort_r_max                   =   6.4246290574282E-05
(PID.TID 0000.0001) %MON vort_a_mean                  =   1.4000000000000E-04
(PID.TID 0000.0001) %MON vort_a_sd                    =   1.8710168007200E-05
(PID.TID 0000.0001) %MON vort_p_mean                  =   1.4000000000000E-04
(PID.TID 0000.0001) %MON vort_p_sd                    =   1.8710168007200E-05
(PID.TID 0000.0001) %MON surfExpan_theta_mean         =  -2.6790011273344E-09
(PID.TID 0000.0001) %MON surfExpan_salt_mean          =  -8.8545467254638E-18
(PID.TID 0000.0001) // =======================================================
(PID.TID 0000.0001) // End MONITOR dynamic field statistics
(PID.TID 0000.0001) // =======================================================
 cg2d: Sum(rhs),rhsMax =  -4.44089209850063E-16  2.69795214872812E-01
(PID.TID 0000.0001)                    cg2d_init_res =    5.50986644075688E-03
(PID.TID 0000.0001)                       cg2d_iters =     1
(PID.TID 0000.0001)                         cg2d_res =    2.55894498313970E-16
(PID.TID 0000.0001) // =======================================================
(PID.TID 0000.0001) // Begin MONITOR dynamic field statistics
(PID.TID 0000.0001) // =======================================================
(PID.TID 0000.0001) %MON time_tsnumber                =                    20
(PID.TID 0000.0001) %MON time_secondsf                =   2.4000000000000E+04
(PID.TID 0000.0001) %MON dynstat_eta_max              =   4.6193594552442E-03
(PID.TID 0000.0001) %MON dynstat_eta_min              =  -9.1619488026386E-03
(PID.TID 0000.0001) %MON dynstat_eta_mean             =   5.2154064178467E-18
(PID.TID 0000.0001) %MON dynstat_eta_sd               =   6.4785519374314E-03
(PID.TID 0000.0001) %MON dynstat_eta_del2             =   4.5809744013193E-03
(PID.TID 0000.0001) %MON dynstat_uvel_max             =   3.1756280185100E-01
(PID.TID 0000.0001) %MON dynstat_uvel_min             =  -1.7422718505864E-01
(PID.TID 0000.0001) %MON dynstat_uvel_mean            =  -1.2271104462422E-03
(PID.TID 0000.0001) %MON dynstat_uvel_sd              =   6.6823970813031E-02
(PID.TID 0000.0001) %MON dynstat_uvel_del2            =   3.2004606883697E-02
(PID.TID 0000.0001) %MON dynstat_vvel_max             =   1.4900965031041E-01
(PID.TID 0000.0001) %MON dynstat_vvel_min             =  -2.8481124845774E-01
(PID.TID 0000.0001) %MON dynstat_vvel_mean            =  -9.4296725295514E-03
(PID.TID 0000.0001) %MON dynstat_vvel_sd              =   6.3572145516567E-02
(PID.TID 0000.0001) %MON dynstat_vvel_del2            =   2.9615740186880E-02
(PID.TID 0000.0001) %MON dynstat_wvel_max             =   7.1722450775633E-03
(PID.TID 0000.0001) %MON dynstat_wvel_min             =  -1.0898893657635E-02
(PID.TID 0000.0001) %MON dynstat_wvel_mean            =  -2.4118866675939E-19
(PID.TID 0000.0001) %MON dynstat_wvel_sd              =   5.0771224551124E-03
(PID.TID 0000.0001) %MON dynstat_wvel_del2            =   3.0440965390431E-03
(PID.TID 0000.0001) %MON dynstat_theta_max            =   2.9347479231593E+00
(PID.TID 0000.0001) %MON dynstat_theta_min            =   4.5567001771736E-01
(PID.TID 0000.0001) %MON dynstat_theta_mean           =   1.6698082894008E+00
(PID.TID 0000.0001) %MON dynstat_theta_sd             =   7.2153964814228E-01
(PID.TID 0000.0001) %MON dynstat_theta_del2           =   2.5400681037560E-02
(PID.TID 0000.0001) %MON dynstat_salt_max             =   3.5000000000000E+01
(PID.TID 0000.0001) %MON dynstat_salt_min             =   3.5000000000000E+01
(PID.TID 0000.0001) %MON dynstat_salt_mean            =   3.5000000000000E+01
(PID.TID 0000.0001) %MON dynstat_salt_sd              =   4.7893602385649E-14
(PID.TID 0000.0001) %MON dynstat_salt_del2            =   1.3618735768735E-14
(PID.TID 0000.0001) %MON advcfl_uvel_max              =   7.6215072444239E-02
(PID.TID 0000.0001) %MON advcfl_vvel_max              =   6.8354699629858E-02
(PID.TID 0000.0001) %MON advcfl_wvel_max              =   2.6157344778325E-01
(PID.TID 0000.0001) %MON advcfl_W_hf_max              =   2.6157344778325E-01
(PID.TID 0000.0001) %MON pe_b_mean                    =   2.0587087068541E-07
(PID.TID 0000.0001) %MON ke_max                       =   7.3359034907257E-02
(PID.TID 0000.0001) %MON ke_mean                      =   4.2986426424311E-03
(PID.TID 0000.0001) %MON ke_vol                       =   7.5000000000000E+10
(PID.TID 0000.0001) %MON vort_r_min                   =  -8.6764179753631E-05
(PID.TID 0000.0001) %MON vort_r_max                   =   6.9703190764201E-05
(PID.TID 0000.0001) %MON vort_a_mean                  =   1.4000000000000E-04
(PID.TID 0000.0001) %MON vort_a_sd                    =   2.0288358645440E-05
(PID.TID 0000.0001) %MON vort_p_mean                  =   1.4000000000000E-04
(PID.TID 0000.0001) %MON vort_p_sd                    =   2.0288358645440E-05
(PID.TID 0000.0001) %MON surfExpan_theta_mean         =  -2.8571814613877E-09
(PID.TID 0000.0001) %MON surfExpan_salt_mean          =  -2.5298305672550E-17
(PID.TID 0000.0001) // =======================================================
(PID.TID 0000.0001) // End MONITOR dynamic field statistics
(PID.TID 0000.0001) // =======================================================
(PID.TID 0000.0001) %CHECKPOINT        20 ckptA
(PID.TID 0000.0001)   Seconds in section "ALL                    [THE_MODEL_MAIN]":
(PID.TID 0000.0001)           User time:  0.193970005
(PID.TID 0000.0001)         System time:  0.0229969992
(PID.TID 0000.0001)     Wall clock time:  0.270432949
(PID.TID 0000.0001)          No. starts: 1
(PID.TID 0000.0001)           No. stops: 1
(PID.TID 0000.0001)   Seconds in section "INITIALISE_FIXED       [THE_MODEL_MAIN]":
(PID.TID 0000.0001)           User time:  0.0249959999
(PID.TID 0000.0001)         System time:  0.00799900002
(PID.TID 0000.0001)     Wall clock time:  0.0438630581
(PID.TID 0000.0001)          No. starts: 1
(PID.TID 0000.0001)           No. stops: 1
(PID.TID 0000.0001)   Seconds in section "THE_MAIN_LOOP          [THE_MODEL_MAIN]":
(PID.TID 0000.0001)           User time:  0.167975001
(PID.TID 0000.0001)         System time:  0.0129980007
(PID.TID 0000.0001)     Wall clock time:  0.203274965
(PID.TID 0000.0001)          No. starts: 1
(PID.TID 0000.0001)           No. stops: 1
(PID.TID 0000.0001)   Seconds in section "INITIALISE_VARIA    [THE_MAIN_LOOP]":
(PID.TID 0000.0001)           User time:  0.00200000033
(PID.TID 0000.0001)         System time:  0.00200000033
(PID.TID 0000.0001)     Wall clock time:  0.00415992737
(PID.TID 0000.0001)          No. starts: 1
(PID.TID 0000.0001)           No. stops: 1
(PID.TID 0000.0001)   Seconds in section "MONITOR             [THE_MAIN_LOOP]":
(PID.TID 0000.0001)           User time:  0.00199899822
(PID.TID 0000.0001)         System time:  0.
(PID.TID 0000.0001)     Wall clock time:  0.00167608261
(PID.TID 0000.0001)          No. starts: 1
(PID.TID 0000.0001)           No. stops: 1
(PID.TID 0000.0001)   Seconds in section "DO_THE_MODEL_IO     [THE_MAIN_LOOP]":
(PID.TID 0000.0001)           User time:  0.00100000203
(PID.TID 0000.0001)         System time:  0.0019999994
(PID.TID 0000.0001)     Wall clock time:  0.00431108475
(PID.TID 0000.0001)          No. starts: 1
(PID.TID 0000.0001)           No. stops: 1
(PID.TID 0000.0001)   Seconds in section "MAIN LOOP           [THE_MAIN_LOOP]":
(PID.TID 0000.0001)           User time:  0.162976
(PID.TID 0000.0001)         System time:  0.00899800099
(PID.TID 0000.0001)     Wall clock time:  0.192951918
(PID.TID 0000.0001)          No. starts: 1
(PID.TID 0000.0001)           No. stops: 1
(PID.TID 0000.0001)   Seconds in section "FORWARD_STEP        [THE_MAIN_LOOP]":
(PID.TID 0000.0001)           User time:  0.162976
(PID.TID 0000.0001)         System time:  0.00899800099
(PID.TID 0000.0001)     Wall clock time:  0.192133427
(PID.TID 0000.0001)          No. starts: 20
(PID.TID 0000.0001)           No. stops: 20
(PID.TID 0000.0001)   Seconds in section "EXTERNAL_FIELDS_LOAD[FORWARD_STEP]":
(PID.TID 0000.0001)           User time:  0.
(PID.TID 0000.0001)         System time:  0.
(PID.TID 0000.0001)     Wall clock time:  0.000691652298
(PID.TID 0000.0001)          No. starts: 20
(PID.TID 0000.0001)           No. stops: 20
(PID.TID 0000.0001)   Seconds in section "DO_ATMOSPHERIC_PHYS [FORWARD_STEP]":
(PID.TID 0000.0001)           User time:  0.00100000203
(PID.TID 0000.0001)         System time:  0.
(PID.TID 0000.0001)     Wall clock time:  0.00083231926
(PID.TID 0000.0001)          No. starts: 20
(PID.TID 0000.0001)           No. stops: 20
(PID.TID 0000.0001)   Seconds in section "DO_OCEANIC_PHYS     [FORWARD_STEP]":
(PID.TID 0000.0001)           User time:  0.0109980106
(PID.TID 0000.0001)         System time:  0.
(PID.TID 0000.0001)     Wall clock time:  0.0107588768
(PID.TID 0000.0001)          No. starts: 20
(PID.TID 0000.0001)           No. stops: 20
(PID.TID 0000.0001)   Seconds in section "THERMODYNAMICS      [FORWARD_STEP]":
(PID.TID 0000.0001)           User time:  0.0269949883
(PID.TID 0000.0001)         System time:  0.00100000016
(PID.TID 0000.0001)     Wall clock time:  0.0288898945
(PID.TID 0000.0001)          No. starts: 20
(PID.TID 0000.0001)           No. stops: 20
(PID.TID 0000.0001)   Seconds in section "DYNAMICS            [FORWARD_STEP]":
(PID.TID 0000.0001)           User time:  0.0539930053
(PID.TID 0000.0001)         System time:  0.00100000016
(PID.TID 0000.0001)     Wall clock time:  0.0527386665
(PID.TID 0000.0001)          No. starts: 20
(PID.TID 0000.0001)           No. stops: 20
(PID.TID 0000.0001)   Seconds in section "SOLVE_FOR_PRESSURE  [FORWARD_STEP]":
(PID.TID 0000.0001)           User time:  0.00300000608
(PID.TID 0000.0001)         System time:  0.
(PID.TID 0000.0001)     Wall clock time:  0.00488495827
(PID.TID 0000.0001)          No. starts: 20
(PID.TID 0000.0001)           No. stops: 20
(PID.TID 0000.0001)   Seconds in section "UV_CORRECTION_STEP  [FORWARD_STEP]":
(PID.TID 0000.0001)           User time:  0.00399900973
(PID.TID 0000.0001)         System time:  0.
(PID.TID 0000.0001)     Wall clock time:  0.00345802307
(PID.TID 0000.0001)          No. starts: 20
(PID.TID 0000.0001)           No. stops: 20
(PID.TID 0000.0001)   Seconds in section "TS_CORRECTION_STEP  [FORWARD_STEP]":
(PID.TID 0000.0001)           User time:  0.00399701297
(PID.TID 0000.0001)         System time:  0.
(PID.TID 0000.0001)     Wall clock time:  0.00204443932
(PID.TID 0000.0001)          No. starts: 20
(PID.TID 0000.0001)           No. stops: 20
(PID.TID 0000.0001)   Seconds in section "BLOCKING_EXCHANGES  [FORWARD_STEP]":
(PID.TID 0000.0001)           User time:  0.0119989887
(PID.TID 0000.0001)         System time:  0.
(PID.TID 0000.0001)     Wall clock time:  0.0128951073
(PID.TID 0000.0001)          No. starts: 20
(PID.TID 0000.0001)           No. stops: 20
(PID.TID 0000.0001)   Seconds in section "DO_STATEVARS_TAVE   [FORWARD_STEP]":
(PID.TID 0000.0001)           User time:  0.00299999118
(PID.TID 0000.0001)         System time:  0.
(PID.TID 0000.0001)     Wall clock time:  0.00275063515
(PID.TID 0000.0001)          No. starts: 20
(PID.TID 0000.0001)           No. stops: 20
(PID.TID 0000.0001)   Seconds in section "MONITOR             [FORWARD_STEP]":
(PID.TID 0000.0001)           User time:  0.0339959934
(PID.TID 0000.0001)         System time:  0.00299900025
(PID.TID 0000.0001)     Wall clock time:  0.0362257957
(PID.TID 0000.0001)          No. starts: 20
(PID.TID 0000.0001)           No. stops: 20
(PID.TID 0000.0001)   Seconds in section "DO_THE_MODEL_IO     [FORWARD_STEP]":
(PID.TID 0000.0001)           User time:  0.00200000405
(PID.TID 0000.0001)         System time:  0.00299900025
(PID.TID 0000.0001)     Wall clock time:  0.025449276
(PID.TID 0000.0001)          No. starts: 20
(PID.TID 0000.0001)           No. stops: 20
(PID.TID 0000.0001)   Seconds in section "WRITE_CHECKPOINT    [FORWARD_STEP]":
(PID.TID 0000.0001)           User time:  0.
(PID.TID 0000.0001)         System time:  0.
(PID.TID 0000.0001)     Wall clock time:  0.000702142715
(PID.TID 0000.0001)          No. starts: 20
(PID.TID 0000.0001)           No. stops: 20
(PID.TID 0000.0001)   Seconds in section "WRITE_CHECKPOINT       [THE_MODEL_MAIN]":
(PID.TID 0000.0001)           User time:  0.000999003649
(PID.TID 0000.0001)         System time:  0.00199999847
(PID.TID 0000.0001)     Wall clock time:  0.0231308937
(PID.TID 0000.0001)          No. starts: 1
(PID.TID 0000.0001)           No. stops: 1
(PID.TID 0000.0001) // ======================================================
(PID.TID 0000.0001) // Tile <-> Tile communication statistics
(PID.TID 0000.0001) // ======================================================
(PID.TID 0000.0001) // o Tile number: 000001
(PID.TID 0000.0001) //         No. X exchanges =              0
(PID.TID 0000.0001) //            Max. X spins =              0
(PID.TID 0000.0001) //            Min. X spins =     1000000000
(PID.TID 0000.0001) //          Total. X spins =              0
(PID.TID 0000.0001) //            Avg. X spins =       0.00E+00
(PID.TID 0000.0001) //         No. Y exchanges =              0
(PID.TID 0000.0001) //            Max. Y spins =              0
(PID.TID 0000.0001) //            Min. Y spins =     1000000000
(PID.TID 0000.0001) //          Total. Y spins =              0
(PID.TID 0000.0001) //            Avg. Y spins =       0.00E+00
(PID.TID 0000.0001) // o Thread number: 000001
(PID.TID 0000.0001) //            No. barriers =           7054
(PID.TID 0000.0001) //      Max. barrier spins =              1
(PID.TID 0000.0001) //      Min. barrier spins =              1
(PID.TID 0000.0001) //     Total barrier spins =           7054
(PID.TID 0000.0001) //      Avg. barrier spins =       1.00E+00
