(PID.TID 0000.0001) 
(PID.TID 0000.0001) // ======================================================
(PID.TID 0000.0001) //                      MITgcm UV
(PID.TID 0000.0001) //                      =========
(PID.TID 0000.0001) // ======================================================
(PID.TID 0000.0001) // execution environment starting up...
(PID.TID 0000.0001) 
(PID.TID 0000.0001) // MITgcmUV version:  checkpoint61d
(PID.TID 0000.0001) // Build user:        dfer
(PID.TID 0000.0001) // Build host:        faulks
(PID.TID 0000.0001) // Build date:        Mon Sep 29 09:37:52 EDT 2008
(PID.TID 0000.0001) 
(PID.TID 0000.0001) // =======================================================
(PID.TID 0000.0001) // Execution Environment parameter file "eedata"
(PID.TID 0000.0001) // =======================================================
(PID.TID 0000.0001) ># Example "eedata" file
(PID.TID 0000.0001) ># Lines beginning "#" are comments
(PID.TID 0000.0001) ># nTx - No. threads per process in X
(PID.TID 0000.0001) ># nTy - No. threads per process in Y
(PID.TID 0000.0001) > &EEPARMS
(PID.TID 0000.0001) > &
(PID.TID 0000.0001) ># Note: Some systems use & as the
(PID.TID 0000.0001) ># namelist terminator. Other systems
(PID.TID 0000.0001) ># use a / character (as shown here).
(PID.TID 0000.0001) 
(PID.TID 0000.0001) // =======================================================
(PID.TID 0000.0001) // Computational Grid Specification ( see files "SIZE.h" )
(PID.TID 0000.0001) //                                  ( and "eedata"       )
(PID.TID 0000.0001) // =======================================================
(PID.TID 0000.0001)      nPx =    1 ; /* No. processes in X */
(PID.TID 0000.0001)      nPy =    1 ; /* No. processes in Y */
(PID.TID 0000.0001)      nSx =    1 ; /* No. tiles in X per process */
(PID.TID 0000.0001)      nSy =    1 ; /* No. tiles in Y per process */
(PID.TID 0000.0001)      sNx =    3 ; /* Tile size in X */
(PID.TID 0000.0001)      sNy =    1 ; /* Tile size in Y */
(PID.TID 0000.0001)      OLx =    3 ; /* Tile overlap distance in X */
(PID.TID 0000.0001)      OLy =    3 ; /* Tile overlap distance in Y */
(PID.TID 0000.0001)      nTx =    1 ; /* No. threads in X per process */
(PID.TID 0000.0001)      nTy =    1 ; /* No. threads in Y per process */
(PID.TID 0000.0001)       Nr =   20 ; /* No. levels in the vertical   */
(PID.TID 0000.0001)       nX =    3 ; /* Total domain size in X ( = nPx*nSx*sNx ) */
(PID.TID 0000.0001)       nY =    1 ; /* Total domain size in Y ( = nPy*nSy*sNy ) */
(PID.TID 0000.0001)   nTiles =    1 ; /* Total no. tiles per process ( = nSx*nSy ) */
(PID.TID 0000.0001)   nProcs =    1 ; /* Total no. processes ( = nPx*nPy ) */
(PID.TID 0000.0001) nThreads =    1 ; /* Total no. threads per process ( = nTx*nTy ) */
(PID.TID 0000.0001) usingMPI =    F ; /* Flag used to control whether MPI is in use */
(PID.TID 0000.0001)                   /*  note: To execute a program with MPI calls */
(PID.TID 0000.0001)                   /*  it must be launched appropriately e.g     */
(PID.TID 0000.0001)                   /*  "mpirun -np 64 ......"                    */
(PID.TID 0000.0001) useCoupler=   F ; /* Flag used to control communications with */
(PID.TID 0000.0001)                   /*  other model components, through a coupler */
(PID.TID 0000.0001) 
(PID.TID 0000.0001) // ======================================================
(PID.TID 0000.0001) // Mapping of tiles to threads
(PID.TID 0000.0001) // ======================================================
(PID.TID 0000.0001) // -o- Thread   1, tiles (   1:   1,   1:   1)
(PID.TID 0000.0001) 
(PID.TID 0000.0001) // ======================================================
(PID.TID 0000.0001) // Tile <-> Tile connectvity table
(PID.TID 0000.0001) // ======================================================
(PID.TID 0000.0001) // Tile number: 000001 (process no. = 000001)
(PID.TID 0000.0001) //        WEST: Tile = 000001, Process = 000001, Comm = put
(PID.TID 0000.0001) //                bi = 000001, bj = 000001
(PID.TID 0000.0001) //        EAST: Tile = 000001, Process = 000001, Comm = put
(PID.TID 0000.0001) //                bi = 000001, bj = 000001
(PID.TID 0000.0001) //       SOUTH: Tile = 000001, Process = 000001, Comm = put
(PID.TID 0000.0001) //                bi = 000001, bj = 000001
(PID.TID 0000.0001) //       NORTH: Tile = 000001, Process = 000001, Comm = put
(PID.TID 0000.0001) //                bi = 000001, bj = 000001
(PID.TID 0000.0001) 
(PID.TID 0000.0001) // =======================================================
(PID.TID 0000.0001) // Model parameter file "data"
(PID.TID 0000.0001) // =======================================================
(PID.TID 0000.0001) ># ====================
(PID.TID 0000.0001) ># | Model parameters |
(PID.TID 0000.0001) ># ====================
(PID.TID 0000.0001) >#
(PID.TID 0000.0001) ># Continuous equation parameters
(PID.TID 0000.0001) > &PARM01
(PID.TID 0000.0001) > tRef=20*1.,
(PID.TID 0000.0001) > sRef=20*35.,
(PID.TID 0000.0001) > viscA4=0.0E4,
(PID.TID 0000.0001) > viscAh=0.E-2,
(PID.TID 0000.0001) > viscAz=1.E-4,
(PID.TID 0000.0001) > no_slip_sides=.TRUE.,
(PID.TID 0000.0001) > no_slip_bottom=.TRUE.,
(PID.TID 0000.0001) > diffK4T=0.E4,
(PID.TID 0000.0001) > diffKhT=0.E-2,
(PID.TID 0000.0001) > diffKzT=1.E-5,
(PID.TID 0000.0001) > diffK4S=0.E4,
(PID.TID 0000.0001) > diffKhS=0.E-2,
(PID.TID 0000.0001) > diffKzS=1.E-5,
(PID.TID 0000.0001) > f0=1.4e-4,
(PID.TID 0000.0001) > beta=0.E-11,
(PID.TID 0000.0001) > tAlpha=2.E-4,
(PID.TID 0000.0001) > sBeta =0.E-4,
(PID.TID 0000.0001) > rigidLid=.FALSE.,
(PID.TID 0000.0001) > implicitFreeSurface=.TRUE.,
(PID.TID 0000.0001) >#ivdc_kappa=10.,
(PID.TID 0000.0001) > implicitDiffusion=.TRUE.,
(PID.TID 0000.0001) > implicitViscosity=.TRUE.,
(PID.TID 0000.0001) >#eosType='LINEAR',
(PID.TID 0000.0001) > eosType='MDJWF',
(PID.TID 0000.0001) > hFacMin=0.05,
(PID.TID 0000.0001) > readBinaryPrec=64,
(PID.TID 0000.0001) > bottomDragLinear=0.E-4,
(PID.TID 0000.0001) > debugLevel=1,
(PID.TID 0000.0001) > tempAdvection=.FALSE.,
(PID.TID 0000.0001) > tempAdvScheme=33,
(PID.TID 0000.0001) > &
(PID.TID 0000.0001) >
(PID.TID 0000.0001) ># Elliptic solver parameters
(PID.TID 0000.0001) > &PARM02
(PID.TID 0000.0001) > cg2dMaxIters=300,
(PID.TID 0000.0001) > cg2dTargetResidual=1.E-13,
(PID.TID 0000.0001) > &
(PID.TID 0000.0001) >
(PID.TID 0000.0001) ># Time stepping parameters
(PID.TID 0000.0001) > &PARM03
(PID.TID 0000.0001) > niter0=0,
(PID.TID 0000.0001) > nTimeSteps=20,
(PID.TID 0000.0001) >#nTimeSteps=720,
(PID.TID 0000.0001) >#nTimeSteps=8640,
(PID.TID 0000.0001) > deltaT=1200.0,
(PID.TID 0000.0001) >#cAdjFreq=-1.,
(PID.TID 0000.0001) > abEps=0.01,
(PID.TID 0000.0001) > pChkptFreq=0.0,
(PID.TID 0000.0001) > chkptFreq=0.0,
(PID.TID 0000.0001) > taveFreq=86400.0,
(PID.TID 0000.0001) > dumpFreq=86400.0,
(PID.TID 0000.0001) >#dumpFreq=1.0,
(PID.TID 0000.0001) > monitorFreq=86400.,
(PID.TID 0000.0001) > monitorFreq=1.,
(PID.TID 0000.0001) > &
(PID.TID 0000.0001) >
(PID.TID 0000.0001) ># Gridding parameters
(PID.TID 0000.0001) > &PARM04
(PID.TID 0000.0001) > usingCartesianGrid=.TRUE.,
(PID.TID 0000.0001) > usingSphericalPolarGrid=.FALSE.,
(PID.TID 0000.0001) > dXspacing=5000,
(PID.TID 0000.0001) > dYspacing=5000.,
(PID.TID 0000.0001) > delZ=20*50,
(PID.TID 0000.0001) > &
(PID.TID 0000.0001) >
(PID.TID 0000.0001) ># Input datasets
(PID.TID 0000.0001) > &PARM05
(PID.TID 0000.0001) > hydrogThetaFile='T.init',
(PID.TID 0000.0001) >#hydrogThetaFile='Tinstable.init',
(PID.TID 0000.0001) > hydrogThetaFile='Tstable2.init',
(PID.TID 0000.0001) > surfQfile='Qnet.forcing',
(PID.TID 0000.0001) > zonalWindFile='taux.forcing',
(PID.TID 0000.0001) > &
(PID.TID 0000.0001) 
(PID.TID 0000.0001) S/R INI_PARMS ; starts to read PARM01
(PID.TID 0000.0001) S/R INI_PARMS ; read PARM01 : OK
(PID.TID 0000.0001) S/R INI_PARMS ; starts to read PARM02
(PID.TID 0000.0001) S/R INI_PARMS ; read PARM02 : OK
(PID.TID 0000.0001) S/R INI_PARMS ; starts to read PARM03
(PID.TID 0000.0001) S/R INI_PARMS ; read PARM03 : OK
(PID.TID 0000.0001) S/R INI_PARMS ; starts to read PARM04
(PID.TID 0000.0001) S/R INI_PARMS ; read PARM04 : OK
(PID.TID 0000.0001) S/R INI_PARMS ; starts to read PARM05
(PID.TID 0000.0001) S/R INI_PARMS ; read PARM05 : OK
(PID.TID 0000.0001)  PACKAGES_BOOT: opening data.pkg
(PID.TID 0000.0001)  OPEN_COPY_DATA_FILE: opening file data.pkg
(PID.TID 0000.0001) // =======================================================
(PID.TID 0000.0001) // Parameter file "data.pkg"
(PID.TID 0000.0001) // =======================================================
(PID.TID 0000.0001) ># Packages
(PID.TID 0000.0001) > &PACKAGES
(PID.TID 0000.0001) > useGGL90=.TRUE.,
(PID.TID 0000.0001) > &
(PID.TID 0000.0001) 
(PID.TID 0000.0001)  PACKAGES_BOOT: finished reading data.pkg
(PID.TID 0000.0001)  GGL90_READPARMS: opening data.ggl90
(PID.TID 0000.0001)  OPEN_COPY_DATA_FILE: opening file data.ggl90
(PID.TID 0000.0001) // =======================================================
(PID.TID 0000.0001) // Parameter file "data.ggl90"
(PID.TID 0000.0001) // =======================================================
(PID.TID 0000.0001) ># =====================================================================
(PID.TID 0000.0001) ># | Parameters for Gaspar et al. (1990)'s TKE vertical mixing scheme  |
(PID.TID 0000.0001) ># =====================================================================
(PID.TID 0000.0001) > &GGL90_PARM01
(PID.TID 0000.0001) > GGL90writeState=.TRUE.,
(PID.TID 0000.0001) >#GGL90diffTKEh=1.e3,
(PID.TID 0000.0001) >#GGL90alpha=30.,
(PID.TID 0000.0001) >#GGL90diffMax = 10.,
(PID.TID 0000.0001) >#GGL90TKEFile = 'TKE.init',
(PID.TID 0000.0001) > &
(PID.TID 0000.0001) 
(PID.TID 0000.0001)  GGL90_READPARMS: finished reading data.ggl90
(PID.TID 0000.0001) // =======================================================
(PID.TID 0000.0001) // GGL90 configuration
(PID.TID 0000.0001) // =======================================================
(PID.TID 0000.0001) GGL90dumpFreq =   /* GGL90 state write out interval ( s ). */
(PID.TID 0000.0001)                 8.640000000000000E+04
(PID.TID 0000.0001)     ;
(PID.TID 0000.0001) GGL90taveFreq =   /* GGL90 averaging interval ( s ). */
(PID.TID 0000.0001)                 8.640000000000000E+04
(PID.TID 0000.0001)     ;
(PID.TID 0000.0001) GGL90mixingMAPS =   /* GGL90 IO flag. */
(PID.TID 0000.0001)                   F
(PID.TID 0000.0001)     ;
(PID.TID 0000.0001) GGL90writeState =   /* GGL90 IO flag. */
(PID.TID 0000.0001)                   T
(PID.TID 0000.0001)     ;
(PID.TID 0000.0001) GGL90ck =   /* GGL90 viscosity parameter. */
(PID.TID 0000.0001)                 1.000000000000000E-01
(PID.TID 0000.0001)     ;
(PID.TID 0000.0001) GGL90ceps =   /* GGL90 dissipation parameter. */
(PID.TID 0000.0001)                 7.000000000000000E-01
(PID.TID 0000.0001)     ;
(PID.TID 0000.0001) GGL90alpha =   /* GGL90 TKE diffusivity parameter. */
(PID.TID 0000.0001)                 1.000000000000000E+00
(PID.TID 0000.0001)     ;
(PID.TID 0000.0001) GGL90m2 =   /* GGL90 wind stress to vertical stress ratio. */
(PID.TID 0000.0001)                 3.750000000000000E+00
(PID.TID 0000.0001)     ;
(PID.TID 0000.0001) GGL90TKEmin =   /* GGL90 minimum kinetic energy ( m^2/s^2 ). */
(PID.TID 0000.0001)                 9.999999999999999E-12
(PID.TID 0000.0001)     ;
(PID.TID 0000.0001) GGL90TKEsurfMin =   /* GGL90 minimum surface kinetic energy ( m^2/s^2 ). */
(PID.TID 0000.0001)                 1.000000000000000E-04
(PID.TID 0000.0001)     ;
(PID.TID 0000.0001) GGL90TKEbottom =   /* GGL90 bottom kinetic energy ( m^2/s^2 ). */
(PID.TID 0000.0001)                 9.999999999999999E-12
(PID.TID 0000.0001)     ;
(PID.TID 0000.0001) GGL90viscMax =   /* GGL90 upper limit for viscosity ( m^2/s ). */
(PID.TID 0000.0001)                 1.000000000000000E+00
(PID.TID 0000.0001)     ;
(PID.TID 0000.0001) GGL90diffMax =   /* GGL90 upper limit for diffusivity ( m^2/s ). */
(PID.TID 0000.0001)                 1.000000000000000E+01
(PID.TID 0000.0001)     ;
(PID.TID 0000.0001) GGL90diffTKEh =   /* GGL90 horizontal diffusivity for TKE ( m^2/s ). */
(PID.TID 0000.0001)                 0.000000000000000E+00
(PID.TID 0000.0001)     ;
(PID.TID 0000.0001) GGL90mixingLengthMin =   /* GGL90 minimum mixing length ( m ). */
(PID.TID 0000.0001)                 1.000000000000000E-08
(PID.TID 0000.0001)     ;
(PID.TID 0000.0001) GGL90: GGL90TKEFile =
(PID.TID 0000.0001) // =======================================================
(PID.TID 0000.0001) // End of GGL90 config. summary
(PID.TID 0000.0001) // =======================================================
(PID.TID 0000.0001) 
(PID.TID 0000.0001) SET_PARMS: done
(PID.TID 0000.0001) Enter INI_VERTICAL_GRID: setInterFDr=    T ; setCenterDr=    F
(PID.TID 0000.0001) %MON XC_max                       =   1.2500000000000E+04
(PID.TID 0000.0001) %MON XC_min                       =   2.5000000000000E+03
(PID.TID 0000.0001) %MON XC_mean                      =   7.5000000000000E+03
(PID.TID 0000.0001) %MON XC_sd                        =   4.0824829046386E+03
(PID.TID 0000.0001) %MON XG_max                       =   1.0000000000000E+04
(PID.TID 0000.0001) %MON XG_min                       =   0.0000000000000E+00
(PID.TID 0000.0001) %MON XG_mean                      =   5.0000000000000E+03
(PID.TID 0000.0001) %MON XG_sd                        =   4.0824829046386E+03
(PID.TID 0000.0001) %MON DXC_max                      =   5.0000000000000E+03
(PID.TID 0000.0001) %MON DXC_min                      =   5.0000000000000E+03
(PID.TID 0000.0001) %MON DXC_mean                     =   5.0000000000000E+03
(PID.TID 0000.0001) %MON DXC_sd                       =   0.0000000000000E+00
(PID.TID 0000.0001) %MON DXF_max                      =   5.0000000000000E+03
(PID.TID 0000.0001) %MON DXF_min                      =   5.0000000000000E+03
(PID.TID 0000.0001) %MON DXF_mean                     =   5.0000000000000E+03
(PID.TID 0000.0001) %MON DXF_sd                       =   0.0000000000000E+00
(PID.TID 0000.0001) %MON DXG_max                      =   5.0000000000000E+03
(PID.TID 0000.0001) %MON DXG_min                      =   5.0000000000000E+03
(PID.TID 0000.0001) %MON DXG_mean                     =   5.0000000000000E+03
(PID.TID 0000.0001) %MON DXG_sd                       =   0.0000000000000E+00
(PID.TID 0000.0001) %MON DXV_max                      =   5.0000000000000E+03
(PID.TID 0000.0001) %MON DXV_min                      =   5.0000000000000E+03
(PID.TID 0000.0001) %MON DXV_mean                     =   5.0000000000000E+03
(PID.TID 0000.0001) %MON DXV_sd                       =   0.0000000000000E+00
(PID.TID 0000.0001) %MON YC_max                       =   2.5000000000000E+03
(PID.TID 0000.0001) %MON YC_min                       =   2.5000000000000E+03
(PID.TID 0000.0001) %MON YC_mean                      =   2.5000000000000E+03
(PID.TID 0000.0001) %MON YC_sd                        =   0.0000000000000E+00
(PID.TID 0000.0001) %MON YG_max                       =   0.0000000000000E+00
(PID.TID 0000.0001) %MON YG_min                       =   0.0000000000000E+00
(PID.TID 0000.0001) %MON YG_mean                      =   0.0000000000000E+00
(PID.TID 0000.0001) %MON YG_sd                        =   0.0000000000000E+00
(PID.TID 0000.0001) %MON DYC_max                      =   5.0000000000000E+03
(PID.TID 0000.0001) %MON DYC_min                      =   5.0000000000000E+03
(PID.TID 0000.0001) %MON DYC_mean                     =   5.0000000000000E+03
(PID.TID 0000.0001) %MON DYC_sd                       =   0.0000000000000E+00
(PID.TID 0000.0001) %MON DYF_max                      =   5.0000000000000E+03
(PID.TID 0000.0001) %MON DYF_min                      =   5.0000000000000E+03
(PID.TID 0000.0001) %MON DYF_mean                     =   5.0000000000000E+03
(PID.TID 0000.0001) %MON DYF_sd                       =   0.0000000000000E+00
(PID.TID 0000.0001) %MON DYG_max                      =   5.0000000000000E+03
(PID.TID 0000.0001) %MON DYG_min                      =   5.0000000000000E+03
(PID.TID 0000.0001) %MON DYG_mean                     =   5.0000000000000E+03
(PID.TID 0000.0001) %MON DYG_sd                       =   0.0000000000000E+00
(PID.TID 0000.0001) %MON DYU_max                      =   5.0000000000000E+03
(PID.TID 0000.0001) %MON DYU_min                      =   5.0000000000000E+03
(PID.TID 0000.0001) %MON DYU_mean                     =   5.0000000000000E+03
(PID.TID 0000.0001) %MON DYU_sd                       =   0.0000000000000E+00
(PID.TID 0000.0001) %MON RA_max                       =   2.5000000000000E+07
(PID.TID 0000.0001) %MON RA_min                       =   2.5000000000000E+07
(PID.TID 0000.0001) %MON RA_mean                      =   2.5000000000000E+07
(PID.TID 0000.0001) %MON RA_sd                        =   0.0000000000000E+00
(PID.TID 0000.0001) %MON RAW_max                      =   2.5000000000000E+07
(PID.TID 0000.0001) %MON RAW_min                      =   2.5000000000000E+07
(PID.TID 0000.0001) %MON RAW_mean                     =   2.5000000000000E+07
(PID.TID 0000.0001) %MON RAW_sd                       =   0.0000000000000E+00
(PID.TID 0000.0001) %MON RAS_max                      =   2.5000000000000E+07
(PID.TID 0000.0001) %MON RAS_min                      =   2.5000000000000E+07
(PID.TID 0000.0001) %MON RAS_mean                     =   2.5000000000000E+07
(PID.TID 0000.0001) %MON RAS_sd                       =   0.0000000000000E+00
(PID.TID 0000.0001) %MON RAZ_max                      =   2.5000000000000E+07
(PID.TID 0000.0001) %MON RAZ_min                      =   2.5000000000000E+07
(PID.TID 0000.0001) %MON RAZ_mean                     =   2.5000000000000E+07
(PID.TID 0000.0001) %MON RAZ_sd                       =   0.0000000000000E+00
(PID.TID 0000.0001) %MON AngleCS_max                  =   1.0000000000000E+00
(PID.TID 0000.0001) %MON AngleCS_min                  =   1.0000000000000E+00
(PID.TID 0000.0001) %MON AngleCS_mean                 =   1.0000000000000E+00
(PID.TID 0000.0001) %MON AngleCS_sd                   =   0.0000000000000E+00
(PID.TID 0000.0001) %MON AngleSN_max                  =   0.0000000000000E+00
(PID.TID 0000.0001) %MON AngleSN_min                  =   0.0000000000000E+00
(PID.TID 0000.0001) %MON AngleSN_mean                 =   0.0000000000000E+00
(PID.TID 0000.0001) %MON AngleSN_sd                   =   0.0000000000000E+00
(PID.TID 0000.0001) // =======================================================
(PID.TID 0000.0001) // Field Model R_low (ini_masks_etc) at iteration          1
(PID.TID 0000.0001) // CMIN =         -1.000000000000000E+03
(PID.TID 0000.0001) // CMAX =         -1.000000000000000E+03
(PID.TID 0000.0001) // CINT =          0.000000000000000E+00
(PID.TID 0000.0001) // SYMBOLS (CMIN->CMAX): -abcdefghijklmnopqrstuvwxyz+
(PID.TID 0000.0001) //                  0.0: .
(PID.TID 0000.0001) // RANGE I (Lo:Hi:Step):(  -2:   6:   1)
(PID.TID 0000.0001) // RANGE J (Lo:Hi:Step):(   4:  -2:  -1)
(PID.TID 0000.0001) // RANGE K (Lo:Hi:Step):(   1:   1:   1)
(PID.TID 0000.0001) // =======================================================
(PID.TID 0000.0001) // =======================================================
(PID.TID 0000.0001) // END OF FIELD                                          =
(PID.TID 0000.0001) // =======================================================
(PID.TID 0000.0001) 
(PID.TID 0000.0001) // =======================================================
(PID.TID 0000.0001) // Field Model Ro_surf (ini_masks_etc) at iteration          1
(PID.TID 0000.0001) // CMIN =          1.000000000000000E+32
(PID.TID 0000.0001) // CMAX =         -1.000000000000000E+32
(PID.TID 0000.0001) // CINT =          0.000000000000000E+00
(PID.TID 0000.0001) // SYMBOLS (CMIN->CMAX): -abcdefghijklmnopqrstuvwxyz+
(PID.TID 0000.0001) //                  0.0: .
(PID.TID 0000.0001) // RANGE I (Lo:Hi:Step):(  -2:   6:   1)
(PID.TID 0000.0001) // RANGE J (Lo:Hi:Step):(   4:  -2:  -1)
(PID.TID 0000.0001) // RANGE K (Lo:Hi:Step):(   1:   1:   1)
(PID.TID 0000.0001) // =======================================================
(PID.TID 0000.0001) // =======================================================
(PID.TID 0000.0001) // END OF FIELD                                          =
(PID.TID 0000.0001) // =======================================================
(PID.TID 0000.0001) 
(PID.TID 0000.0001) // =======================================================
(PID.TID 0000.0001) // Field hFacC at iteration          1
(PID.TID 0000.0001) // CMIN =          1.000000000000000E+00
(PID.TID 0000.0001) // CMAX =          1.000000000000000E+00
(PID.TID 0000.0001) // CINT =          0.000000000000000E+00
(PID.TID 0000.0001) // SYMBOLS (CMIN->CMAX): -abcdefghijklmnopqrstuvwxyz+
(PID.TID 0000.0001) //                  0.0: .
(PID.TID 0000.0001) // RANGE I (Lo:Hi:Step):(  -2:   6:   1)
(PID.TID 0000.0001) // RANGE J (Lo:Hi:Step):(   4:  -2:  -1)
(PID.TID 0000.0001) // RANGE K (Lo:Hi:Step):(   1:   1:   1)
(PID.TID 0000.0001) // =======================================================
(PID.TID 0000.0001) // =======================================================
(PID.TID 0000.0001) // END OF FIELD                                          =
(PID.TID 0000.0001) // =======================================================
(PID.TID 0000.0001) 
(PID.TID 0000.0001) // =======================================================
(PID.TID 0000.0001) // Field hFacW at iteration          1
(PID.TID 0000.0001) // CMIN =          1.000000000000000E+00
(PID.TID 0000.0001) // CMAX =          1.000000000000000E+00
(PID.TID 0000.0001) // CINT =          0.000000000000000E+00
(PID.TID 0000.0001) // SYMBOLS (CMIN->CMAX): -abcdefghijklmnopqrstuvwxyz+
(PID.TID 0000.0001) //                  0.0: .
(PID.TID 0000.0001) // RANGE I (Lo:Hi:Step):(  -2:   6:   1)
(PID.TID 0000.0001) // RANGE J (Lo:Hi:Step):(   4:  -2:  -1)
(PID.TID 0000.0001) // RANGE K (Lo:Hi:Step):(   1:   1:   1)
(PID.TID 0000.0001) // =======================================================
(PID.TID 0000.0001) // =======================================================
(PID.TID 0000.0001) // END OF FIELD                                          =
(PID.TID 0000.0001) // =======================================================
(PID.TID 0000.0001) 
(PID.TID 0000.0001) // =======================================================
(PID.TID 0000.0001) // Field hFacS at iteration          1
(PID.TID 0000.0001) // CMIN =          1.000000000000000E+00
(PID.TID 0000.0001) // CMAX =          1.000000000000000E+00
(PID.TID 0000.0001) // CINT =          0.000000000000000E+00
(PID.TID 0000.0001) // SYMBOLS (CMIN->CMAX): -abcdefghijklmnopqrstuvwxyz+
(PID.TID 0000.0001) //                  0.0: .
(PID.TID 0000.0001) // RANGE I (Lo:Hi:Step):(  -2:   6:   1)
(PID.TID 0000.0001) // RANGE J (Lo:Hi:Step):(   4:  -2:  -1)
(PID.TID 0000.0001) // RANGE K (Lo:Hi:Step):(   1:   1:   1)
(PID.TID 0000.0001) // =======================================================
(PID.TID 0000.0001) // =======================================================
(PID.TID 0000.0001) // END OF FIELD                                          =
(PID.TID 0000.0001) // =======================================================
(PID.TID 0000.0001) 
(PID.TID 0000.0001) 
(PID.TID 0000.0001) // ===================================
(PID.TID 0000.0001) // GAD parameters :
(PID.TID 0000.0001) // ===================================
(PID.TID 0000.0001) tempAdvScheme =   /* Temp. Horiz.Advection scheme selector */
(PID.TID 0000.0001)                      33
(PID.TID 0000.0001)     ;
(PID.TID 0000.0001) tempVertAdvScheme =   /* Temp. Vert. Advection scheme selector */
(PID.TID 0000.0001)                      33
(PID.TID 0000.0001)     ;
(PID.TID 0000.0001) tempMultiDimAdvec =   /* use Muti-Dim Advec method for Temp */
(PID.TID 0000.0001)                   F
(PID.TID 0000.0001)     ;
(PID.TID 0000.0001) tempSOM_Advection = /* use 2nd Order Moment Advection for Temp */
(PID.TID 0000.0001)                   F
(PID.TID 0000.0001)     ;
(PID.TID 0000.0001) AdamsBashforthGt = /* apply Adams-Bashforth extrapolation on Gt */
(PID.TID 0000.0001)                   F
(PID.TID 0000.0001)     ;
(PID.TID 0000.0001) AdamsBashforth_T = /* apply Adams-Bashforth extrapolation on Temp */
(PID.TID 0000.0001)                   F
(PID.TID 0000.0001)     ;
(PID.TID 0000.0001) saltAdvScheme =   /* Salt. Horiz.advection scheme selector */
(PID.TID 0000.0001)                       2
(PID.TID 0000.0001)     ;
(PID.TID 0000.0001) saltVertAdvScheme =   /* Salt. Vert. Advection scheme selector */
(PID.TID 0000.0001)                       2
(PID.TID 0000.0001)     ;
(PID.TID 0000.0001) saltMultiDimAdvec =   /* use Muti-Dim Advec method for Salt */
(PID.TID 0000.0001)                   F
(PID.TID 0000.0001)     ;
(PID.TID 0000.0001) saltSOM_Advection = /* use 2nd Order Moment Advection for Salt */
(PID.TID 0000.0001)                   F
(PID.TID 0000.0001)     ;
(PID.TID 0000.0001) AdamsBashforthGs = /* apply Adams-Bashforth extrapolation on Gs */
(PID.TID 0000.0001)                   T
(PID.TID 0000.0001)     ;
(PID.TID 0000.0001) AdamsBashforth_S = /* apply Adams-Bashforth extrapolation on Salt */
(PID.TID 0000.0001)                   F
(PID.TID 0000.0001)     ;
(PID.TID 0000.0001) // ===================================
(PID.TID 0000.0001) %MON fCori_max                    =   1.4000000000000E-04
(PID.TID 0000.0001) %MON fCori_min                    =   1.4000000000000E-04
(PID.TID 0000.0001) %MON fCori_mean                   =   1.4000000000000E-04
(PID.TID 0000.0001) %MON fCori_sd                     =   0.0000000000000E+00
(PID.TID 0000.0001) %MON fCoriG_max                   =   1.4000000000000E-04
(PID.TID 0000.0001) %MON fCoriG_min                   =   1.4000000000000E-04
(PID.TID 0000.0001) %MON fCoriG_mean                  =   1.4000000000000E-04
(PID.TID 0000.0001) %MON fCoriG_sd                    =   0.0000000000000E+00
(PID.TID 0000.0001) %MON fCoriCos_max                 =   0.0000000000000E+00
(PID.TID 0000.0001) %MON fCoriCos_min                 =   0.0000000000000E+00
(PID.TID 0000.0001) %MON fCoriCos_mean                =   0.0000000000000E+00
(PID.TID 0000.0001) %MON fCoriCos_sd                  =   0.0000000000000E+00
(PID.TID 0000.0001) INI_CG2D: CG2D normalisation factor =  1.0000000000000000E-03
(PID.TID 0000.0001) 
(PID.TID 0000.0001) // =======================================================
(PID.TID 0000.0001) // Model configuration
(PID.TID 0000.0001) // =======================================================
(PID.TID 0000.0001) //
(PID.TID 0000.0001) // "Physical" paramters ( PARM01 in namelist )
(PID.TID 0000.0001) //
(PID.TID 0000.0001) buoyancyRelation = /* Type of relation to get Buoyancy */
(PID.TID 0000.0001)               'OCEANIC'
(PID.TID 0000.0001)     ;
(PID.TID 0000.0001) fluidIsAir  =  /* fluid major constituent is Air */
(PID.TID 0000.0001)                   F
(PID.TID 0000.0001)     ;
(PID.TID 0000.0001) fluidIsWater=  /* fluid major constituent is Water */
(PID.TID 0000.0001)                   T
(PID.TID 0000.0001)     ;
(PID.TID 0000.0001) usingPCoords =  /* use p (or p*) vertical coordinate */
(PID.TID 0000.0001)                   F
(PID.TID 0000.0001)     ;
(PID.TID 0000.0001) usingZCoords =  /* use z (or z*) vertical coordinate */
(PID.TID 0000.0001)                   T
(PID.TID 0000.0001)     ;
(PID.TID 0000.0001) tRef =   /* Reference temperature profile ( oC or K ) */
(PID.TID 0000.0001)    20 @  1.000000000000000E+00              /* K =  1: 20 */
(PID.TID 0000.0001)     ;
(PID.TID 0000.0001) sRef =   /* Reference salinity profile ( psu ) */
(PID.TID 0000.0001)    20 @  3.500000000000000E+01              /* K =  1: 20 */
(PID.TID 0000.0001)     ;
(PID.TID 0000.0001) viscAh =   /* Lateral eddy viscosity ( m^2/s ) */
(PID.TID 0000.0001)                 0.000000000000000E+00
(PID.TID 0000.0001)     ;
(PID.TID 0000.0001) viscAhMax =   /* Maximum lateral eddy viscosity ( m^2/s ) */
(PID.TID 0000.0001)                 1.000000000000000E+21
(PID.TID 0000.0001)     ;
(PID.TID 0000.0001) viscAhGrid =   /* Grid dependent lateral eddy viscosity ( non-dim. ) */
(PID.TID 0000.0001)                 0.000000000000000E+00
(PID.TID 0000.0001)     ;
(PID.TID 0000.0001) useFullLeith =   /* Use Full Form of Leith Viscosity on/off flag*/
(PID.TID 0000.0001)                   F
(PID.TID 0000.0001)     ;
(PID.TID 0000.0001) useStrainTensionVisc =   /* Use StrainTension Form of Viscous Operator on/off flag*/
(PID.TID 0000.0001)                   F
(PID.TID 0000.0001)     ;
(PID.TID 0000.0001) useAreaViscLength =   /* Use area for visc length instead of geom. mean*/
(PID.TID 0000.0001)                   F
(PID.TID 0000.0001)     ;
(PID.TID 0000.0001) viscC2leith = /* Leith harmonic visc. factor (on grad(vort),non-dim.) */
(PID.TID 0000.0001)                 0.000000000000000E+00
(PID.TID 0000.0001)     ;
(PID.TID 0000.0001) viscC2leithD = /* Leith harmonic viscosity factor (on grad(div),non-dim.) */
(PID.TID 0000.0001)                 0.000000000000000E+00
(PID.TID 0000.0001)     ;
(PID.TID 0000.0001) viscC2smag =   /* Smagorinsky harmonic viscosity factor (non-dim.) */
(PID.TID 0000.0001)                 0.000000000000000E+00
(PID.TID 0000.0001)     ;
(PID.TID 0000.0001) viscA4 =   /* Lateral biharmonic viscosity ( m^4/s ) */
(PID.TID 0000.0001)                 0.000000000000000E+00
(PID.TID 0000.0001)     ;
(PID.TID 0000.0001) viscA4Max =   /* Maximum biharmonic viscosity ( m^2/s ) */
(PID.TID 0000.0001)                 1.000000000000000E+21
(PID.TID 0000.0001)     ;
(PID.TID 0000.0001) viscA4Grid =   /* Grid dependent biharmonic viscosity ( non-dim. ) */
(PID.TID 0000.0001)                 0.000000000000000E+00
(PID.TID 0000.0001)     ;
(PID.TID 0000.0001) viscC4leith = /* Leith biharm viscosity factor (on grad(vort), non-dim.) */
(PID.TID 0000.0001)                 0.000000000000000E+00
(PID.TID 0000.0001)     ;
(PID.TID 0000.0001) viscC4leithD = /* Leith biharm viscosity factor (on grad(div), non-dim.) */
(PID.TID 0000.0001)                 0.000000000000000E+00
(PID.TID 0000.0001)     ;
(PID.TID 0000.0001) viscC4Smag = /* Smagorinsky biharm viscosity factor (non-dim) */
(PID.TID 0000.0001)                 0.000000000000000E+00
(PID.TID 0000.0001)     ;
(PID.TID 0000.0001) no_slip_sides =  /* Viscous BCs: No-slip sides */
(PID.TID 0000.0001)                   T
(PID.TID 0000.0001)     ;
(PID.TID 0000.0001) sideDragFactor = /* side-drag scaling factor (non-dim) */
(PID.TID 0000.0001)                 2.000000000000000E+00
(PID.TID 0000.0001)     ;
(PID.TID 0000.0001) viscAr =   /* Vertical eddy viscosity ( m^2/s ) */
(PID.TID 0000.0001)                 1.000000000000000E-04
(PID.TID 0000.0001)     ;
(PID.TID 0000.0001) no_slip_bottom =  /* Viscous BCs: No-slip bottom */
(PID.TID 0000.0001)                   T
(PID.TID 0000.0001)     ;
(PID.TID 0000.0001) bottomDragLinear = /* linear bottom-drag coefficient ( m/s ) */
(PID.TID 0000.0001)                 0.000000000000000E+00
(PID.TID 0000.0001)     ;
(PID.TID 0000.0001) bottomDragQuadratic = /* quadratic bottom-drag coeff. ( m/m ) */
(PID.TID 0000.0001)                 0.000000000000000E+00
(PID.TID 0000.0001)     ;
(PID.TID 0000.0001) diffKhT =   /* Laplacian diffusion of heat laterally ( m^2/s ) */
(PID.TID 0000.0001)                 0.000000000000000E+00
(PID.TID 0000.0001)     ;
(PID.TID 0000.0001) diffK4T =   /* Biharmonic diffusion of heat laterally ( m^4/s ) */
(PID.TID 0000.0001)                 0.000000000000000E+00
(PID.TID 0000.0001)     ;
(PID.TID 0000.0001) diffKhS =   /* Laplacian diffusion of salt laterally ( m^2/s ) */
(PID.TID 0000.0001)                 0.000000000000000E+00
(PID.TID 0000.0001)     ;
(PID.TID 0000.0001) diffK4S =   /* Biharmonic diffusion of salt laterally ( m^4/s ) */
(PID.TID 0000.0001)                 0.000000000000000E+00
(PID.TID 0000.0001)     ;
(PID.TID 0000.0001) diffKrNrT = /* vertical profile of vertical diffusion of Temp ( m^2/s )*/
(PID.TID 0000.0001)    20 @  1.000000000000000E-05              /* K =  1: 20 */
(PID.TID 0000.0001)     ;
(PID.TID 0000.0001) diffKrNrS = /* vertical profile of vertical diffusion of Salt ( m^2/s )*/
(PID.TID 0000.0001)    20 @  1.000000000000000E-05              /* K =  1: 20 */
(PID.TID 0000.0001)     ;
(PID.TID 0000.0001) diffKrBL79surf = /* Surface diffusion for Bryan and Lewis 79 ( m^2/s ) */
(PID.TID 0000.0001)                 0.000000000000000E+00
(PID.TID 0000.0001)     ;
(PID.TID 0000.0001) diffKrBL79deep = /* Deep diffusion for Bryan and Lewis 1979 ( m^2/s ) */
(PID.TID 0000.0001)                 0.000000000000000E+00
(PID.TID 0000.0001)     ;
(PID.TID 0000.0001) diffKrBL79scl = /* Depth scale for Bryan and Lewis 1979 ( m ) */
(PID.TID 0000.0001)                 2.000000000000000E+02
(PID.TID 0000.0001)     ;
(PID.TID 0000.0001) diffKrBL79Ho = /* Turning depth for Bryan and Lewis 1979 ( m ) */
(PID.TID 0000.0001)                -2.000000000000000E+03
(PID.TID 0000.0001)     ;
(PID.TID 0000.0001) ivdc_kappa = /* Implicit Vertical Diffusivity for Convection ( m^2/s ) */
(PID.TID 0000.0001)                 0.000000000000000E+00
(PID.TID 0000.0001)     ;
(PID.TID 0000.0001) hMixCriteria=  /* Criteria for mixed-layer diagnostic */
(PID.TID 0000.0001)                -8.000000000000000E-01
(PID.TID 0000.0001)     ;
(PID.TID 0000.0001) eosType =  /* Type of Equation of State */
(PID.TID 0000.0001)               'MDJWF '
(PID.TID 0000.0001)     ;
(PID.TID 0000.0001) tAlpha =   /* Linear EOS thermal expansion coefficient ( 1/oC ) */
(PID.TID 0000.0001)                 2.000000000000000E-04
(PID.TID 0000.0001)     ;
(PID.TID 0000.0001) sBeta =   /* Linear EOS haline contraction coefficient ( 1/psu ) */
(PID.TID 0000.0001)                 0.000000000000000E+00
(PID.TID 0000.0001)     ;
(PID.TID 0000.0001) rhonil =   /* Reference density ( kg/m^3 ) */
(PID.TID 0000.0001)                 9.998000000000000E+02
(PID.TID 0000.0001)     ;
(PID.TID 0000.0001) rhoConst =   /* Reference density ( kg/m^3 ) */
(PID.TID 0000.0001)                 9.998000000000000E+02
(PID.TID 0000.0001)     ;
(PID.TID 0000.0001) rhoFacC = /* normalized Reference density @ cell-Center (-) */
(PID.TID 0000.0001)    20 @  1.000000000000000E+00              /* K =  1: 20 */
(PID.TID 0000.0001)     ;
(PID.TID 0000.0001) rhoFacF = /* normalized Reference density @ W-Interface (-) */
(PID.TID 0000.0001)    21 @  1.000000000000000E+00              /* K =  1: 21 */
(PID.TID 0000.0001)     ;
(PID.TID 0000.0001) rhoConstFresh =   /* Reference density ( kg/m^3 ) */
(PID.TID 0000.0001)                 9.998000000000000E+02
(PID.TID 0000.0001)     ;
(PID.TID 0000.0001) gravity =   /* Gravitational acceleration ( m/s^2 ) */
(PID.TID 0000.0001)                 9.810000000000000E+00
(PID.TID 0000.0001)     ;
(PID.TID 0000.0001) gBaro =   /* Barotropic gravity ( m/s^2 ) */
(PID.TID 0000.0001)                 9.810000000000000E+00
(PID.TID 0000.0001)     ;
(PID.TID 0000.0001) rotationPeriod =   /* Rotation Period ( s ) */
(PID.TID 0000.0001)                 8.616400000000000E+04
(PID.TID 0000.0001)     ;
(PID.TID 0000.0001) omega =   /* Angular velocity ( rad/s ) */
(PID.TID 0000.0001)                 7.292123516990375E-05
(PID.TID 0000.0001)     ;
(PID.TID 0000.0001) f0 =   /* Reference coriolis parameter ( 1/s ) */
(PID.TID 0000.0001)                 1.400000000000000E-04
(PID.TID 0000.0001)     ;
(PID.TID 0000.0001) beta =   /* Beta ( 1/(m.s) ) */
(PID.TID 0000.0001)                 0.000000000000000E+00
(PID.TID 0000.0001)     ;
(PID.TID 0000.0001) freeSurfFac =   /* Implicit free surface factor */
(PID.TID 0000.0001)                 1.000000000000000E+00
(PID.TID 0000.0001)     ;
(PID.TID 0000.0001) implicitFreeSurface =   /* Implicit free surface on/off flag */
(PID.TID 0000.0001)                   T
(PID.TID 0000.0001)     ;
(PID.TID 0000.0001) rigidLid =   /* Rigid lid on/off flag */
(PID.TID 0000.0001)                   F
(PID.TID 0000.0001)     ;
(PID.TID 0000.0001) implicSurfPress =   /* Surface Pressure implicit factor (0-1)*/
(PID.TID 0000.0001)                 1.000000000000000E+00
(PID.TID 0000.0001)     ;
(PID.TID 0000.0001) implicDiv2Dflow =   /* Barot. Flow Div. implicit factor (0-1)*/
(PID.TID 0000.0001)                 1.000000000000000E+00
(PID.TID 0000.0001)     ;
(PID.TID 0000.0001) exactConserv =   /* Exact Volume Conservation on/off flag*/
(PID.TID 0000.0001)                   F
(PID.TID 0000.0001)     ;
(PID.TID 0000.0001) linFSConserveTr =   /* Tracer correction for Lin Free Surface on/off flag*/
(PID.TID 0000.0001)                   F
(PID.TID 0000.0001)     ;
(PID.TID 0000.0001) uniformLin_PhiSurf =   /* use uniform Bo_surf on/off flag*/
(PID.TID 0000.0001)                   T
(PID.TID 0000.0001)     ;
(PID.TID 0000.0001) nonlinFreeSurf =   /* Non-linear Free Surf. options (-1,0,1,2,3)*/
(PID.TID 0000.0001)                       0
(PID.TID 0000.0001)     ;
(PID.TID 0000.0001)      -1,0= Off ; 1,2,3= On, 2=+rescale gU,gV, 3=+update cg2d solv.
(PID.TID 0000.0001) hFacInf =   /* lower threshold for hFac (nonlinFreeSurf only)*/
(PID.TID 0000.0001)                 2.000000000000000E-01
(PID.TID 0000.0001)     ;
(PID.TID 0000.0001) hFacSup =   /* upper threshold for hFac (nonlinFreeSurf only)*/
(PID.TID 0000.0001)                 2.000000000000000E+00
(PID.TID 0000.0001)     ;
(PID.TID 0000.0001) select_rStar = /* r* Vertical coord. options (=0 r coord.; > 0 uses r*) */
(PID.TID 0000.0001)                       0
(PID.TID 0000.0001)     ;
(PID.TID 0000.0001) selectAddFluid = /* option for mass source/sink of fluid (=0: off) */
(PID.TID 0000.0001)                       0
(PID.TID 0000.0001)     ;
(PID.TID 0000.0001) useRealFreshWaterFlux = /* Real Fresh Water Flux on/off flag*/
(PID.TID 0000.0001)                   F
(PID.TID 0000.0001)     ;
(PID.TID 0000.0001) temp_EvPrRn = /* Temp. of Evap/Prec/R (UNSET=use local T)(oC)*/
(PID.TID 0000.0001)                 1.234567000000000E+05
(PID.TID 0000.0001)     ;
(PID.TID 0000.0001) salt_EvPrRn = /* Salin. of Evap/Prec/R (UNSET=use local S)(ppt)*/
(PID.TID 0000.0001)                 0.000000000000000E+00
(PID.TID 0000.0001)     ;
(PID.TID 0000.0001) convertFW2Salt = /* convert F.W. Flux to Salt Flux (-1=use local S)(ppt)*/
(PID.TID 0000.0001)                 3.500000000000000E+01
(PID.TID 0000.0001)     ;
(PID.TID 0000.0001) use3Dsolver = /* use 3-D pressure solver on/off flag */
(PID.TID 0000.0001)                   F
(PID.TID 0000.0001)     ;
(PID.TID 0000.0001) nonHydrostatic =  /* Non-Hydrostatic on/off flag */
(PID.TID 0000.0001)                   F
(PID.TID 0000.0001)     ;
(PID.TID 0000.0001) nh_Am2 = /* Non-Hydrostatic terms scaling factor */
(PID.TID 0000.0001)                 1.000000000000000E+00
(PID.TID 0000.0001)     ;
(PID.TID 0000.0001) quasiHydrostatic = /* Quasi-Hydrostatic on/off flag */
(PID.TID 0000.0001)                   F
(PID.TID 0000.0001)     ;
(PID.TID 0000.0001) momStepping =  /* Momentum equation on/off flag */
(PID.TID 0000.0001)                   T
(PID.TID 0000.0001)     ;
(PID.TID 0000.0001) vectorInvariantMomentum= /* Vector-Invariant Momentum on/off */
(PID.TID 0000.0001)                   F
(PID.TID 0000.0001)     ;
(PID.TID 0000.0001) momAdvection =  /* Momentum advection on/off flag */
(PID.TID 0000.0001)                   T
(PID.TID 0000.0001)     ;
(PID.TID 0000.0001) momViscosity =  /* Momentum viscosity on/off flag */
(PID.TID 0000.0001)                   T
(PID.TID 0000.0001)     ;
(PID.TID 0000.0001) momImplVertAdv =/* Momentum implicit vert. advection on/off*/
(PID.TID 0000.0001)                   F
(PID.TID 0000.0001)     ;
(PID.TID 0000.0001) implicitViscosity = /* Implicit viscosity on/off flag */
(PID.TID 0000.0001)                   T
(PID.TID 0000.0001)     ;
(PID.TID 0000.0001) metricTerms =  /* metric-Terms on/off flag */
(PID.TID 0000.0001)                   F
(PID.TID 0000.0001)     ;
(PID.TID 0000.0001) useNHMTerms = /* Non-Hydrostatic Metric-Terms on/off */
(PID.TID 0000.0001)                   F
(PID.TID 0000.0001)     ;
(PID.TID 0000.0001) useConstantF =  /* use Constant f0 Coriolis flag */
(PID.TID 0000.0001)                   F
(PID.TID 0000.0001)     ;
(PID.TID 0000.0001) useBetaPlaneF = /* use Beta-Plane Coriolis flag */
(PID.TID 0000.0001)                   T
(PID.TID 0000.0001)     ;
(PID.TID 0000.0001) useSphereF  =   /* use Spherical Coriolis flag */
(PID.TID 0000.0001)                   F
(PID.TID 0000.0001)     ;
(PID.TID 0000.0001) use3dCoriolis = /* 3-D Coriolis on/off flag */
(PID.TID 0000.0001)                   F
(PID.TID 0000.0001)     ;
(PID.TID 0000.0001) useCoriolis =  /* Coriolis on/off flag */
(PID.TID 0000.0001)                   T
(PID.TID 0000.0001)     ;
(PID.TID 0000.0001) useCDscheme =  /* CD scheme on/off flag */
(PID.TID 0000.0001)                   F
(PID.TID 0000.0001)     ;
(PID.TID 0000.0001) useJamartWetPoints= /* Coriolis WetPoints method flag */
(PID.TID 0000.0001)                   F
(PID.TID 0000.0001)     ;
(PID.TID 0000.0001) useJamartMomAdv= /* V.I. Non-linear terms Jamart flag */
(PID.TID 0000.0001)                   F
(PID.TID 0000.0001)     ;
(PID.TID 0000.0001) useAbsVorticity= /* Work with f+zeta in Coriolis */
(PID.TID 0000.0001)                   F
(PID.TID 0000.0001)     ;
(PID.TID 0000.0001) selectVortScheme= /* Scheme selector for Vorticity-Term */
(PID.TID 0000.0001)               123456789
(PID.TID 0000.0001)    = 0 : enstrophy (Shallow-Water Eq.) conserving scheme by Sadourny, JAS 75
(PID.TID 0000.0001)    = 1 : same as 0 with modified hFac
(PID.TID 0000.0001)    = 2 : energy conserving scheme (used by Sadourny in JAS 75 paper)
(PID.TID 0000.0001)    = 3 : energy (general) and enstrophy (2D, nonDiv.) conserving scheme
(PID.TID 0000.0001)          from Sadourny (Burridge & Haseler, ECMWF Rep.4, 1977)
(PID.TID 0000.0001)     ;
(PID.TID 0000.0001) upwindVorticity= /* Upwind bias vorticity flag */
(PID.TID 0000.0001)                   F
(PID.TID 0000.0001)     ;
(PID.TID 0000.0001) highOrderVorticity= /* High order interp. of vort. flag */
(PID.TID 0000.0001)                   F
(PID.TID 0000.0001)     ;
(PID.TID 0000.0001) upwindShear= /* Upwind vertical Shear advection flag */
(PID.TID 0000.0001)                   F
(PID.TID 0000.0001)     ;
(PID.TID 0000.0001) selectKEscheme= /* Kinetic Energy scheme selector */
(PID.TID 0000.0001)                       0
(PID.TID 0000.0001)     ;
(PID.TID 0000.0001) momForcing =  /* Momentum forcing on/off flag */
(PID.TID 0000.0001)                   T
(PID.TID 0000.0001)     ;
(PID.TID 0000.0001) momPressureForcing =  /* Momentum pressure term on/off flag */
(PID.TID 0000.0001)                   T
(PID.TID 0000.0001)     ;
(PID.TID 0000.0001) implicitIntGravWave= /* Implicit Internal Gravity Wave flag */
(PID.TID 0000.0001)                   F
(PID.TID 0000.0001)     ;
(PID.TID 0000.0001) staggerTimeStep =   /* Stagger time stepping on/off flag */
(PID.TID 0000.0001)                   F
(PID.TID 0000.0001)     ;
(PID.TID 0000.0001) multiDimAdvection =   /* enable/disable Multi-Dim Advection */
(PID.TID 0000.0001)                   T
(PID.TID 0000.0001)     ;
(PID.TID 0000.0001) useMultiDimAdvec =   /* Multi-Dim Advection is/is-not used */
(PID.TID 0000.0001)                   F
(PID.TID 0000.0001)     ;
(PID.TID 0000.0001) implicitDiffusion =/* Implicit Diffusion on/off flag */
(PID.TID 0000.0001)                   T
(PID.TID 0000.0001)     ;
(PID.TID 0000.0001) tempStepping =  /* Temperature equation on/off flag */
(PID.TID 0000.0001)                   T
(PID.TID 0000.0001)     ;
(PID.TID 0000.0001) tempAdvection=  /* Temperature advection on/off flag */
(PID.TID 0000.0001)                   F
(PID.TID 0000.0001)     ;
(PID.TID 0000.0001) tempImplVertAdv =/* Temp. implicit vert. advection on/off */
(PID.TID 0000.0001)                   F
(PID.TID 0000.0001)     ;
(PID.TID 0000.0001) tempForcing  =  /* Temperature forcing on/off flag */
(PID.TID 0000.0001)                   T
(PID.TID 0000.0001)     ;
(PID.TID 0000.0001) tempIsActiveTr = /* Temp. is a dynamically Active Tracer */
(PID.TID 0000.0001)                   F
(PID.TID 0000.0001)     ;
(PID.TID 0000.0001) saltStepping =  /* Salinity equation on/off flag */
(PID.TID 0000.0001)                   T
(PID.TID 0000.0001)     ;
(PID.TID 0000.0001) saltAdvection=  /* Salinity advection on/off flag */
(PID.TID 0000.0001)                   T
(PID.TID 0000.0001)     ;
(PID.TID 0000.0001) saltImplVertAdv =/* Sali. implicit vert. advection on/off */
(PID.TID 0000.0001)                   F
(PID.TID 0000.0001)     ;
(PID.TID 0000.0001) saltForcing  =  /* Salinity forcing on/off flag */
(PID.TID 0000.0001)                   T
(PID.TID 0000.0001)     ;
(PID.TID 0000.0001) saltIsActiveTr = /* Salt  is a dynamically Active Tracer */
(PID.TID 0000.0001)                   T
(PID.TID 0000.0001)     ;
(PID.TID 0000.0001)  readBinaryPrec = /* Precision used for reading binary files */
(PID.TID 0000.0001)                      64
(PID.TID 0000.0001)     ;
(PID.TID 0000.0001) writeBinaryPrec = /* Precision used for writing binary files */
(PID.TID 0000.0001)                      32
(PID.TID 0000.0001)     ;
(PID.TID 0000.0001)  globalFiles = /* write "global" (=not per tile) files */
(PID.TID 0000.0001)                   F
(PID.TID 0000.0001)     ;
(PID.TID 0000.0001)  useSingleCpuIO = /* only master MPI process does I/O */
(PID.TID 0000.0001)                   F
(PID.TID 0000.0001)     ;
(PID.TID 0000.0001)  debugMode  =  /* Debug Mode on/off flag */
(PID.TID 0000.0001)                   F
(PID.TID 0000.0001)     ;
(PID.TID 0000.0001)    debLevA  =  /* 1rst level of debugging */
(PID.TID 0000.0001)                       1
(PID.TID 0000.0001)     ;
(PID.TID 0000.0001)    debLevB  =  /* 2nd  level of debugging */
(PID.TID 0000.0001)                       2
(PID.TID 0000.0001)     ;
(PID.TID 0000.0001)  debugLevel =  /* select debugging level */
(PID.TID 0000.0001)                       1
(PID.TID 0000.0001)     ;
(PID.TID 0000.0001) //
(PID.TID 0000.0001) // Elliptic solver(s) paramters ( PARM02 in namelist )
(PID.TID 0000.0001) //
(PID.TID 0000.0001) cg2dMaxIters =   /* Upper limit on 2d con. grad iterations  */
(PID.TID 0000.0001)                     300
(PID.TID 0000.0001)     ;
(PID.TID 0000.0001) cg2dChkResFreq =   /* 2d con. grad convergence test frequency */
(PID.TID 0000.0001)                       1
(PID.TID 0000.0001)     ;
(PID.TID 0000.0001) cg2dTargetResidual =   /* 2d con. grad target residual  */
(PID.TID 0000.0001)                 1.000000000000000E-13
(PID.TID 0000.0001)     ;
(PID.TID 0000.0001) cg2dTargetResWunit =   /* CG2d target residual [W units] */
(PID.TID 0000.0001)                -1.000000000000000E+00
(PID.TID 0000.0001)     ;
(PID.TID 0000.0001) cg2dPreCondFreq =   /* Freq. for updating cg2d preconditioner */
(PID.TID 0000.0001)                       1
(PID.TID 0000.0001)     ;
(PID.TID 0000.0001) //
(PID.TID 0000.0001) // Time stepping paramters ( PARM03 in namelist )
(PID.TID 0000.0001) //
(PID.TID 0000.0001) deltaTmom =   /* Momentum equation timestep ( s ) */
(PID.TID 0000.0001)                 1.200000000000000E+03
(PID.TID 0000.0001)     ;
(PID.TID 0000.0001) deltaTfreesurf =   /* FreeSurface equation timestep ( s ) */
(PID.TID 0000.0001)                 1.200000000000000E+03
(PID.TID 0000.0001)     ;
(PID.TID 0000.0001) dTtracerLev =   /* Tracer equation timestep ( s ) */
(PID.TID 0000.0001)    20 @  1.200000000000000E+03              /* K =  1: 20 */
(PID.TID 0000.0001)     ;
(PID.TID 0000.0001) deltaTClock  =   /* Model clock timestep ( s ) */
(PID.TID 0000.0001)                 1.200000000000000E+03
(PID.TID 0000.0001)     ;
(PID.TID 0000.0001) cAdjFreq =   /* Convective adjustment interval ( s ) */
(PID.TID 0000.0001)                 0.000000000000000E+00
(PID.TID 0000.0001)     ;
(PID.TID 0000.0001) momForcingOutAB = /* =1: take Momentum Forcing out of Adams-Bash. stepping */
(PID.TID 0000.0001)                       0
(PID.TID 0000.0001)     ;
(PID.TID 0000.0001) tracForcingOutAB = /* =1: take T,S,pTr Forcing out of Adams-Bash. stepping */
(PID.TID 0000.0001)                       0
(PID.TID 0000.0001)     ;
(PID.TID 0000.0001) momDissip_In_AB = /* put Dissipation Tendency in Adams-Bash. stepping */
(PID.TID 0000.0001)                   T
(PID.TID 0000.0001)     ;
(PID.TID 0000.0001) doAB_onGtGs = /* apply AB on Tendencies (rather than on T,S)*/
(PID.TID 0000.0001)                   T
(PID.TID 0000.0001)     ;
(PID.TID 0000.0001) abEps =   /* Adams-Bashforth-2 stabilizing weight */
(PID.TID 0000.0001)                 1.000000000000000E-02
(PID.TID 0000.0001)     ;
(PID.TID 0000.0001) pickupStrictlyMatch= /* stop if pickup do not strictly match */
(PID.TID 0000.0001)                   T
(PID.TID 0000.0001)     ;
(PID.TID 0000.0001) nIter0 =   /* Run starting timestep number  */
(PID.TID 0000.0001)                       0
(PID.TID 0000.0001)     ;
(PID.TID 0000.0001) nTimeSteps =   /* Number of timesteps */
(PID.TID 0000.0001)                      20
(PID.TID 0000.0001)     ;
(PID.TID 0000.0001) baseTime =   /* Model base time ( s ). */
(PID.TID 0000.0001)                 0.000000000000000E+00
(PID.TID 0000.0001)     ;
(PID.TID 0000.0001) startTime =   /* Run start time ( s ). */
(PID.TID 0000.0001)                 0.000000000000000E+00
(PID.TID 0000.0001)     ;
(PID.TID 0000.0001) endTime =   /* Integration ending time ( s ). */
(PID.TID 0000.0001)                 2.400000000000000E+04
(PID.TID 0000.0001)     ;
(PID.TID 0000.0001) pChkPtFreq =   /* Permanent restart/checkpoint file interval ( s ). */
(PID.TID 0000.0001)                 0.000000000000000E+00
(PID.TID 0000.0001)     ;
(PID.TID 0000.0001) chkPtFreq =   /* Rolling restart/checkpoint file interval ( s ). */
(PID.TID 0000.0001)                 0.000000000000000E+00
(PID.TID 0000.0001)     ;
(PID.TID 0000.0001) pickup_write_mdsio =   /* Model IO flag. */
(PID.TID 0000.0001)                   T
(PID.TID 0000.0001)     ;
(PID.TID 0000.0001) pickup_read_mdsio =   /* Model IO flag. */
(PID.TID 0000.0001)                   T
(PID.TID 0000.0001)     ;
(PID.TID 0000.0001) pickup_write_immed =   /* Model IO flag. */
(PID.TID 0000.0001)                   F
(PID.TID 0000.0001)     ;
(PID.TID 0000.0001) writePickupAtEnd =   /* Model IO flag. */
(PID.TID 0000.0001)                   T
(PID.TID 0000.0001)     ;
(PID.TID 0000.0001) dumpFreq =   /* Model state write out interval ( s ). */
(PID.TID 0000.0001)                 8.640000000000000E+04
(PID.TID 0000.0001)     ;
(PID.TID 0000.0001) dumpInitAndLast= /* write out Initial & Last iter. model state */
(PID.TID 0000.0001)                   T
(PID.TID 0000.0001)     ;
(PID.TID 0000.0001) snapshot_mdsio =   /* Model IO flag. */
(PID.TID 0000.0001)                   T
(PID.TID 0000.0001)     ;
(PID.TID 0000.0001) monitorFreq =   /* Monitor output interval ( s ). */
(PID.TID 0000.0001)                 1.000000000000000E+00
(PID.TID 0000.0001)     ;
(PID.TID 0000.0001) monitorSelect = /* select group of variables to monitor */
(PID.TID 0000.0001)                       3
(PID.TID 0000.0001)     ;
(PID.TID 0000.0001) monitor_stdio =   /* Model IO flag. */
(PID.TID 0000.0001)                   T
(PID.TID 0000.0001)     ;
(PID.TID 0000.0001) externForcingPeriod =   /* forcing period (s) */
(PID.TID 0000.0001)                 0.000000000000000E+00
(PID.TID 0000.0001)     ;
(PID.TID 0000.0001) externForcingCycle =   /* period of the cyle (s). */
(PID.TID 0000.0001)                 0.000000000000000E+00
(PID.TID 0000.0001)     ;
(PID.TID 0000.0001) tauThetaClimRelax =   /* relaxation time scale (s) */
(PID.TID 0000.0001)                 0.000000000000000E+00
(PID.TID 0000.0001)     ;
(PID.TID 0000.0001) tauSaltClimRelax =   /* relaxation time scale (s) */
(PID.TID 0000.0001)                 0.000000000000000E+00
(PID.TID 0000.0001)     ;
(PID.TID 0000.0001) latBandClimRelax =   /* max. Lat. where relaxation */
(PID.TID 0000.0001)                 1.500000000000000E+04
(PID.TID 0000.0001)     ;
(PID.TID 0000.0001) //
(PID.TID 0000.0001) // Gridding paramters ( PARM04 in namelist )
(PID.TID 0000.0001) //
(PID.TID 0000.0001) usingCartesianGrid = /* Cartesian coordinates flag ( True/False ) */
(PID.TID 0000.0001)                   T
(PID.TID 0000.0001)     ;
(PID.TID 0000.0001) usingCylindricalGrid = /* Cylindrical coordinates flag ( True/False ) */
(PID.TID 0000.0001)                   F
(PID.TID 0000.0001)     ;
(PID.TID 0000.0001) usingSphericalPolarGrid = /* Spherical coordinates flag ( True/False ) */
(PID.TID 0000.0001)                   F
(PID.TID 0000.0001)     ;
(PID.TID 0000.0001) usingCurvilinearGrid = /* Curvilinear coordinates flag ( True/False ) */
(PID.TID 0000.0001)                   F
(PID.TID 0000.0001)     ;
(PID.TID 0000.0001) Ro_SeaLevel = /* r(1) ( units of r ==  m ) */
(PID.TID 0000.0001)                 0.000000000000000E+00
(PID.TID 0000.0001)     ;
(PID.TID 0000.0001) rkSign =   /* index orientation relative to vertical coordinate */
(PID.TID 0000.0001)                -1.000000000000000E+00
(PID.TID 0000.0001)     ;
(PID.TID 0000.0001) gravitySign = /* gravity orientation relative to vertical coordinate */
(PID.TID 0000.0001)                -1.000000000000000E+00
(PID.TID 0000.0001)     ;
(PID.TID 0000.0001) mass2rUnit = /* convert mass per unit area [kg/m2] to r-units [m] */
(PID.TID 0000.0001)                 1.000200040008002E-03
(PID.TID 0000.0001)     ;
(PID.TID 0000.0001) rUnit2mass = /* convert r-units [m] to mass per unit area [kg/m2] */
(PID.TID 0000.0001)                 9.998000000000000E+02
(PID.TID 0000.0001)     ;
(PID.TID 0000.0001) drC =   /* C spacing ( units of r ) */
(PID.TID 0000.0001)                 2.500000000000000E+01,      /* K =  1 */
(PID.TID 0000.0001)    19 @  5.000000000000000E+01              /* K =  2: 20 */
(PID.TID 0000.0001)     ;
(PID.TID 0000.0001) drF =   /* W spacing ( units of r ) */
(PID.TID 0000.0001)    20 @  5.000000000000000E+01              /* K =  1: 20 */
(PID.TID 0000.0001)     ;
(PID.TID 0000.0001) delX =   /* U spacing ( m - cartesian, degrees - spherical ) */
(PID.TID 0000.0001)     3 @  5.000000000000000E+03              /* I =  1:  3 */
(PID.TID 0000.0001)     ;
(PID.TID 0000.0001) delY =   /* V spacing ( m - cartesian, degrees - spherical ) */
(PID.TID 0000.0001)                 5.000000000000000E+03       /* J =  1 */
(PID.TID 0000.0001)     ;
(PID.TID 0000.0001) phiMin =    /* South edge (ignored - cartesian, degrees - spherical ) */
(PID.TID 0000.0001)                 0.000000000000000E+00
(PID.TID 0000.0001)     ;
(PID.TID 0000.0001) thetaMin =    /* West edge ( ignored - cartesian, degrees - spherical ) */
(PID.TID 0000.0001)                 0.000000000000000E+00
(PID.TID 0000.0001)     ;
(PID.TID 0000.0001) rSphere =  /* Radius ( ignored - cartesian, m - spherical ) */
(PID.TID 0000.0001)                 6.370000000000000E+06
(PID.TID 0000.0001)     ;
(PID.TID 0000.0001) deepAtmosphere = /* Deep/Shallow Atmosphere flag (True/False) */
(PID.TID 0000.0001)                   F
(PID.TID 0000.0001)     ;
(PID.TID 0000.0001) xcoord =   /* P-point X coord ( m - cartesian, degrees - spherical ) */
(PID.TID 0000.0001)                 2.500000000000000E+03,      /* I =  1 */
(PID.TID 0000.0001)                 7.500000000000000E+03,      /* I =  2 */
(PID.TID 0000.0001)                 1.250000000000000E+04       /* I =  3 */
(PID.TID 0000.0001)     ;
(PID.TID 0000.0001) ycoord =   /* P-point Y coord ( m - cartesian, degrees - spherical ) */
(PID.TID 0000.0001)                 2.500000000000000E+03       /* J =  1 */
(PID.TID 0000.0001)     ;
(PID.TID 0000.0001) rcoord =   /* P-point R coordinate (  units of r ) */
(PID.TID 0000.0001)                -2.500000000000000E+01,      /* K =  1 */
(PID.TID 0000.0001)                -7.500000000000000E+01,      /* K =  2 */
(PID.TID 0000.0001)                -1.250000000000000E+02,      /* K =  3 */
(PID.TID 0000.0001)                -1.750000000000000E+02,      /* K =  4 */
(PID.TID 0000.0001)                -2.250000000000000E+02,      /* K =  5 */
(PID.TID 0000.0001)                -2.750000000000000E+02,      /* K =  6 */
(PID.TID 0000.0001)                -3.250000000000000E+02,      /* K =  7 */
(PID.TID 0000.0001)                -3.750000000000000E+02,      /* K =  8 */
(PID.TID 0000.0001)                -4.250000000000000E+02,      /* K =  9 */
(PID.TID 0000.0001)                -4.750000000000000E+02,      /* K = 10 */
(PID.TID 0000.0001)                -5.250000000000000E+02,      /* K = 11 */
(PID.TID 0000.0001)                -5.750000000000000E+02,      /* K = 12 */
(PID.TID 0000.0001)                -6.250000000000000E+02,      /* K = 13 */
(PID.TID 0000.0001)                -6.750000000000000E+02,      /* K = 14 */
(PID.TID 0000.0001)                -7.250000000000000E+02,      /* K = 15 */
(PID.TID 0000.0001)                -7.750000000000000E+02,      /* K = 16 */
(PID.TID 0000.0001)                -8.250000000000000E+02,      /* K = 17 */
(PID.TID 0000.0001)                -8.750000000000000E+02,      /* K = 18 */
(PID.TID 0000.0001)                -9.250000000000000E+02,      /* K = 19 */
(PID.TID 0000.0001)                -9.750000000000000E+02       /* K = 20 */
(PID.TID 0000.0001)     ;
(PID.TID 0000.0001) rF =   /* W-Interf. R coordinate (  units of r ) */
(PID.TID 0000.0001)                 0.000000000000000E+00,      /* K =  1 */
(PID.TID 0000.0001)                -5.000000000000000E+01,      /* K =  2 */
(PID.TID 0000.0001)                -1.000000000000000E+02,      /* K =  3 */
(PID.TID 0000.0001)                -1.500000000000000E+02,      /* K =  4 */
(PID.TID 0000.0001)                -2.000000000000000E+02,      /* K =  5 */
(PID.TID 0000.0001)                -2.500000000000000E+02,      /* K =  6 */
(PID.TID 0000.0001)                -3.000000000000000E+02,      /* K =  7 */
(PID.TID 0000.0001)                -3.500000000000000E+02,      /* K =  8 */
(PID.TID 0000.0001)                -4.000000000000000E+02,      /* K =  9 */
(PID.TID 0000.0001)                -4.500000000000000E+02,      /* K = 10 */
(PID.TID 0000.0001)                -5.000000000000000E+02,      /* K = 11 */
(PID.TID 0000.0001)                -5.500000000000000E+02,      /* K = 12 */
(PID.TID 0000.0001)                -6.000000000000000E+02,      /* K = 13 */
(PID.TID 0000.0001)                -6.500000000000000E+02,      /* K = 14 */
(PID.TID 0000.0001)                -7.000000000000000E+02,      /* K = 15 */
(PID.TID 0000.0001)                -7.500000000000000E+02,      /* K = 16 */
(PID.TID 0000.0001)                -8.000000000000000E+02,      /* K = 17 */
(PID.TID 0000.0001)                -8.500000000000000E+02,      /* K = 18 */
(PID.TID 0000.0001)                -9.000000000000000E+02,      /* K = 19 */
(PID.TID 0000.0001)                -9.500000000000000E+02,      /* K = 20 */
(PID.TID 0000.0001)                -1.000000000000000E+03       /* K = 21 */
(PID.TID 0000.0001)     ;
(PID.TID 0000.0001) deepFacC = /* deep-model grid factor @ cell-Center (-) */
(PID.TID 0000.0001)    20 @  1.000000000000000E+00              /* K =  1: 20 */
(PID.TID 0000.0001)     ;
(PID.TID 0000.0001) deepFacF = /* deep-model grid factor @ W-Interface (-) */
(PID.TID 0000.0001)    21 @  1.000000000000000E+00              /* K =  1: 21 */
(PID.TID 0000.0001)     ;
(PID.TID 0000.0001) rVel2wUnit = /* convert units: rVel -> wSpeed (=1 if z-coord)*/
(PID.TID 0000.0001)    21 @  1.000000000000000E+00              /* K =  1: 21 */
(PID.TID 0000.0001)     ;
(PID.TID 0000.0001) wUnit2rVel = /* convert units: wSpeed -> rVel (=1 if z-coord)*/
(PID.TID 0000.0001)    21 @  1.000000000000000E+00              /* K =  1: 21 */
(PID.TID 0000.0001)     ;
(PID.TID 0000.0001) dBdrRef = /* Vertical gradient of reference boyancy [(m/s/r)^2)] */
(PID.TID 0000.0001)    20 @  0.000000000000000E+00              /* K =  1: 20 */
(PID.TID 0000.0001)     ;
(PID.TID 0000.0001) rotateGrid = /* use rotated grid ( True/False ) */
(PID.TID 0000.0001)                   F
(PID.TID 0000.0001)     ;
(PID.TID 0000.0001) phiEuler = /* Euler angle, rotation about original z-coordinate [rad] */
(PID.TID 0000.0001)                 0.000000000000000E+00
(PID.TID 0000.0001)     ;
(PID.TID 0000.0001) thetaEuler = /* Euler angle, rotation about new x-coordinate [rad] */
(PID.TID 0000.0001)                 0.000000000000000E+00
(PID.TID 0000.0001)     ;
(PID.TID 0000.0001) psiEuler = /* Euler angle, rotation about new z-coordinate [rad] */
(PID.TID 0000.0001)                 0.000000000000000E+00
(PID.TID 0000.0001)     ;
(PID.TID 0000.0001) dxF =  /* dxF(:,1,:,1) ( units: m ) */
(PID.TID 0000.0001)     3 @  5.000000000000000E+03              /* I =  1:  3 */
(PID.TID 0000.0001)     ;
(PID.TID 0000.0001) dxF =  /* dxF(1,:,1,:) ( units: m ) */
(PID.TID 0000.0001)                 5.000000000000000E+03       /* J =  1 */
(PID.TID 0000.0001)     ;
(PID.TID 0000.0001) dyF =  /* dyF(:,1,:,1) ( units: m ) */
(PID.TID 0000.0001)     3 @  5.000000000000000E+03              /* I =  1:  3 */
(PID.TID 0000.0001)     ;
(PID.TID 0000.0001) dyF =  /* dyF(1,:,1,:) ( units: m ) */
(PID.TID 0000.0001)                 5.000000000000000E+03       /* J =  1 */
(PID.TID 0000.0001)     ;
(PID.TID 0000.0001) dxG =  /* dxG(:,1,:,1) ( units: m ) */
(PID.TID 0000.0001)     3 @  5.000000000000000E+03              /* I =  1:  3 */
(PID.TID 0000.0001)     ;
(PID.TID 0000.0001) dxG =  /* dxG(1,:,1,:) ( units: m ) */
(PID.TID 0000.0001)                 5.000000000000000E+03       /* J =  1 */
(PID.TID 0000.0001)     ;
(PID.TID 0000.0001) dyG =  /* dyG(:,1,:,1) ( units: m ) */
(PID.TID 0000.0001)     3 @  5.000000000000000E+03              /* I =  1:  3 */
(PID.TID 0000.0001)     ;
(PID.TID 0000.0001) dyG =  /* dyG(1,:,1,:) ( units: m ) */
(PID.TID 0000.0001)                 5.000000000000000E+03       /* J =  1 */
(PID.TID 0000.0001)     ;
(PID.TID 0000.0001) dxC =  /* dxC(:,1,:,1) ( units: m ) */
(PID.TID 0000.0001)     3 @  5.000000000000000E+03              /* I =  1:  3 */
(PID.TID 0000.0001)     ;
(PID.TID 0000.0001) dxC =  /* dxC(1,:,1,:) ( units: m ) */
(PID.TID 0000.0001)                 5.000000000000000E+03       /* J =  1 */
(PID.TID 0000.0001)     ;
(PID.TID 0000.0001) dyC =  /* dyC(:,1,:,1) ( units: m ) */
(PID.TID 0000.0001)     3 @  5.000000000000000E+03              /* I =  1:  3 */
(PID.TID 0000.0001)     ;
(PID.TID 0000.0001) dyC =  /* dyC(1,:,1,:) ( units: m ) */
(PID.TID 0000.0001)                 5.000000000000000E+03       /* J =  1 */
(PID.TID 0000.0001)     ;
(PID.TID 0000.0001) dxV =  /* dxV(:,1,:,1) ( units: m ) */
(PID.TID 0000.0001)     3 @  5.000000000000000E+03              /* I =  1:  3 */
(PID.TID 0000.0001)     ;
(PID.TID 0000.0001) dxV =  /* dxV(1,:,1,:) ( units: m ) */
(PID.TID 0000.0001)                 5.000000000000000E+03       /* J =  1 */
(PID.TID 0000.0001)     ;
(PID.TID 0000.0001) dyU =  /* dyU(:,1,:,1) ( units: m ) */
(PID.TID 0000.0001)     3 @  5.000000000000000E+03              /* I =  1:  3 */
(PID.TID 0000.0001)     ;
(PID.TID 0000.0001) dyU =  /* dyU(1,:,1,:) ( units: m ) */
(PID.TID 0000.0001)                 5.000000000000000E+03       /* J =  1 */
(PID.TID 0000.0001)     ;
(PID.TID 0000.0001) rA  =  /* rA (:,1,:,1) ( units: m^2 ) */
(PID.TID 0000.0001)     3 @  2.500000000000000E+07              /* I =  1:  3 */
(PID.TID 0000.0001)     ;
(PID.TID 0000.0001) rA  =  /* rA (1,:,1,:) ( units: m^2 ) */
(PID.TID 0000.0001)                 2.500000000000000E+07       /* J =  1 */
(PID.TID 0000.0001)     ;
(PID.TID 0000.0001) rAw =  /* rAw(:,1,:,1) ( units: m^2 ) */
(PID.TID 0000.0001)     3 @  2.500000000000000E+07              /* I =  1:  3 */
(PID.TID 0000.0001)     ;
(PID.TID 0000.0001) rAw =  /* rAw(1,:,1,:) ( units: m^2 ) */
(PID.TID 0000.0001)                 2.500000000000000E+07       /* J =  1 */
(PID.TID 0000.0001)     ;
(PID.TID 0000.0001) rAs =  /* rAs(:,1,:,1) ( units: m^2 ) */
(PID.TID 0000.0001)     3 @  2.500000000000000E+07              /* I =  1:  3 */
(PID.TID 0000.0001)     ;
(PID.TID 0000.0001) rAs =  /* rAs(1,:,1,:) ( units: m^2 ) */
(PID.TID 0000.0001)                 2.500000000000000E+07       /* J =  1 */
(PID.TID 0000.0001)     ;
(PID.TID 0000.0001) globalArea = /* Integrated horizontal Area (m^2) */
(PID.TID 0000.0001)                 7.500000000000000E+07
(PID.TID 0000.0001)     ;
(PID.TID 0000.0001) // =======================================================
(PID.TID 0000.0001) // End of Model config. summary
(PID.TID 0000.0001) // =======================================================
(PID.TID 0000.0001) 
(PID.TID 0000.0001) == Packages configuration : Check & print summary ==
(PID.TID 0000.0001) 
(PID.TID 0000.0001) GAD_CHECK: #define ALLOW_GENERIC_ADVDIFF
(PID.TID 0000.0001) GGL90_CHECK: #define ALLOW_GGL90
(PID.TID 0000.0001) // =======================================================
(PID.TID 0000.0001) // CONFIG_CHECK : Normal End
(PID.TID 0000.0001) // =======================================================
(PID.TID 0000.0001) 
(PID.TID 0000.0001)  MDS_READ_FIELD: opening global file: Tstable2.init
(PID.TID 0000.0001) // =======================================================
(PID.TID 0000.0001) // Field Initial Temperature at iteration          1
(PID.TID 0000.0001) // CMIN =          1.434760448521916E+00
(PID.TID 0000.0001) // CMAX =          2.934760448521916E+00
(PID.TID 0000.0001) // CINT =          5.555555555555555E-02
(PID.TID 0000.0001) // SYMBOLS (CMIN->CMAX): -abcdefghijklmnopqrstuvwxyz+
(PID.TID 0000.0001) //                  0.0: .
(PID.TID 0000.0001) // RANGE I (Lo:Hi:Step):(   1:   3:   1)
(PID.TID 0000.0001) // RANGE J (Lo:Hi:Step):(   1:   1:  -1)
(PID.TID 0000.0001) // RANGE K (Lo:Hi:Step):(   1:   1:   1)
(PID.TID 0000.0001) // =======================================================
(PID.TID 0000.0001) K =   1
(PID.TID 0000.0001) 
(PID.TID 0000.0001) |--J--|123
(PID.TID 0000.0001)      1 +-+
(PID.TID 0000.0001) // =======================================================
(PID.TID 0000.0001) // END OF FIELD                                          =
(PID.TID 0000.0001) // =======================================================
(PID.TID 0000.0001) 
(PID.TID 0000.0001) // =======================================================
(PID.TID 0000.0001) // Field Initial Salinity at iteration          1
(PID.TID 0000.0001) // CMIN =          3.500000000000000E+01
(PID.TID 0000.0001) // CMAX =          3.500000000000000E+01
(PID.TID 0000.0001) // CINT =          0.000000000000000E+00
(PID.TID 0000.0001) // SYMBOLS (CMIN->CMAX): -abcdefghijklmnopqrstuvwxyz+
(PID.TID 0000.0001) //                  0.0: .
(PID.TID 0000.0001) // RANGE I (Lo:Hi:Step):(   1:   3:   1)
(PID.TID 0000.0001) // RANGE J (Lo:Hi:Step):(   1:   1:  -1)
(PID.TID 0000.0001) // RANGE K (Lo:Hi:Step):(   1:   1:   1)
(PID.TID 0000.0001) // =======================================================
(PID.TID 0000.0001) // =======================================================
(PID.TID 0000.0001) // END OF FIELD                                          =
(PID.TID 0000.0001) // =======================================================
(PID.TID 0000.0001) 
(PID.TID 0000.0001) Start initial hydrostatic pressure computation
(PID.TID 0000.0001) Iteration   1, RMS-difference =  1.693180512648E+02
(PID.TID 0000.0001) Iteration   2, RMS-difference =  2.950416425963E-01
(PID.TID 0000.0001) Iteration   3, RMS-difference =  3.769509058930E-04
(PID.TID 0000.0001) Iteration   4, RMS-difference =  3.793737130661E-07
(PID.TID 0000.0001) Iteration   5, RMS-difference =  3.153482393530E-10
(PID.TID 0000.0001) Iteration   6, RMS-difference =  2.114188040463E-13
(PID.TID 0000.0001) Iteration   7, RMS-difference =  0.000000000000E+00
(PID.TID 0000.0001) Iteration   8, RMS-difference =  0.000000000000E+00
(PID.TID 0000.0001) Iteration   9, RMS-difference =  0.000000000000E+00
(PID.TID 0000.0001) Iteration  10, RMS-difference =  0.000000000000E+00
(PID.TID 0000.0001) Iteration  11, RMS-difference =  0.000000000000E+00
(PID.TID 0000.0001) Iteration  12, RMS-difference =  0.000000000000E+00
(PID.TID 0000.0001) Iteration  13, RMS-difference =  0.000000000000E+00
(PID.TID 0000.0001) Iteration  14, RMS-difference =  0.000000000000E+00
(PID.TID 0000.0001) Iteration  15, RMS-difference =  0.000000000000E+00
(PID.TID 0000.0001) Initial hydrostatic pressure converged.
(PID.TID 0000.0001) 
(PID.TID 0000.0001)  MDS_READ_FIELD: opening global file: taux.forcing
(PID.TID 0000.0001)  MDS_READ_FIELD: opening global file: Qnet.forcing
(PID.TID 0000.0001) // =======================================================
(PID.TID 0000.0001) // Model current state
(PID.TID 0000.0001) // =======================================================
(PID.TID 0000.0001) 
(PID.TID 0000.0001) // =======================================================
(PID.TID 0000.0001) // Begin MONITOR dynamic field statistics
(PID.TID 0000.0001) // =======================================================
(PID.TID 0000.0001) %MON time_tsnumber                =                     0
(PID.TID 0000.0001) %MON time_secondsf                =   0.0000000000000E+00
(PID.TID 0000.0001) %MON dynstat_eta_max              =   0.0000000000000E+00
(PID.TID 0000.0001) %MON dynstat_eta_min              =   0.0000000000000E+00
(PID.TID 0000.0001) %MON dynstat_eta_mean             =   0.0000000000000E+00
(PID.TID 0000.0001) %MON dynstat_eta_sd               =   0.0000000000000E+00
(PID.TID 0000.0001) %MON dynstat_eta_del2             =   0.0000000000000E+00
(PID.TID 0000.0001) %MON dynstat_uvel_max             =   0.0000000000000E+00
(PID.TID 0000.0001) %MON dynstat_uvel_min             =   0.0000000000000E+00
(PID.TID 0000.0001) %MON dynstat_uvel_mean            =   0.0000000000000E+00
(PID.TID 0000.0001) %MON dynstat_uvel_sd              =   0.0000000000000E+00
(PID.TID 0000.0001) %MON dynstat_uvel_del2            =   0.0000000000000E+00
(PID.TID 0000.0001) %MON dynstat_vvel_max             =   0.0000000000000E+00
(PID.TID 0000.0001) %MON dynstat_vvel_min             =   0.0000000000000E+00
(PID.TID 0000.0001) %MON dynstat_vvel_mean            =   0.0000000000000E+00
(PID.TID 0000.0001) %MON dynstat_vvel_sd              =   0.0000000000000E+00
(PID.TID 0000.0001) %MON dynstat_vvel_del2            =   0.0000000000000E+00
(PID.TID 0000.0001) %MON dynstat_wvel_max             =   0.0000000000000E+00
(PID.TID 0000.0001) %MON dynstat_wvel_min             =   0.0000000000000E+00
(PID.TID 0000.0001) %MON dynstat_wvel_mean            =   0.0000000000000E+00
(PID.TID 0000.0001) %MON dynstat_wvel_sd              =   0.0000000000000E+00
(PID.TID 0000.0001) %MON dynstat_wvel_del2            =   0.0000000000000E+00
(PID.TID 0000.0001) %MON dynstat_theta_max            =   2.9347604485219E+00
(PID.TID 0000.0001) %MON dynstat_theta_min            =   4.5565749235474E-01
(PID.TID 0000.0001) %MON dynstat_theta_mean           =   1.6702089704383E+00
(PID.TID 0000.0001) %MON dynstat_theta_sd             =   7.3550792201376E-01
(PID.TID 0000.0001) %MON dynstat_theta_del2           =   2.5000000000000E-02
(PID.TID 0000.0001) %MON dynstat_salt_max             =   3.5000000000000E+01
(PID.TID 0000.0001) %MON dynstat_salt_min             =   3.5000000000000E+01
(PID.TID 0000.0001) %MON dynstat_salt_mean            =   3.5000000000000E+01
(PID.TID 0000.0001) %MON dynstat_salt_sd              =   0.0000000000000E+00
(PID.TID 0000.0001) %MON dynstat_salt_del2            =   0.0000000000000E+00
(PID.TID 0000.0001) %MON dynstat_sst_max              =   2.9347604485219E+00
(PID.TID 0000.0001) %MON dynstat_sst_min              =   1.4347604485219E+00
(PID.TID 0000.0001) %MON dynstat_sst_mean             =   2.4347604485219E+00
(PID.TID 0000.0001) %MON dynstat_sst_sd               =   7.0710678118655E-01
(PID.TID 0000.0001) %MON dynstat_sst_del2             =   5.0000000000000E-01
(PID.TID 0000.0001) %MON dynstat_sss_max              =   3.5000000000000E+01
(PID.TID 0000.0001) %MON dynstat_sss_min              =   3.5000000000000E+01
(PID.TID 0000.0001) %MON dynstat_sss_mean             =   3.5000000000000E+01
(PID.TID 0000.0001) %MON dynstat_sss_sd               =   0.0000000000000E+00
(PID.TID 0000.0001) %MON dynstat_sss_del2             =   0.0000000000000E+00
(PID.TID 0000.0001) %MON extforcing_qnet_max          =   2.0000000000000E+02
(PID.TID 0000.0001) %MON extforcing_qnet_min          =   0.0000000000000E+00
(PID.TID 0000.0001) %MON extforcing_qnet_mean         =   6.6666666666667E+01
(PID.TID 0000.0001) %MON extforcing_qnet_sd           =   9.4280904158206E+01
(PID.TID 0000.0001) %MON extforcing_qnet_del2         =   6.6666666666667E+01
(PID.TID 0000.0001) %MON extforcing_qsw_max           =   0.0000000000000E+00
(PID.TID 0000.0001) %MON extforcing_qsw_min           =   0.0000000000000E+00
(PID.TID 0000.0001) %MON extforcing_qsw_mean          =   0.0000000000000E+00
(PID.TID 0000.0001) %MON extforcing_qsw_sd            =   0.0000000000000E+00
(PID.TID 0000.0001) %MON extforcing_qsw_del2          =   0.0000000000000E+00
(PID.TID 0000.0001) %MON extforcing_empmr_max         =   0.0000000000000E+00
(PID.TID 0000.0001) %MON extforcing_empmr_min         =   0.0000000000000E+00
(PID.TID 0000.0001) %MON extforcing_empmr_mean        =   0.0000000000000E+00
(PID.TID 0000.0001) %MON extforcing_empmr_sd          =   0.0000000000000E+00
(PID.TID 0000.0001) %MON extforcing_empmr_del2        =   0.0000000000000E+00
(PID.TID 0000.0001) %MON extforcing_fu_max            =   1.0000000000000E+00
(PID.TID 0000.0001) %MON extforcing_fu_min            =   0.0000000000000E+00
(PID.TID 0000.0001) %MON extforcing_fu_mean           =   6.6666666666667E-01
(PID.TID 0000.0001) %MON extforcing_fu_sd             =   4.7140452079103E-01
(PID.TID 0000.0001) %MON extforcing_fu_del2           =   3.3333333333333E-01
(PID.TID 0000.0001) %MON extforcing_fv_max            =   0.0000000000000E+00
(PID.TID 0000.0001) %MON extforcing_fv_min            =   0.0000000000000E+00
(PID.TID 0000.0001) %MON extforcing_fv_mean           =   0.0000000000000E+00
(PID.TID 0000.0001) %MON extforcing_fv_sd             =   0.0000000000000E+00
(PID.TID 0000.0001) %MON extforcing_fv_del2           =   0.0000000000000E+00
(PID.TID 0000.0001) %MON advcfl_uvel_max              =   0.0000000000000E+00
(PID.TID 0000.0001) %MON advcfl_vvel_max              =   0.0000000000000E+00
(PID.TID 0000.0001) %MON advcfl_wvel_max              =   0.0000000000000E+00
(PID.TID 0000.0001) %MON advcfl_W_hf_max              =   0.0000000000000E+00
(PID.TID 0000.0001) %MON pe_b_mean                    =   0.0000000000000E+00
(PID.TID 0000.0001) %MON ke_max                       =   0.0000000000000E+00
(PID.TID 0000.0001) %MON ke_mean                      =   0.0000000000000E+00
(PID.TID 0000.0001) %MON ke_vol                       =   7.5000000000000E+10
(PID.TID 0000.0001) %MON vort_r_min                   =   0.0000000000000E+00
(PID.TID 0000.0001) %MON vort_r_max                   =   0.0000000000000E+00
(PID.TID 0000.0001) %MON vort_a_mean                  =   1.4000000000000E-04
(PID.TID 0000.0001) %MON vort_a_sd                    =   0.0000000000000E+00
(PID.TID 0000.0001) %MON vort_p_mean                  =   1.4000000000000E-04
(PID.TID 0000.0001) %MON vort_p_sd                    =   0.0000000000000E+00
(PID.TID 0000.0001) %MON surfExpan_theta_mean         =   0.0000000000000E+00
(PID.TID 0000.0001) %MON surfExpan_salt_mean          =   0.0000000000000E+00
(PID.TID 0000.0001) // =======================================================
(PID.TID 0000.0001) // End MONITOR dynamic field statistics
(PID.TID 0000.0001) // =======================================================
 cg2d: Sum(rhs),rhsMax =  -2.22044604925031E-16  1.19519630002329E-01
(PID.TID 0000.0001)                    cg2d_init_res =    1.22617355611955E+00
(PID.TID 0000.0001)                       cg2d_iters =     1
(PID.TID 0000.0001)                         cg2d_res =    2.71947991102104E-16
(PID.TID 0000.0001) // =======================================================
(PID.TID 0000.0001) // Begin MONITOR dynamic field statistics
(PID.TID 0000.0001) // =======================================================
(PID.TID 0000.0001) %MON time_tsnumber                =                     1
(PID.TID 0000.0001) %MON time_secondsf                =   1.2000000000000E+03
(PID.TID 0000.0001) %MON dynstat_eta_max              =   2.1992060666098E-03
(PID.TID 0000.0001) %MON dynstat_eta_min              =  -4.0587551988566E-03
(PID.TID 0000.0001) %MON dynstat_eta_mean             =   4.9670537312826E-19
(PID.TID 0000.0001) %MON dynstat_eta_sd               =   2.8733211946514E-03
(PID.TID 0000.0001) %MON dynstat_eta_del2             =   2.0293775994283E-03
(PID.TID 0000.0001) %MON dynstat_uvel_max             =   3.0240795606370E-02
(PID.TID 0000.0001) %MON dynstat_uvel_min             =  -8.0710964762936E-04
(PID.TID 0000.0001) %MON dynstat_uvel_mean            =   8.0016003200640E-04
(PID.TID 0000.0001) %MON dynstat_uvel_sd              =   4.4151136382598E-03
(PID.TID 0000.0001) %MON dynstat_uvel_del2            =   7.5109146501563E-04
(PID.TID 0000.0001) %MON dynstat_vvel_max             =   0.0000000000000E+00
(PID.TID 0000.0001) %MON dynstat_vvel_min             =   0.0000000000000E+00
(PID.TID 0000.0001) %MON dynstat_vvel_mean            =   0.0000000000000E+00
(PID.TID 0000.0001) %MON dynstat_vvel_sd              =   0.0000000000000E+00
(PID.TID 0000.0001) %MON dynstat_vvel_del2            =   0.0000000000000E+00
(PID.TID 0000.0001) %MON dynstat_wvel_max             =   2.9596069747794E-04
(PID.TID 0000.0001) %MON dynstat_wvel_min             =  -1.5436979530770E-04
(PID.TID 0000.0001) %MON dynstat_wvel_mean            =  -6.9401441858365E-21
(PID.TID 0000.0001) %MON dynstat_wvel_sd              =   1.2585763564267E-04
(PID.TID 0000.0001) %MON dynstat_wvel_del2            =   7.5360426926888E-05
(PID.TID 0000.0001) %MON dynstat_theta_max            =   2.9347598222252E+00
(PID.TID 0000.0001) %MON dynstat_theta_min            =   4.5565811865143E-01
(PID.TID 0000.0001) %MON dynstat_theta_mean           =   1.6701889363865E+00
(PID.TID 0000.0001) %MON dynstat_theta_sd             =   7.3458448905135E-01
(PID.TID 0000.0001) %MON dynstat_theta_del2           =   2.5020034051878E-02
(PID.TID 0000.0001) %MON dynstat_salt_max             =   3.5000000000000E+01
(PID.TID 0000.0001) %MON dynstat_salt_min             =   3.5000000000000E+01
(PID.TID 0000.0001) %MON dynstat_salt_mean            =   3.5000000000000E+01
(PID.TID 0000.0001) %MON dynstat_salt_sd              =   6.8029287643607E-15
(PID.TID 0000.0001) %MON dynstat_salt_del2            =   2.3684757858670E-16
(PID.TID 0000.0001) %MON dynstat_sst_max              =   2.9347598222252E+00
(PID.TID 0000.0001) %MON dynstat_sst_min              =   1.4641564039158E+00
(PID.TID 0000.0001) %MON dynstat_sst_mean             =   2.4445586827887E+00
(PID.TID 0000.0001) %MON dynstat_sst_sd               =   6.9324909968181E-01
(PID.TID 0000.0001) %MON dynstat_sst_del2             =   4.9020113943648E-01
(PID.TID 0000.0001) %MON dynstat_sss_max              =   3.5000000000000E+01
(PID.TID 0000.0001) %MON dynstat_sss_min              =   3.5000000000000E+01
(PID.TID 0000.0001) %MON dynstat_sss_mean             =   3.5000000000000E+01
(PID.TID 0000.0001) %MON dynstat_sss_sd               =   5.8015571435115E-15
(PID.TID 0000.0001) %MON dynstat_sss_del2             =   2.3684757858670E-15
(PID.TID 0000.0001) %MON extforcing_qnet_max          =   2.0000000000000E+02
(PID.TID 0000.0001) %MON extforcing_qnet_min          =   0.0000000000000E+00
(PID.TID 0000.0001) %MON extforcing_qnet_mean         =   6.6666666666667E+01
(PID.TID 0000.0001) %MON extforcing_qnet_sd           =   9.4280904158206E+01
(PID.TID 0000.0001) %MON extforcing_qnet_del2         =   6.6666666666667E+01
(PID.TID 0000.0001) %MON extforcing_qsw_max           =   0.0000000000000E+00
(PID.TID 0000.0001) %MON extforcing_qsw_min           =   0.0000000000000E+00
(PID.TID 0000.0001) %MON extforcing_qsw_mean          =   0.0000000000000E+00
(PID.TID 0000.0001) %MON extforcing_qsw_sd            =   0.0000000000000E+00
(PID.TID 0000.0001) %MON extforcing_qsw_del2          =   0.0000000000000E+00
(PID.TID 0000.0001) %MON extforcing_empmr_max         =   0.0000000000000E+00
(PID.TID 0000.0001) %MON extforcing_empmr_min         =   0.0000000000000E+00
(PID.TID 0000.0001) %MON extforcing_empmr_mean        =   0.0000000000000E+00
(PID.TID 0000.0001) %MON extforcing_empmr_sd          =   0.0000000000000E+00
(PID.TID 0000.0001) %MON extforcing_empmr_del2        =   0.0000000000000E+00
(PID.TID 0000.0001) %MON extforcing_fu_max            =   1.0000000000000E+00
(PID.TID 0000.0001) %MON extforcing_fu_min            =   0.0000000000000E+00
(PID.TID 0000.0001) %MON extforcing_fu_mean           =   6.6666666666667E-01
(PID.TID 0000.0001) %MON extforcing_fu_sd             =   4.7140452079103E-01
(PID.TID 0000.0001) %MON extforcing_fu_del2           =   3.3333333333333E-01
(PID.TID 0000.0001) %MON extforcing_fv_max            =   0.0000000000000E+00
(PID.TID 0000.0001) %MON extforcing_fv_min            =   0.0000000000000E+00
(PID.TID 0000.0001) %MON extforcing_fv_mean           =   0.0000000000000E+00
(PID.TID 0000.0001) %MON extforcing_fv_sd             =   0.0000000000000E+00
(PID.TID 0000.0001) %MON extforcing_fv_del2           =   0.0000000000000E+00
(PID.TID 0000.0001) %MON advcfl_uvel_max              =   7.2577909455289E-03
(PID.TID 0000.0001) %MON advcfl_vvel_max              =   0.0000000000000E+00
(PID.TID 0000.0001) %MON advcfl_wvel_max              =   7.1030567394704E-03
(PID.TID 0000.0001) %MON advcfl_W_hf_max              =   7.1030567394704E-03
(PID.TID 0000.0001) %MON pe_b_mean                    =   4.0495555842839E-08
(PID.TID 0000.0001) %MON ke_max                       =   2.9602999598938E-04
(PID.TID 0000.0001) %MON ke_mean                      =   1.0066742257784E-05
(PID.TID 0000.0001) %MON ke_vol                       =   7.5000000000000E+10
(PID.TID 0000.0001) %MON vort_r_min                   =   0.0000000000000E+00
(PID.TID 0000.0001) %MON vort_r_max                   =   0.0000000000000E+00
(PID.TID 0000.0001) %MON vort_a_mean                  =   1.4000000000000E-04
(PID.TID 0000.0001) %MON vort_a_sd                    =   0.0000000000000E+00
(PID.TID 0000.0001) %MON vort_p_mean                  =   1.4000000000000E-04
(PID.TID 0000.0001) %MON vort_p_sd                    =   0.0000000000000E+00
(PID.TID 0000.0001) %MON surfExpan_theta_mean         =   1.6580053526451E-06
(PID.TID 0000.0001) %MON surfExpan_salt_mean          =  -3.0316490059098E-19
(PID.TID 0000.0001) // =======================================================
(PID.TID 0000.0001) // End MONITOR dynamic field statistics
(PID.TID 0000.0001) // =======================================================
 cg2d: Sum(rhs),rhsMax =  -1.11022302462516E-16  1.20443155137604E-01
(PID.TID 0000.0001)                    cg2d_init_res =    9.39546803386940E-03
(PID.TID 0000.0001)                       cg2d_iters =     1
(PID.TID 0000.0001)                         cg2d_res =    1.28954989987455E-16
(PID.TID 0000.0001) // =======================================================
(PID.TID 0000.0001) // Begin MONITOR dynamic field statistics
(PID.TID 0000.0001) // =======================================================
(PID.TID 0000.0001) %MON time_tsnumber                =                     2
(PID.TID 0000.0001) %MON time_secondsf                =   2.4000000000000E+03
(PID.TID 0000.0001) %MON dynstat_eta_max              =   2.2157241525032E-03
(PID.TID 0000.0001) %MON dynstat_eta_min              =  -4.0901170968477E-03
(PID.TID 0000.0001) %MON dynstat_eta_mean             =   8.6923440297445E-19
(PID.TID 0000.0001) %MON dynstat_eta_sd               =   2.8955045786944E-03
(PID.TID 0000.0001) %MON dynstat_eta_del2             =   2.0450585484239E-03
(PID.TID 0000.0001) %MON dynstat_uvel_max             =   5.1018524484565E-02
(PID.TID 0000.0001) %MON dynstat_uvel_min             =  -1.6200562955126E-03
(PID.TID 0000.0001) %MON dynstat_uvel_mean            =   1.6003436687551E-03
(PID.TID 0000.0001) %MON dynstat_uvel_sd              =   7.5404620401807E-03
(PID.TID 0000.0001) %MON dynstat_uvel_del2            =   1.4459479515851E-03
(PID.TID 0000.0001) %MON dynstat_vvel_max             =   1.0143246222976E-04
(PID.TID 0000.0001) %MON dynstat_vvel_min             =  -4.4612312858278E-03
(PID.TID 0000.0001) %MON dynstat_vvel_mean            =  -2.0298459691938E-04
(PID.TID 0000.0001) %MON dynstat_vvel_sd              =   8.1761751198583E-04
(PID.TID 0000.0001) %MON dynstat_vvel_del2            =   1.0159458032794E-04
(PID.TID 0000.0001) %MON dynstat_wvel_max             =   5.6993606653044E-04
(PID.TID 0000.0001) %MON dynstat_wvel_min             =  -2.9581714431893E-04
(PID.TID 0000.0001) %MON dynstat_wvel_mean            =   2.9700832107128E-20
(PID.TID 0000.0001) %MON dynstat_wvel_sd              =   2.4695646265706E-04
(PID.TID 0000.0001) %MON dynstat_wvel_del2            =   1.4854279414304E-04
(PID.TID 0000.0001) %MON dynstat_theta_max            =   2.9347591959315E+00
(PID.TID 0000.0001) %MON dynstat_theta_min            =   4.5565874494511E-01
(PID.TID 0000.0001) %MON dynstat_theta_mean           =   1.6701689023346E+00
(PID.TID 0000.0001) %MON dynstat_theta_sd             =   7.2497438913434E-01
(PID.TID 0000.0001) %MON dynstat_theta_del2           =   2.5040068103756E-02
(PID.TID 0000.0001) %MON dynstat_salt_max             =   3.5000000000000E+01
(PID.TID 0000.0001) %MON dynstat_salt_min             =   3.5000000000000E+01
(PID.TID 0000.0001) %MON dynstat_salt_mean            =   3.5000000000000E+01
(PID.TID 0000.0001) %MON dynstat_salt_sd              =   6.9859999047862E-15
(PID.TID 0000.0001) %MON dynstat_salt_del2            =   2.3684757858670E-16
(PID.TID 0000.0001) %MON dynstat_sst_max              =   2.9347591959315E+00
(PID.TID 0000.0001) %MON dynstat_sst_min              =   2.0263171997475E+00
(PID.TID 0000.0001) %MON dynstat_sst_mean             =   2.6319451972035E+00
(PID.TID 0000.0001) %MON dynstat_sst_sd               =   4.2824366387757E-01
(PID.TID 0000.0001) %MON dynstat_sst_del2             =   3.0281399872800E-01
(PID.TID 0000.0001) %MON dynstat_sss_max              =   3.5000000000000E+01
(PID.TID 0000.0001) %MON dynstat_sss_min              =   3.5000000000000E+01
(PID.TID 0000.0001) %MON dynstat_sss_mean             =   3.5000000000000E+01
(PID.TID 0000.0001) %MON dynstat_sss_sd               =   4.1023203976183E-15
(PID.TID 0000.0001) %MON dynstat_sss_del2             =   2.3684757858670E-15
(PID.TID 0000.0001) %MON extforcing_qnet_max          =   2.0000000000000E+02
(PID.TID 0000.0001) %MON extforcing_qnet_min          =   0.0000000000000E+00
(PID.TID 0000.0001) %MON extforcing_qnet_mean         =   6.6666666666667E+01
(PID.TID 0000.0001) %MON extforcing_qnet_sd           =   9.4280904158206E+01
(PID.TID 0000.0001) %MON extforcing_qnet_del2         =   6.6666666666667E+01
(PID.TID 0000.0001) %MON extforcing_qsw_max           =   0.0000000000000E+00
(PID.TID 0000.0001) %MON extforcing_qsw_min           =   0.0000000000000E+00
(PID.TID 0000.0001) %MON extforcing_qsw_mean          =   0.0000000000000E+00
(PID.TID 0000.0001) %MON extforcing_qsw_sd            =   0.0000000000000E+00
(PID.TID 0000.0001) %MON extforcing_qsw_del2          =   0.0000000000000E+00
(PID.TID 0000.0001) %MON extforcing_empmr_max         =   0.0000000000000E+00
(PID.TID 0000.0001) %MON extforcing_empmr_min         =   0.0000000000000E+00
(PID.TID 0000.0001) %MON extforcing_empmr_mean        =   0.0000000000000E+00
(PID.TID 0000.0001) %MON extforcing_empmr_sd          =   0.0000000000000E+00
(PID.TID 0000.0001) %MON extforcing_empmr_del2        =   0.0000000000000E+00
(PID.TID 0000.0001) %MON extforcing_fu_max            =   1.0000000000000E+00
(PID.TID 0000.0001) %MON extforcing_fu_min            =   0.0000000000000E+00
(PID.TID 0000.0001) %MON extforcing_fu_mean           =   6.6666666666667E-01
(PID.TID 0000.0001) %MON extforcing_fu_sd             =   4.7140452079103E-01
(PID.TID 0000.0001) %MON extforcing_fu_del2           =   3.3333333333333E-01
(PID.TID 0000.0001) %MON extforcing_fv_max            =   0.0000000000000E+00
(PID.TID 0000.0001) %MON extforcing_fv_min            =   0.0000000000000E+00
(PID.TID 0000.0001) %MON extforcing_fv_mean           =   0.0000000000000E+00
(PID.TID 0000.0001) %MON extforcing_fv_sd             =   0.0000000000000E+00
(PID.TID 0000.0001) %MON extforcing_fv_del2           =   0.0000000000000E+00
(PID.TID 0000.0001) %MON advcfl_uvel_max              =   1.2244445876296E-02
(PID.TID 0000.0001) %MON advcfl_vvel_max              =   1.0706955085987E-03
(PID.TID 0000.0001) %MON advcfl_wvel_max              =   1.3678465596731E-02
(PID.TID 0000.0001) %MON advcfl_W_hf_max              =   1.3678465596731E-02
(PID.TID 0000.0001) %MON pe_b_mean                    =   4.1123258883503E-08
(PID.TID 0000.0001) %MON ke_max                       =   8.4979423984655E-04
(PID.TID 0000.0001) %MON ke_mean                      =   3.0064684390012E-05
(PID.TID 0000.0001) %MON ke_vol                       =   7.5000000000000E+10
(PID.TID 0000.0001) %MON vort_r_min                   =  -3.5059012463801E-07
(PID.TID 0000.0001) %MON vort_r_max                   =   4.5543867851584E-07
(PID.TID 0000.0001) %MON vort_a_mean                  =   1.4000000000000E-04
(PID.TID 0000.0001) %MON vort_a_sd                    =   9.3852599687189E-08
(PID.TID 0000.0001) %MON vort_p_mean                  =   1.4000000000000E-04
(PID.TID 0000.0001) %MON vort_p_sd                    =   9.3852599687189E-08
(PID.TID 0000.0001) %MON surfExpan_theta_mean         =   7.9140181156200E-09
(PID.TID 0000.0001) %MON surfExpan_salt_mean          =   1.5811707498870E-18
(PID.TID 0000.0001) // =======================================================
(PID.TID 0000.0001) // End MONITOR dynamic field statistics
(PID.TID 0000.0001) // =======================================================
 cg2d: Sum(rhs),rhsMax =  -1.11022302462516E-16  1.25027258447475E-01
(PID.TID 0000.0001)                    cg2d_init_res =    4.49052000492099E-02
(PID.TID 0000.0001)                       cg2d_iters =     1
(PID.TID 0000.0001)                         cg2d_res =    7.75791922889773E-18
(PID.TID 0000.0001) // =======================================================
(PID.TID 0000.0001) // Begin MONITOR dynamic field statistics
(PID.TID 0000.0001) // =======================================================
(PID.TID 0000.0001) %MON time_tsnumber                =                     3
(PID.TID 0000.0001) %MON time_secondsf                =   3.6000000000000E+03
(PID.TID 0000.0001) %MON dynstat_eta_max              =   2.2938917961589E-03
(PID.TID 0000.0001) %MON dynstat_eta_min              =  -4.2457882041016E-03
(PID.TID 0000.0001) %MON dynstat_eta_mean             =   7.4505805969238E-19
(PID.TID 0000.0001) %MON dynstat_eta_sd               =   3.0054703810393E-03
(PID.TID 0000.0001) %MON dynstat_eta_del2             =   2.1228941020508E-03
(PID.TID 0000.0001) %MON dynstat_uvel_max             =   7.2526375331589E-02
(PID.TID 0000.0001) %MON dynstat_uvel_min             =  -2.8348684914933E-03
(PID.TID 0000.0001) %MON dynstat_uvel_mean            =   2.3490028983946E-03
(PID.TID 0000.0001) %MON dynstat_uvel_sd              =   1.0559167801643E-02
(PID.TID 0000.0001) %MON dynstat_uvel_del2            =   2.3918734950467E-03
(PID.TID 0000.0001) %MON dynstat_vvel_max             =   2.7056147177652E-04
(PID.TID 0000.0001) %MON dynstat_vvel_min             =  -9.8278558673066E-03
(PID.TID 0000.0001) %MON dynstat_vvel_mean            =  -5.4040209011651E-04
(PID.TID 0000.0001) %MON dynstat_vvel_sd              =   1.9012087354398E-03
(PID.TID 0000.0001) %MON dynstat_vvel_del2            =   2.6033427229509E-04
(PID.TID 0000.0001) %MON dynstat_wvel_max             =   8.8973252349939E-04
(PID.TID 0000.0001) %MON dynstat_wvel_min             =  -5.4191857171962E-04
(PID.TID 0000.0001) %MON dynstat_wvel_mean            =   3.7710604249922E-20
(PID.TID 0000.0001) %MON dynstat_wvel_sd              =   3.9970123222326E-04
(PID.TID 0000.0001) %MON dynstat_wvel_del2            =   2.3916856209371E-04
(PID.TID 0000.0001) %MON dynstat_theta_max            =   2.9347585696409E+00
(PID.TID 0000.0001) %MON dynstat_theta_min            =   4.5565937123579E-01
(PID.TID 0000.0001) %MON dynstat_theta_mean           =   1.6701488682827E+00
(PID.TID 0000.0001) %MON dynstat_theta_sd             =   7.2246586318876E-01
(PID.TID 0000.0001) %MON dynstat_theta_del2           =   2.5060102155634E-02
(PID.TID 0000.0001) %MON dynstat_salt_max             =   3.5000000000000E+01
(PID.TID 0000.0001) %MON dynstat_salt_min             =   3.5000000000000E+01
(PID.TID 0000.0001) %MON dynstat_salt_mean            =   3.5000000000000E+01
(PID.TID 0000.0001) %MON dynstat_salt_sd              =   1.3728989970890E-14
(PID.TID 0000.0001) %MON dynstat_salt_del2            =   8.2896652505345E-16
(PID.TID 0000.0001) %MON dynstat_sst_max              =   2.9347585696409E+00
(PID.TID 0000.0001) %MON dynstat_sst_min              =   2.2501696462809E+00
(PID.TID 0000.0001) %MON dynstat_sst_mean             =   2.7065622618542E+00
(PID.TID 0000.0001) %MON dynstat_sst_sd               =   3.2271831335537E-01
(PID.TID 0000.0001) %MON dynstat_sst_del2             =   2.2819630778666E-01
(PID.TID 0000.0001) %MON dynstat_sss_max              =   3.5000000000000E+01
(PID.TID 0000.0001) %MON dynstat_sss_min              =   3.5000000000000E+01
(PID.TID 0000.0001) %MON dynstat_sss_mean             =   3.5000000000000E+01
(PID.TID 0000.0001) %MON dynstat_sss_sd               =   7.1054273576010E-15
(PID.TID 0000.0001) %MON dynstat_sss_del2             =   4.7369515717340E-15
(PID.TID 0000.0001) %MON extforcing_qnet_max          =   2.0000000000000E+02
(PID.TID 0000.0001) %MON extforcing_qnet_min          =   0.0000000000000E+00
(PID.TID 0000.0001) %MON extforcing_qnet_mean         =   6.6666666666667E+01
(PID.TID 0000.0001) %MON extforcing_qnet_sd           =   9.4280904158206E+01
(PID.TID 0000.0001) %MON extforcing_qnet_del2         =   6.6666666666667E+01
(PID.TID 0000.0001) %MON extforcing_qsw_max           =   0.0000000000000E+00
(PID.TID 0000.0001) %MON extforcing_qsw_min           =   0.0000000000000E+00
(PID.TID 0000.0001) %MON extforcing_qsw_mean          =   0.0000000000000E+00
(PID.TID 0000.0001) %MON extforcing_qsw_sd            =   0.0000000000000E+00
(PID.TID 0000.0001) %MON extforcing_qsw_del2          =   0.0000000000000E+00
(PID.TID 0000.0001) %MON extforcing_empmr_max         =   0.0000000000000E+00
(PID.TID 0000.0001) %MON extforcing_empmr_min         =   0.0000000000000E+00
(PID.TID 0000.0001) %MON extforcing_empmr_mean        =   0.0000000000000E+00
(PID.TID 0000.0001) %MON extforcing_empmr_sd          =   0.0000000000000E+00
(PID.TID 0000.0001) %MON extforcing_empmr_del2        =   0.0000000000000E+00
(PID.TID 0000.0001) %MON extforcing_fu_max            =   1.0000000000000E+00
(PID.TID 0000.0001) %MON extforcing_fu_min            =   0.0000000000000E+00
(PID.TID 0000.0001) %MON extforcing_fu_mean           =   6.6666666666667E-01
(PID.TID 0000.0001) %MON extforcing_fu_sd             =   4.7140452079103E-01
(PID.TID 0000.0001) %MON extforcing_fu_del2           =   3.3333333333333E-01
(PID.TID 0000.0001) %MON extforcing_fv_max            =   0.0000000000000E+00
(PID.TID 0000.0001) %MON extforcing_fv_min            =   0.0000000000000E+00
(PID.TID 0000.0001) %MON extforcing_fv_mean           =   0.0000000000000E+00
(PID.TID 0000.0001) %MON extforcing_fv_sd             =   0.0000000000000E+00
(PID.TID 0000.0001) %MON extforcing_fv_del2           =   0.0000000000000E+00
(PID.TID 0000.0001) %MON advcfl_uvel_max              =   1.7406330079581E-02
(PID.TID 0000.0001) %MON advcfl_vvel_max              =   2.3586854081536E-03
(PID.TID 0000.0001) %MON advcfl_wvel_max              =   2.1353580563985E-02
(PID.TID 0000.0001) %MON advcfl_W_hf_max              =   2.1353580563985E-02
(PID.TID 0000.0001) %MON pe_b_mean                    =   4.4306140096447E-08
(PID.TID 0000.0001) %MON ke_max                       =   1.6284529235467E-03
(PID.TID 0000.0001) %MON ke_mean                      =   6.0460234177323E-05
(PID.TID 0000.0001) %MON ke_vol                       =   7.5000000000000E+10
(PID.TID 0000.0001) %MON vort_r_min                   =  -8.1650193462503E-07
(PID.TID 0000.0001) %MON vort_r_max                   =   9.3530945398638E-07
(PID.TID 0000.0001) %MON vort_a_mean                  =   1.4000000000000E-04
(PID.TID 0000.0001) %MON vort_a_sd                    =   2.1568734456103E-07
(PID.TID 0000.0001) %MON vort_p_mean                  =   1.4000000000000E-04
(PID.TID 0000.0001) %MON vort_p_sd                    =   2.1568734456103E-07
(PID.TID 0000.0001) %MON surfExpan_theta_mean         =   2.9602976587311E-08
(PID.TID 0000.0001) %MON surfExpan_salt_mean          =   3.1629573034782E-18
(PID.TID 0000.0001) // =======================================================
(PID.TID 0000.0001) // End MONITOR dynamic field statistics
(PID.TID 0000.0001) // =======================================================
 cg2d: Sum(rhs),rhsMax =   1.11022302462516E-16  1.23078203674932E-01
(PID.TID 0000.0001)                    cg2d_init_res =    1.94104777098474E-02
(PID.TID 0000.0001)                       cg2d_iters =     1
(PID.TID 0000.0001)                         cg2d_res =    1.58765110977042E-16
(PID.TID 0000.0001) // =======================================================
(PID.TID 0000.0001) // Begin MONITOR dynamic field statistics
(PID.TID 0000.0001) // =======================================================
(PID.TID 0000.0001) %MON time_tsnumber                =                     4
(PID.TID 0000.0001) %MON time_secondsf                =   4.8000000000000E+03
(PID.TID 0000.0001) %MON dynstat_eta_max              =   2.2630925184241E-03
(PID.TID 0000.0001) %MON dynstat_eta_min              =  -4.1796004474062E-03
(PID.TID 0000.0001) %MON dynstat_eta_mean             =   2.4835268656413E-19
(PID.TID 0000.0001) %MON dynstat_eta_sd               =   2.9588088982312E-03
(PID.TID 0000.0001) %MON dynstat_eta_del2             =   2.0898002237031E-03
(PID.TID 0000.0001) %MON dynstat_uvel_max             =   9.1589487647716E-02
(PID.TID 0000.0001) %MON dynstat_uvel_min             =  -4.3263086884081E-03
(PID.TID 0000.0001) %MON dynstat_uvel_mean            =   3.0294673523104E-03
(PID.TID 0000.0001) %MON dynstat_uvel_sd              =   1.3420592693043E-02
(PID.TID 0000.0001) %MON dynstat_uvel_del2            =   3.5695085915905E-03
(PID.TID 0000.0001) %MON dynstat_vvel_max             =   5.0652569299622E-04
(PID.TID 0000.0001) %MON dynstat_vvel_min             =  -1.6264798733796E-02
(PID.TID 0000.0001) %MON dynstat_vvel_mean            =  -9.9917989929609E-04
(PID.TID 0000.0001) %MON dynstat_vvel_sd              =   3.2654214842313E-03
(PID.TID 0000.0001) %MON dynstat_vvel_del2            =   5.0014734948075E-04
(PID.TID 0000.0001) %MON dynstat_wvel_max             =   1.2487181072206E-03
(PID.TID 0000.0001) %MON dynstat_wvel_min             =  -8.9294472430224E-04
(PID.TID 0000.0001) %MON dynstat_wvel_mean            =   8.3082729679906E-21
(PID.TID 0000.0001) %MON dynstat_wvel_sd              =   5.7670042618026E-04
(PID.TID 0000.0001) %MON dynstat_wvel_del2            =   3.3892241382517E-04
(PID.TID 0000.0001) %MON dynstat_theta_max            =   2.9347579433532E+00
(PID.TID 0000.0001) %MON dynstat_theta_min            =   4.5565999752346E-01
(PID.TID 0000.0001) %MON dynstat_theta_mean           =   1.6701288342308E+00
(PID.TID 0000.0001) %MON dynstat_theta_sd             =   7.2190974220267E-01
(PID.TID 0000.0001) %MON dynstat_theta_del2           =   2.5080136207512E-02
(PID.TID 0000.0001) %MON dynstat_salt_max             =   3.5000000000000E+01
(PID.TID 0000.0001) %MON dynstat_salt_min             =   3.5000000000000E+01
(PID.TID 0000.0001) %MON dynstat_salt_mean            =   3.5000000000000E+01
(PID.TID 0000.0001) %MON dynstat_salt_sd              =   2.0305450002290E-14
(PID.TID 0000.0001) %MON dynstat_salt_del2            =   7.1054273576010E-16
(PID.TID 0000.0001) %MON dynstat_sst_max              =   2.9347579433532E+00
(PID.TID 0000.0001) %MON dynstat_sst_min              =   2.3294330190176E+00
(PID.TID 0000.0001) %MON dynstat_sst_mean             =   2.7329829685747E+00
(PID.TID 0000.0001) %MON dynstat_sst_sd               =   2.8535290587928E-01
(PID.TID 0000.0001) %MON dynstat_sst_del2             =   2.0177497477853E-01
(PID.TID 0000.0001) %MON dynstat_sss_max              =   3.5000000000000E+01
(PID.TID 0000.0001) %MON dynstat_sss_min              =   3.5000000000000E+01
(PID.TID 0000.0001) %MON dynstat_sss_mean             =   3.5000000000000E+01
(PID.TID 0000.0001) %MON dynstat_sss_sd               =   7.1054273576010E-15
(PID.TID 0000.0001) %MON dynstat_sss_del2             =   4.7369515717340E-15
(PID.TID 0000.0001) %MON extforcing_qnet_max          =   2.0000000000000E+02
(PID.TID 0000.0001) %MON extforcing_qnet_min          =   0.0000000000000E+00
(PID.TID 0000.0001) %MON extforcing_qnet_mean         =   6.6666666666667E+01
(PID.TID 0000.0001) %MON extforcing_qnet_sd           =   9.4280904158206E+01
(PID.TID 0000.0001) %MON extforcing_qnet_del2         =   6.6666666666667E+01
(PID.TID 0000.0001) %MON extforcing_qsw_max           =   0.0000000000000E+00
(PID.TID 0000.0001) %MON extforcing_qsw_min           =   0.0000000000000E+00
(PID.TID 0000.0001) %MON extforcing_qsw_mean          =   0.0000000000000E+00
(PID.TID 0000.0001) %MON extforcing_qsw_sd            =   0.0000000000000E+00
(PID.TID 0000.0001) %MON extforcing_qsw_del2          =   0.0000000000000E+00
(PID.TID 0000.0001) %MON extforcing_empmr_max         =   0.0000000000000E+00
(PID.TID 0000.0001) %MON extforcing_empmr_min         =   0.0000000000000E+00
(PID.TID 0000.0001) %MON extforcing_empmr_mean        =   0.0000000000000E+00
(PID.TID 0000.0001) %MON extforcing_empmr_sd          =   0.0000000000000E+00
(PID.TID 0000.0001) %MON extforcing_empmr_del2        =   0.0000000000000E+00
(PID.TID 0000.0001) %MON extforcing_fu_max            =   1.0000000000000E+00
(PID.TID 0000.0001) %MON extforcing_fu_min            =   0.0000000000000E+00
(PID.TID 0000.0001) %MON extforcing_fu_mean           =   6.6666666666667E-01
(PID.TID 0000.0001) %MON extforcing_fu_sd             =   4.7140452079103E-01
(PID.TID 0000.0001) %MON extforcing_fu_del2           =   3.3333333333333E-01
(PID.TID 0000.0001) %MON extforcing_fv_max            =   0.0000000000000E+00
(PID.TID 0000.0001) %MON extforcing_fv_min            =   0.0000000000000E+00
(PID.TID 0000.0001) %MON extforcing_fv_mean           =   0.0000000000000E+00
(PID.TID 0000.0001) %MON extforcing_fv_sd             =   0.0000000000000E+00
(PID.TID 0000.0001) %MON extforcing_fv_del2           =   0.0000000000000E+00
(PID.TID 0000.0001) %MON advcfl_uvel_max              =   2.1981477035452E-02
(PID.TID 0000.0001) %MON advcfl_vvel_max              =   3.9035516961111E-03
(PID.TID 0000.0001) %MON advcfl_wvel_max              =   2.9969234573293E-02
(PID.TID 0000.0001) %MON advcfl_W_hf_max              =   2.9969234573293E-02
(PID.TID 0000.0001) %MON pe_b_mean                    =   4.2941068222117E-08
(PID.TID 0000.0001) %MON ke_max                       =   2.5505124975342E-03
(PID.TID 0000.0001) %MON ke_mean                      =   1.0047565930605E-04
(PID.TID 0000.0001) %MON ke_vol                       =   7.5000000000000E+10
(PID.TID 0000.0001) %MON vort_r_min                   =  -1.6006735656684E-06
(PID.TID 0000.0001) %MON vort_r_max                   =   1.5729473741435E-06
(PID.TID 0000.0001) %MON vort_a_mean                  =   1.4000000000000E-04
(PID.TID 0000.0001) %MON vort_a_sd                    =   3.9653345750310E-07
(PID.TID 0000.0001) %MON vort_p_mean                  =   1.4000000000000E-04
(PID.TID 0000.0001) %MON vort_p_sd                    =   3.9653345750310E-07
(PID.TID 0000.0001) %MON surfExpan_theta_mean         =  -1.1129194114976E-08
(PID.TID 0000.0001) %MON surfExpan_salt_mean          =   6.3224092627934E-19
(PID.TID 0000.0001) // =======================================================
(PID.TID 0000.0001) // End MONITOR dynamic field statistics
(PID.TID 0000.0001) // =======================================================
 cg2d: Sum(rhs),rhsMax =  -2.22044604925031E-16  1.22185481077423E-01
(PID.TID 0000.0001)                    cg2d_init_res =    8.98331085735441E-03
(PID.TID 0000.0001)                       cg2d_iters =     1
(PID.TID 0000.0001)                         cg2d_res =    6.43676503274919E-17
(PID.TID 0000.0001) // =======================================================
(PID.TID 0000.0001) // Begin MONITOR dynamic field statistics
(PID.TID 0000.0001) // =======================================================
(PID.TID 0000.0001) %MON time_tsnumber                =                     5
(PID.TID 0000.0001) %MON time_secondsf                =   6.0000000000000E+03
(PID.TID 0000.0001) %MON dynstat_eta_max              =   2.2502579133416E-03
(PID.TID 0000.0001) %MON dynstat_eta_min              =  -4.1492845697240E-03
(PID.TID 0000.0001) %MON dynstat_eta_mean             =   0.0000000000000E+00
(PID.TID 0000.0001) %MON dynstat_eta_sd               =   2.9374890274267E-03
(PID.TID 0000.0001) %MON dynstat_eta_del2             =   2.0746422848620E-03
(PID.TID 0000.0001) %MON dynstat_uvel_max             =   1.0819973407645E-01
(PID.TID 0000.0001) %MON dynstat_uvel_min             =  -5.9210004210445E-03
(PID.TID 0000.0001) %MON dynstat_uvel_mean            =   3.6224553767880E-03
(PID.TID 0000.0001) %MON dynstat_uvel_sd              =   1.6063952980207E-02
(PID.TID 0000.0001) %MON dynstat_uvel_del2            =   4.7788802968889E-03
(PID.TID 0000.0001) %MON dynstat_vvel_max             =   8.0873211687059E-04
(PID.TID 0000.0001) %MON dynstat_vvel_min             =  -2.4589134599763E-02
(PID.TID 0000.0001) %MON dynstat_vvel_mean            =  -1.5664324197700E-03
(PID.TID 0000.0001) %MON dynstat_vvel_sd              =   4.8732051810710E-03
(PID.TID 0000.0001) %MON dynstat_vvel_del2            =   8.2877547230249E-04
(PID.TID 0000.0001) %MON dynstat_wvel_max             =   1.6098138388652E-03
(PID.TID 0000.0001) %MON dynstat_wvel_min             =  -1.2450629391567E-03
(PID.TID 0000.0001) %MON dynstat_wvel_mean            =  -3.5223097373278E-20
(PID.TID 0000.0001) %MON dynstat_wvel_sd              =   7.6308360023210E-04
(PID.TID 0000.0001) %MON dynstat_wvel_del2            =   4.4063225365510E-04
(PID.TID 0000.0001) %MON dynstat_theta_max            =   2.9347573170685E+00
(PID.TID 0000.0001) %MON dynstat_theta_min            =   4.5566062380812E-01
(PID.TID 0000.0001) %MON dynstat_theta_mean           =   1.6701088001789E+00
(PID.TID 0000.0001) %MON dynstat_theta_sd             =   7.2183907591470E-01
(PID.TID 0000.0001) %MON dynstat_theta_del2           =   2.5100170259390E-02
(PID.TID 0000.0001) %MON dynstat_salt_max             =   3.5000000000000E+01
(PID.TID 0000.0001) %MON dynstat_salt_min             =   3.5000000000000E+01
(PID.TID 0000.0001) %MON dynstat_salt_mean            =   3.5000000000000E+01
(PID.TID 0000.0001) %MON dynstat_salt_sd              =   2.6633507579264E-14
(PID.TID 0000.0001) %MON dynstat_salt_del2            =   1.6579330501069E-15
(PID.TID 0000.0001) %MON dynstat_sst_max              =   2.9347573170685E+00
(PID.TID 0000.0001) %MON dynstat_sst_min              =   2.3571331797832E+00
(PID.TID 0000.0001) %MON dynstat_sst_mean             =   2.7422159379734E+00
(PID.TID 0000.0001) %MON dynstat_sst_sd               =   2.7229462963431E-01
(PID.TID 0000.0001) %MON dynstat_sst_del2             =   1.9254137909510E-01
(PID.TID 0000.0001) %MON dynstat_sss_max              =   3.5000000000000E+01
(PID.TID 0000.0001) %MON dynstat_sss_min              =   3.5000000000000E+01
(PID.TID 0000.0001) %MON dynstat_sss_mean             =   3.5000000000000E+01
(PID.TID 0000.0001) %MON dynstat_sss_sd               =   1.0048591735576E-14
(PID.TID 0000.0001) %MON dynstat_sss_del2             =   7.1054273576010E-15
(PID.TID 0000.0001) %MON extforcing_qnet_max          =   2.0000000000000E+02
(PID.TID 0000.0001) %MON extforcing_qnet_min          =   0.0000000000000E+00
(PID.TID 0000.0001) %MON extforcing_qnet_mean         =   6.6666666666667E+01
(PID.TID 0000.0001) %MON extforcing_qnet_sd           =   9.4280904158206E+01
(PID.TID 0000.0001) %MON extforcing_qnet_del2         =   6.6666666666667E+01
(PID.TID 0000.0001) %MON extforcing_qsw_max           =   0.0000000000000E+00
(PID.TID 0000.0001) %MON extforcing_qsw_min           =   0.0000000000000E+00
(PID.TID 0000.0001) %MON extforcing_qsw_mean          =   0.0000000000000E+00
(PID.TID 0000.0001) %MON extforcing_qsw_sd            =   0.0000000000000E+00
(PID.TID 0000.0001) %MON extforcing_qsw_del2          =   0.0000000000000E+00
(PID.TID 0000.0001) %MON extforcing_empmr_max         =   0.0000000000000E+00
(PID.TID 0000.0001) %MON extforcing_empmr_min         =   0.0000000000000E+00
(PID.TID 0000.0001) %MON extforcing_empmr_mean        =   0.0000000000000E+00
(PID.TID 0000.0001) %MON extforcing_empmr_sd          =   0.0000000000000E+00
(PID.TID 0000.0001) %MON extforcing_empmr_del2        =   0.0000000000000E+00
(PID.TID 0000.0001) %MON extforcing_fu_max            =   1.0000000000000E+00
(PID.TID 0000.0001) %MON extforcing_fu_min            =   0.0000000000000E+00
(PID.TID 0000.0001) %MON extforcing_fu_mean           =   6.6666666666667E-01
(PID.TID 0000.0001) %MON extforcing_fu_sd             =   4.7140452079103E-01
(PID.TID 0000.0001) %MON extforcing_fu_del2           =   3.3333333333333E-01
(PID.TID 0000.0001) %MON extforcing_fv_max            =   0.0000000000000E+00
(PID.TID 0000.0001) %MON extforcing_fv_min            =   0.0000000000000E+00
(PID.TID 0000.0001) %MON extforcing_fv_mean           =   0.0000000000000E+00
(PID.TID 0000.0001) %MON extforcing_fv_sd             =   0.0000000000000E+00
(PID.TID 0000.0001) %MON extforcing_fv_del2           =   0.0000000000000E+00
(PID.TID 0000.0001) %MON advcfl_uvel_max              =   2.5967936178348E-02
(PID.TID 0000.0001) %MON advcfl_vvel_max              =   5.9013923039431E-03
(PID.TID 0000.0001) %MON advcfl_wvel_max              =   3.8635532132765E-02
(PID.TID 0000.0001) %MON advcfl_W_hf_max              =   3.8635532132765E-02
(PID.TID 0000.0001) %MON pe_b_mean                    =   4.2324468961567E-08
(PID.TID 0000.0001) %MON ke_max                       =   3.5588395384350E-03
(PID.TID 0000.0001) %MON ke_mean                      =   1.4868730378482E-04
(PID.TID 0000.0001) %MON ke_vol                       =   7.5000000000000E+10
(PID.TID 0000.0001) %MON vort_r_min                   =  -2.6203363102558E-06
(PID.TID 0000.0001) %MON vort_r_max                   =   2.3387047255917E-06
(PID.TID 0000.0001) %MON vort_a_mean                  =   1.4000000000000E-04
(PID.TID 0000.0001) %MON vort_a_sd                    =   6.3676946249169E-07
(PID.TID 0000.0001) %MON vort_p_mean                  =   1.4000000000000E-04
(PID.TID 0000.0001) %MON vort_p_sd                    =   6.3676946249169E-07
(PID.TID 0000.0001) %MON surfExpan_theta_mean         =  -4.8642174148655E-09
(PID.TID 0000.0001) %MON surfExpan_salt_mean          =  -6.3246829995478E-18
(PID.TID 0000.0001) // =======================================================
(PID.TID 0000.0001) // End MONITOR dynamic field statistics
(PID.TID 0000.0001) // =======================================================
 cg2d: Sum(rhs),rhsMax =   0.00000000000000E+00  1.22158438742108E-01
(PID.TID 0000.0001)                    cg2d_init_res =    7.73379205158836E-04
(PID.TID 0000.0001)                       cg2d_iters =     1
(PID.TID 0000.0001)                         cg2d_res =    3.20343329374001E-17
(PID.TID 0000.0001) // =======================================================
(PID.TID 0000.0001) // Begin MONITOR dynamic field statistics
(PID.TID 0000.0001) // =======================================================
(PID.TID 0000.0001) %MON time_tsnumber                =                     6
(PID.TID 0000.0001) %MON time_secondsf                =   7.2000000000000E+03
(PID.TID 0000.0001) %MON dynstat_eta_max              =   2.2519233603849E-03
(PID.TID 0000.0001) %MON dynstat_eta_min              =  -4.1483662417552E-03
(PID.TID 0000.0001) %MON dynstat_eta_mean             =   3.7252902984619E-19
(PID.TID 0000.0001) %MON dynstat_eta_sd               =   2.9369256544376E-03
(PID.TID 0000.0001) %MON dynstat_eta_del2             =   2.0741831208776E-03
(PID.TID 0000.0001) %MON dynstat_uvel_max             =   1.2255636172465E-01
(PID.TID 0000.0001) %MON dynstat_uvel_min             =  -7.4904987566395E-03
(PID.TID 0000.0001) %MON dynstat_uvel_mean            =   4.1108523811598E-03
(PID.TID 0000.0001) %MON dynstat_uvel_sd              =   1.8457852074699E-02
(PID.TID 0000.0001) %MON dynstat_uvel_del2            =   5.9329707938320E-03
(PID.TID 0000.0001) %MON dynstat_vvel_max             =   1.1762221518453E-03
(PID.TID 0000.0001) %MON dynstat_vvel_min             =  -3.3893994234219E-02
(PID.TID 0000.0001) %MON dynstat_vvel_mean            =  -2.2258121153424E-03
(PID.TID 0000.0001) %MON dynstat_vvel_sd              =   6.6820765594297E-03
(PID.TID 0000.0001) %MON dynstat_vvel_del2            =   1.2488925261893E-03
(PID.TID 0000.0001) %MON dynstat_wvel_max             =   1.9524713981151E-03
(PID.TID 0000.0001) %MON dynstat_wvel_min             =  -1.5911728296769E-03
(PID.TID 0000.0001) %MON dynstat_wvel_mean            =  -4.7411881068833E-20
(PID.TID 0000.0001) %MON dynstat_wvel_sd              =   9.4615802858628E-04
(PID.TID 0000.0001) %MON dynstat_wvel_del2            =   5.3944515816601E-04
(PID.TID 0000.0001) %MON dynstat_theta_max            =   2.9347566907869E+00
(PID.TID 0000.0001) %MON dynstat_theta_min            =   4.5566125008978E-01
(PID.TID 0000.0001) %MON dynstat_theta_mean           =   1.6700887661271E+00
(PID.TID 0000.0001) %MON dynstat_theta_sd             =   7.2180876398366E-01
(PID.TID 0000.0001) %MON dynstat_theta_del2           =   2.5187086669715E-02
(PID.TID 0000.0001) %MON dynstat_salt_max             =   3.5000000000000E+01
(PID.TID 0000.0001) %MON dynstat_salt_min             =   3.5000000000000E+01
(PID.TID 0000.0001) %MON dynstat_salt_mean            =   3.5000000000000E+01
(PID.TID 0000.0001) %MON dynstat_salt_sd              =   3.3327408458372E-14
(PID.TID 0000.0001) %MON dynstat_salt_del2            =   1.8947806286936E-15
(PID.TID 0000.0001) %MON dynstat_sst_max              =   2.9347566907869E+00
(PID.TID 0000.0001) %MON dynstat_sst_min              =   2.3664828189364E+00
(PID.TID 0000.0001) %MON dynstat_sst_mean             =   2.7453320668367E+00
(PID.TID 0000.0001) %MON dynstat_sst_sd               =   2.6788687223776E-01
(PID.TID 0000.0001) %MON dynstat_sst_del2             =   1.8942462395017E-01
(PID.TID 0000.0001) %MON dynstat_sss_max              =   3.5000000000000E+01
(PID.TID 0000.0001) %MON dynstat_sss_min              =   3.5000000000000E+01
(PID.TID 0000.0001) %MON dynstat_sss_mean             =   3.5000000000000E+01
(PID.TID 0000.0001) %MON dynstat_sss_sd               =   1.3605857528721E-14
(PID.TID 0000.0001) %MON dynstat_sss_del2             =   9.4739031434680E-15
(PID.TID 0000.0001) %MON extforcing_qnet_max          =   2.0000000000000E+02
(PID.TID 0000.0001) %MON extforcing_qnet_min          =   0.0000000000000E+00
(PID.TID 0000.0001) %MON extforcing_qnet_mean         =   6.6666666666667E+01
(PID.TID 0000.0001) %MON extforcing_qnet_sd           =   9.4280904158206E+01
(PID.TID 0000.0001) %MON extforcing_qnet_del2         =   6.6666666666667E+01
(PID.TID 0000.0001) %MON extforcing_qsw_max           =   0.0000000000000E+00
(PID.TID 0000.0001) %MON extforcing_qsw_min           =   0.0000000000000E+00
(PID.TID 0000.0001) %MON extforcing_qsw_mean          =   0.0000000000000E+00
(PID.TID 0000.0001) %MON extforcing_qsw_sd            =   0.0000000000000E+00
(PID.TID 0000.0001) %MON extforcing_qsw_del2          =   0.0000000000000E+00
(PID.TID 0000.0001) %MON extforcing_empmr_max         =   0.0000000000000E+00
(PID.TID 0000.0001) %MON extforcing_empmr_min         =   0.0000000000000E+00
(PID.TID 0000.0001) %MON extforcing_empmr_mean        =   0.0000000000000E+00
(PID.TID 0000.0001) %MON extforcing_empmr_sd          =   0.0000000000000E+00
(PID.TID 0000.0001) %MON extforcing_empmr_del2        =   0.0000000000000E+00
(PID.TID 0000.0001) %MON extforcing_fu_max            =   1.0000000000000E+00
(PID.TID 0000.0001) %MON extforcing_fu_min            =   0.0000000000000E+00
(PID.TID 0000.0001) %MON extforcing_fu_mean           =   6.6666666666667E-01
(PID.TID 0000.0001) %MON extforcing_fu_sd             =   4.7140452079103E-01
(PID.TID 0000.0001) %MON extforcing_fu_del2           =   3.3333333333333E-01
(PID.TID 0000.0001) %MON extforcing_fv_max            =   0.0000000000000E+00
(PID.TID 0000.0001) %MON extforcing_fv_min            =   0.0000000000000E+00
(PID.TID 0000.0001) %MON extforcing_fv_mean           =   0.0000000000000E+00
(PID.TID 0000.0001) %MON extforcing_fv_sd             =   0.0000000000000E+00
(PID.TID 0000.0001) %MON extforcing_fv_del2           =   0.0000000000000E+00
(PID.TID 0000.0001) %MON advcfl_uvel_max              =   2.9413526813916E-02
(PID.TID 0000.0001) %MON advcfl_vvel_max              =   8.1345586162126E-03
(PID.TID 0000.0001) %MON advcfl_wvel_max              =   4.6859313554762E-02
(PID.TID 0000.0001) %MON advcfl_W_hf_max              =   4.6859313554762E-02
(PID.TID 0000.0001) %MON pe_b_mean                    =   4.2308235929998E-08
(PID.TID 0000.0001) %MON ke_max                       =   4.6131274516408E-03
(PID.TID 0000.0001) %MON ke_mean                      =   2.0359789861502E-04
(PID.TID 0000.0001) %MON ke_vol                       =   7.5000000000000E+10
(PID.TID 0000.0001) %MON vort_r_min                   =  -3.8476435023072E-06
(PID.TID 0000.0001) %MON vort_r_max                   =   3.2315352706813E-06
(PID.TID 0000.0001) %MON vort_a_mean                  =   1.4000000000000E-04
(PID.TID 0000.0001) %MON vort_a_sd                    =   9.3531285632685E-07
(PID.TID 0000.0001) %MON vort_p_mean                  =   1.4000000000000E-04
(PID.TID 0000.0001) %MON vort_p_sd                    =   9.3531285632685E-07
(PID.TID 0000.0001) %MON surfExpan_theta_mean         =  -1.4496160853783E-10
(PID.TID 0000.0001) %MON surfExpan_salt_mean          =  -1.2649111387949E-18
(PID.TID 0000.0001) // =======================================================
(PID.TID 0000.0001) // End MONITOR dynamic field statistics
(PID.TID 0000.0001) // =======================================================
 cg2d: Sum(rhs),rhsMax =   1.11022302462516E-16  1.22330752905549E-01
(PID.TID 0000.0001)                    cg2d_init_res =    1.80756658487243E-03
(PID.TID 0000.0001)                       cg2d_iters =     1
(PID.TID 0000.0001)                         cg2d_res =    6.38176401652069E-17
(PID.TID 0000.0001) // =======================================================
(PID.TID 0000.0001) // Begin MONITOR dynamic field statistics
(PID.TID 0000.0001) // =======================================================
(PID.TID 0000.0001) %MON time_tsnumber                =                     7
(PID.TID 0000.0001) %MON time_secondsf                =   8.4000000000000E+03
(PID.TID 0000.0001) %MON dynstat_eta_max              =   2.2564340318635E-03
(PID.TID 0000.0001) %MON dynstat_eta_min              =  -4.1542178412514E-03
(PID.TID 0000.0001) %MON dynstat_eta_mean             =   0.0000000000000E+00
(PID.TID 0000.0001) %MON dynstat_eta_sd               =   2.9411224501256E-03
(PID.TID 0000.0001) %MON dynstat_eta_del2             =   2.0771089206257E-03
(PID.TID 0000.0001) %MON dynstat_uvel_max             =   1.3478453704110E-01
(PID.TID 0000.0001) %MON dynstat_uvel_min             =  -9.8092365808985E-03
(PID.TID 0000.0001) %MON dynstat_uvel_mean            =   4.4805805292159E-03
(PID.TID 0000.0001) %MON dynstat_uvel_sd              =   2.0598098927950E-02
(PID.TID 0000.0001) %MON dynstat_uvel_del2            =   7.0466155861656E-03
(PID.TID 0000.0001) %MON dynstat_vvel_max             =   1.6073870631222E-03
(PID.TID 0000.0001) %MON dynstat_vvel_min             =  -4.3888800831894E-02
(PID.TID 0000.0001) %MON dynstat_vvel_mean            =  -2.9582812123084E-03
(PID.TID 0000.0001) %MON dynstat_vvel_sd              =   8.6459696951180E-03
(PID.TID 0000.0001) %MON dynstat_vvel_del2            =   1.7786369088451E-03
(PID.TID 0000.0001) %MON dynstat_wvel_max             =   2.2763881032962E-03
(PID.TID 0000.0001) %MON dynstat_wvel_min             =  -1.9263200258385E-03
(PID.TID 0000.0001) %MON dynstat_wvel_mean            =  -2.0447306526013E-20
(PID.TID 0000.0001) %MON dynstat_wvel_sd              =   1.1220934621146E-03
(PID.TID 0000.0001) %MON dynstat_wvel_del2            =   6.3410172164995E-04
(PID.TID 0000.0001) %MON dynstat_theta_max            =   2.9347560645082E+00
(PID.TID 0000.0001) %MON dynstat_theta_min            =   4.5566187636843E-01
(PID.TID 0000.0001) %MON dynstat_theta_mean           =   1.6700687320752E+00
(PID.TID 0000.0001) %MON dynstat_theta_sd             =   7.2178286687191E-01
(PID.TID 0000.0001) %MON dynstat_theta_del2           =   2.5288972147903E-02
(PID.TID 0000.0001) %MON dynstat_salt_max             =   3.5000000000000E+01
(PID.TID 0000.0001) %MON dynstat_salt_min             =   3.5000000000000E+01
(PID.TID 0000.0001) %MON dynstat_salt_mean            =   3.5000000000000E+01
(PID.TID 0000.0001) %MON dynstat_salt_sd              =   3.9412177218560E-14
(PID.TID 0000.0001) %MON dynstat_salt_del2            =   3.9079850466806E-15
(PID.TID 0000.0001) %MON dynstat_sst_max              =   2.9347560645082E+00
(PID.TID 0000.0001) %MON dynstat_sst_min              =   2.3693044383902E+00
(PID.TID 0000.0001) %MON dynstat_sst_mean             =   2.7462721891356E+00
(PID.TID 0000.0001) %MON dynstat_sst_sd               =   2.6655645284067E-01
(PID.TID 0000.0001) %MON dynstat_sst_del2             =   1.8848387537267E-01
(PID.TID 0000.0001) %MON dynstat_sss_max              =   3.5000000000000E+01
(PID.TID 0000.0001) %MON dynstat_sss_min              =   3.5000000000000E+01
(PID.TID 0000.0001) %MON dynstat_sss_mean             =   3.5000000000000E+01
(PID.TID 0000.0001) %MON dynstat_sss_sd               =   1.6914300309506E-14
(PID.TID 0000.0001) %MON dynstat_sss_del2             =   1.1842378929335E-14
(PID.TID 0000.0001) %MON extforcing_qnet_max          =   2.0000000000000E+02
(PID.TID 0000.0001) %MON extforcing_qnet_min          =   0.0000000000000E+00
(PID.TID 0000.0001) %MON extforcing_qnet_mean         =   6.6666666666667E+01
(PID.TID 0000.0001) %MON extforcing_qnet_sd           =   9.4280904158206E+01
(PID.TID 0000.0001) %MON extforcing_qnet_del2         =   6.6666666666667E+01
(PID.TID 0000.0001) %MON extforcing_qsw_max           =   0.0000000000000E+00
(PID.TID 0000.0001) %MON extforcing_qsw_min           =   0.0000000000000E+00
(PID.TID 0000.0001) %MON extforcing_qsw_mean          =   0.0000000000000E+00
(PID.TID 0000.0001) %MON extforcing_qsw_sd            =   0.0000000000000E+00
(PID.TID 0000.0001) %MON extforcing_qsw_del2          =   0.0000000000000E+00
(PID.TID 0000.0001) %MON extforcing_empmr_max         =   0.0000000000000E+00
(PID.TID 0000.0001) %MON extforcing_empmr_min         =   0.0000000000000E+00
(PID.TID 0000.0001) %MON extforcing_empmr_mean        =   0.0000000000000E+00
(PID.TID 0000.0001) %MON extforcing_empmr_sd          =   0.0000000000000E+00
(PID.TID 0000.0001) %MON extforcing_empmr_del2        =   0.0000000000000E+00
(PID.TID 0000.0001) %MON extforcing_fu_max            =   1.0000000000000E+00
(PID.TID 0000.0001) %MON extforcing_fu_min            =   0.0000000000000E+00
(PID.TID 0000.0001) %MON extforcing_fu_mean           =   6.6666666666667E-01
(PID.TID 0000.0001) %MON extforcing_fu_sd             =   4.7140452079103E-01
(PID.TID 0000.0001) %MON extforcing_fu_del2           =   3.3333333333333E-01
(PID.TID 0000.0001) %MON extforcing_fv_max            =   0.0000000000000E+00
(PID.TID 0000.0001) %MON extforcing_fv_min            =   0.0000000000000E+00
(PID.TID 0000.0001) %MON extforcing_fv_mean           =   0.0000000000000E+00
(PID.TID 0000.0001) %MON extforcing_fv_sd             =   0.0000000000000E+00
(PID.TID 0000.0001) %MON extforcing_fv_del2           =   0.0000000000000E+00
(PID.TID 0000.0001) %MON advcfl_uvel_max              =   3.2348288889865E-02
(PID.TID 0000.0001) %MON advcfl_vvel_max              =   1.0533312199655E-02
(PID.TID 0000.0001) %MON advcfl_wvel_max              =   5.4633314479110E-02
(PID.TID 0000.0001) %MON advcfl_W_hf_max              =   5.4633314479110E-02
(PID.TID 0000.0001) %MON pe_b_mean                    =   4.2429237212833E-08
(PID.TID 0000.0001) %MON ke_max                       =   5.6806916793347E-03
(PID.TID 0000.0001) %MON ke_mean                      =   2.6393075051220E-04
(PID.TID 0000.0001) %MON ke_vol                       =   7.5000000000000E+10
(PID.TID 0000.0001) %MON vort_r_min                   =  -5.2610901390432E-06
(PID.TID 0000.0001) %MON vort_r_max                   =   4.3249285726856E-06
(PID.TID 0000.0001) %MON vort_a_mean                  =   1.4000000000000E-04
(PID.TID 0000.0001) %MON vort_a_sd                    =   1.2885845356883E-06
(PID.TID 0000.0001) %MON vort_p_mean                  =   1.4000000000000E-04
(PID.TID 0000.0001) %MON vort_p_sd                    =   1.2885845356883E-06
(PID.TID 0000.0001) %MON surfExpan_theta_mean         =   9.1911012562626E-10
(PID.TID 0000.0001) %MON surfExpan_salt_mean          =   2.5298637259160E-18
(PID.TID 0000.0001) // =======================================================
(PID.TID 0000.0001) // End MONITOR dynamic field statistics
(PID.TID 0000.0001) // =======================================================
 cg2d: Sum(rhs),rhsMax =   3.33066907387547E-16  1.22498238655039E-01
(PID.TID 0000.0001)                    cg2d_init_res =    1.69208518773010E-03
(PID.TID 0000.0001)                       cg2d_iters =     1
(PID.TID 0000.0001)                         cg2d_res =    1.92108540502597E-16
(PID.TID 0000.0001) // =======================================================
(PID.TID 0000.0001) // Begin MONITOR dynamic field statistics
(PID.TID 0000.0001) // =======================================================
(PID.TID 0000.0001) %MON time_tsnumber                =                     8
(PID.TID 0000.0001) %MON time_secondsf                =   9.6000000000000E+03
(PID.TID 0000.0001) %MON dynstat_eta_max              =   2.2599928939496E-03
(PID.TID 0000.0001) %MON dynstat_eta_min              =  -4.1599054731195E-03
(PID.TID 0000.0001) %MON dynstat_eta_mean             =  -6.2088171641032E-19
(PID.TID 0000.0001) %MON dynstat_eta_sd               =   2.9451683163265E-03
(PID.TID 0000.0001) %MON dynstat_eta_del2             =   2.0799527365598E-03
(PID.TID 0000.0001) %MON dynstat_uvel_max             =   1.4498730106708E-01
(PID.TID 0000.0001) %MON dynstat_uvel_min             =  -1.5689208988565E-02
(PID.TID 0000.0001) %MON dynstat_uvel_mean            =   4.7209915367586E-03
(PID.TID 0000.0001) %MON dynstat_uvel_sd              =   2.2491281071369E-02
(PID.TID 0000.0001) %MON dynstat_uvel_del2            =   8.1027581578951E-03
(PID.TID 0000.0001) %MON dynstat_vvel_max             =   2.0998969377156E-03
(PID.TID 0000.0001) %MON dynstat_vvel_min             =  -5.4293072558514E-02
(PID.TID 0000.0001) %MON dynstat_vvel_mean            =  -3.7426970929852E-03
(PID.TID 0000.0001) %MON dynstat_vvel_sd              =   1.0719448118390E-02
(PID.TID 0000.0001) %MON dynstat_vvel_del2            =   2.3919988182968E-03
(PID.TID 0000.0001) %MON dynstat_wvel_max             =   2.5807539283825E-03
(PID.TID 0000.0001) %MON dynstat_wvel_min             =  -2.2388115992028E-03
(PID.TID 0000.0001) %MON dynstat_wvel_mean            =   2.7611326330747E-20
(PID.TID 0000.0001) %MON dynstat_wvel_sd              =   1.2892479364417E-03
(PID.TID 0000.0001) %MON dynstat_wvel_del2            =   7.2394450139818E-04
(PID.TID 0000.0001) %MON dynstat_theta_max            =   2.9347554382326E+00
(PID.TID 0000.0001) %MON dynstat_theta_min            =   4.5566250264407E-01
(PID.TID 0000.0001) %MON dynstat_theta_mean           =   1.6700486980233E+00
(PID.TID 0000.0001) %MON dynstat_theta_sd             =   7.2175757174683E-01
(PID.TID 0000.0001) %MON dynstat_theta_del2           =   2.5388912642154E-02
(PID.TID 0000.0001) %MON dynstat_salt_max             =   3.5000000000000E+01
(PID.TID 0000.0001) %MON dynstat_salt_min             =   3.5000000000000E+01
(PID.TID 0000.0001) %MON dynstat_salt_mean            =   3.5000000000000E+01
(PID.TID 0000.0001) %MON dynstat_salt_sd              =   2.6994390408308E-14
(PID.TID 0000.0001) %MON dynstat_salt_del2            =   4.2632564145606E-15
(PID.TID 0000.0001) %MON dynstat_sst_max              =   2.9347554382326E+00
(PID.TID 0000.0001) %MON dynstat_sst_min              =   2.3698693998699E+00
(PID.TID 0000.0001) %MON dynstat_sst_mean             =   2.7464600921117E+00
(PID.TID 0000.0001) %MON dynstat_sst_sd               =   2.6628983221589E-01
(PID.TID 0000.0001) %MON dynstat_sst_del2             =   1.8829534612089E-01
(PID.TID 0000.0001) %MON dynstat_sss_max              =   3.5000000000000E+01
(PID.TID 0000.0001) %MON dynstat_sss_min              =   3.5000000000000E+01
(PID.TID 0000.0001) %MON dynstat_sss_mean             =   3.5000000000000E+01
(PID.TID 0000.0001) %MON dynstat_sss_sd               =   2.0097183471152E-14
(PID.TID 0000.0001) %MON dynstat_sss_del2             =   1.4210854715202E-14
(PID.TID 0000.0001) %MON extforcing_qnet_max          =   2.0000000000000E+02
(PID.TID 0000.0001) %MON extforcing_qnet_min          =   0.0000000000000E+00
(PID.TID 0000.0001) %MON extforcing_qnet_mean         =   6.6666666666667E+01
(PID.TID 0000.0001) %MON extforcing_qnet_sd           =   9.4280904158206E+01
(PID.TID 0000.0001) %MON extforcing_qnet_del2         =   6.6666666666667E+01
(PID.TID 0000.0001) %MON extforcing_qsw_max           =   0.0000000000000E+00
(PID.TID 0000.0001) %MON extforcing_qsw_min           =   0.0000000000000E+00
(PID.TID 0000.0001) %MON extforcing_qsw_mean          =   0.0000000000000E+00
(PID.TID 0000.0001) %MON extforcing_qsw_sd            =   0.0000000000000E+00
(PID.TID 0000.0001) %MON extforcing_qsw_del2          =   0.0000000000000E+00
(PID.TID 0000.0001) %MON extforcing_empmr_max         =   0.0000000000000E+00
(PID.TID 0000.0001) %MON extforcing_empmr_min         =   0.0000000000000E+00
(PID.TID 0000.0001) %MON extforcing_empmr_mean        =   0.0000000000000E+00
(PID.TID 0000.0001) %MON extforcing_empmr_sd          =   0.0000000000000E+00
(PID.TID 0000.0001) %MON extforcing_empmr_del2        =   0.0000000000000E+00
(PID.TID 0000.0001) %MON extforcing_fu_max            =   1.0000000000000E+00
(PID.TID 0000.0001) %MON extforcing_fu_min            =   0.0000000000000E+00
(PID.TID 0000.0001) %MON extforcing_fu_mean           =   6.6666666666667E-01
(PID.TID 0000.0001) %MON extforcing_fu_sd             =   4.7140452079103E-01
(PID.TID 0000.0001) %MON extforcing_fu_del2           =   3.3333333333333E-01
(PID.TID 0000.0001) %MON extforcing_fv_max            =   0.0000000000000E+00
(PID.TID 0000.0001) %MON extforcing_fv_min            =   0.0000000000000E+00
(PID.TID 0000.0001) %MON extforcing_fv_mean           =   0.0000000000000E+00
(PID.TID 0000.0001) %MON extforcing_fv_sd             =   0.0000000000000E+00
(PID.TID 0000.0001) %MON extforcing_fv_del2           =   0.0000000000000E+00
(PID.TID 0000.0001) %MON advcfl_uvel_max              =   3.4796952256099E-02
(PID.TID 0000.0001) %MON advcfl_vvel_max              =   1.3030337414043E-02
(PID.TID 0000.0001) %MON advcfl_wvel_max              =   6.1938094281179E-02
(PID.TID 0000.0001) %MON advcfl_W_hf_max              =   6.1938094281179E-02
(PID.TID 0000.0001) %MON pe_b_mean                    =   4.2546050498376E-08
(PID.TID 0000.0001) %MON ke_max                       =   6.7907360512728E-03
(PID.TID 0000.0001) %MON ke_mean                      =   3.2852991740709E-04
(PID.TID 0000.0001) %MON ke_vol                       =   7.5000000000000E+10
(PID.TID 0000.0001) %MON vort_r_min                   =  -6.8389080662547E-06
(PID.TID 0000.0001) %MON vort_r_max                   =   5.5961223918403E-06
(PID.TID 0000.0001) %MON vort_a_mean                  =   1.4000000000000E-04
(PID.TID 0000.0001) %MON vort_a_sd                    =   1.6928108709233E-06
(PID.TID 0000.0001) %MON vort_p_mean                  =   1.4000000000000E-04
(PID.TID 0000.0001) %MON vort_p_sd                    =   1.6928108709233E-06
(PID.TID 0000.0001) %MON surfExpan_theta_mean         =   8.9246217589286E-10
(PID.TID 0000.0001) %MON surfExpan_salt_mean          =   2.5298755682949E-18
(PID.TID 0000.0001) // =======================================================
(PID.TID 0000.0001) // End MONITOR dynamic field statistics
(PID.TID 0000.0001) // =======================================================
 cg2d: Sum(rhs),rhsMax =   1.11022302462516E-16  1.22639023061538E-01
(PID.TID 0000.0001)                    cg2d_init_res =    1.41379928630688E-03
(PID.TID 0000.0001)                       cg2d_iters =     1
(PID.TID 0000.0001)                         cg2d_res =    3.20181716690929E-17
(PID.TID 0000.0001) // =======================================================
(PID.TID 0000.0001) // Begin MONITOR dynamic field statistics
(PID.TID 0000.0001) // =======================================================
(PID.TID 0000.0001) %MON time_tsnumber                =                     9
(PID.TID 0000.0001) %MON time_secondsf                =   1.0800000000000E+04
(PID.TID 0000.0001) %MON dynstat_eta_max              =   2.2619453677279E-03
(PID.TID 0000.0001) %MON dynstat_eta_min              =  -4.1646863567433E-03
(PID.TID 0000.0001) %MON dynstat_eta_mean             =  -8.6923440297445E-19
(PID.TID 0000.0001) %MON dynstat_eta_sd               =   2.9485268959210E-03
(PID.TID 0000.0001) %MON dynstat_eta_del2             =   2.0823431783717E-03
(PID.TID 0000.0001) %MON dynstat_uvel_max             =   1.5327278724457E-01
(PID.TID 0000.0001) %MON dynstat_uvel_min             =  -2.2781791600990E-02
(PID.TID 0000.0001) %MON dynstat_uvel_mean            =   4.8251698143673E-03
(PID.TID 0000.0001) %MON dynstat_uvel_sd              =   2.4152548477344E-02
(PID.TID 0000.0001) %MON dynstat_uvel_del2            =   9.0982440060546E-03
(PID.TID 0000.0001) %MON dynstat_vvel_max             =   2.6505878333284E-03
(PID.TID 0000.0001) %MON dynstat_vvel_min             =  -6.4840454603010E-02
(PID.TID 0000.0001) %MON dynstat_vvel_mean            =  -4.5564221201999E-03
(PID.TID 0000.0001) %MON dynstat_vvel_sd              =   1.2858332670416E-02
(PID.TID 0000.0001) %MON dynstat_vvel_del2            =   3.0821514554466E-03
(PID.TID 0000.0001) %MON dynstat_wvel_max             =   2.8773553480186E-03
(PID.TID 0000.0001) %MON dynstat_wvel_min             =  -2.5279580153791E-03
(PID.TID 0000.0001) %MON dynstat_wvel_mean            =   4.7909382444162E-20
(PID.TID 0000.0001) %MON dynstat_wvel_sd              =   1.4464865283725E-03
(PID.TID 0000.0001) %MON dynstat_wvel_del2            =   8.0834482024085E-04
(PID.TID 0000.0001) %MON dynstat_theta_max            =   2.9347548119599E+00
(PID.TID 0000.0001) %MON dynstat_theta_min            =   4.5566312891671E-01
(PID.TID 0000.0001) %MON dynstat_theta_mean           =   1.6700286639714E+00
(PID.TID 0000.0001) %MON dynstat_theta_sd             =   7.2173253998031E-01
(PID.TID 0000.0001) %MON dynstat_theta_del2           =   2.5485087057714E-02
(PID.TID 0000.0001) %MON dynstat_salt_max             =   3.5000000000000E+01
(PID.TID 0000.0001) %MON dynstat_salt_min             =   3.5000000000000E+01
(PID.TID 0000.0001) %MON dynstat_salt_mean            =   3.5000000000000E+01
(PID.TID 0000.0001) %MON dynstat_salt_sd              =   3.2920961442820E-14
(PID.TID 0000.0001) %MON dynstat_salt_del2            =   4.3816802038540E-15
(PID.TID 0000.0001) %MON dynstat_sst_max              =   2.9347548119599E+00
(PID.TID 0000.0001) %MON dynstat_sst_min              =   2.3696355405277E+00
(PID.TID 0000.0001) %MON dynstat_sst_mean             =   2.7463817214825E+00
(PID.TID 0000.0001) %MON dynstat_sst_sd               =   2.6639977933931E-01
(PID.TID 0000.0001) %MON dynstat_sst_del2             =   1.8837309047743E-01
(PID.TID 0000.0001) %MON dynstat_sss_max              =   3.5000000000000E+01
(PID.TID 0000.0001) %MON dynstat_sss_min              =   3.5000000000000E+01
(PID.TID 0000.0001) %MON dynstat_sss_mean             =   3.5000000000000E+01
(PID.TID 0000.0001) %MON dynstat_sss_sd               =   2.1316282072803E-14
(PID.TID 0000.0001) %MON dynstat_sss_del2             =   1.4210854715202E-14
(PID.TID 0000.0001) %MON extforcing_qnet_max          =   2.0000000000000E+02
(PID.TID 0000.0001) %MON extforcing_qnet_min          =   0.0000000000000E+00
(PID.TID 0000.0001) %MON extforcing_qnet_mean         =   6.6666666666667E+01
(PID.TID 0000.0001) %MON extforcing_qnet_sd           =   9.4280904158206E+01
(PID.TID 0000.0001) %MON extforcing_qnet_del2         =   6.6666666666667E+01
(PID.TID 0000.0001) %MON extforcing_qsw_max           =   0.0000000000000E+00
(PID.TID 0000.0001) %MON extforcing_qsw_min           =   0.0000000000000E+00
(PID.TID 0000.0001) %MON extforcing_qsw_mean          =   0.0000000000000E+00
(PID.TID 0000.0001) %MON extforcing_qsw_sd            =   0.0000000000000E+00
(PID.TID 0000.0001) %MON extforcing_qsw_del2          =   0.0000000000000E+00
(PID.TID 0000.0001) %MON extforcing_empmr_max         =   0.0000000000000E+00
(PID.TID 0000.0001) %MON extforcing_empmr_min         =   0.0000000000000E+00
(PID.TID 0000.0001) %MON extforcing_empmr_mean        =   0.0000000000000E+00
(PID.TID 0000.0001) %MON extforcing_empmr_sd          =   0.0000000000000E+00
(PID.TID 0000.0001) %MON extforcing_empmr_del2        =   0.0000000000000E+00
(PID.TID 0000.0001) %MON extforcing_fu_max            =   1.0000000000000E+00
(PID.TID 0000.0001) %MON extforcing_fu_min            =   0.0000000000000E+00
(PID.TID 0000.0001) %MON extforcing_fu_mean           =   6.6666666666667E-01
(PID.TID 0000.0001) %MON extforcing_fu_sd             =   4.7140452079103E-01
(PID.TID 0000.0001) %MON extforcing_fu_del2           =   3.3333333333333E-01
(PID.TID 0000.0001) %MON extforcing_fv_max            =   0.0000000000000E+00
(PID.TID 0000.0001) %MON extforcing_fv_min            =   0.0000000000000E+00
(PID.TID 0000.0001) %MON extforcing_fv_mean           =   0.0000000000000E+00
(PID.TID 0000.0001) %MON extforcing_fv_sd             =   0.0000000000000E+00
(PID.TID 0000.0001) %MON extforcing_fv_del2           =   0.0000000000000E+00
(PID.TID 0000.0001) %MON advcfl_uvel_max              =   3.6785468938698E-02
(PID.TID 0000.0001) %MON advcfl_vvel_max              =   1.5561709104722E-02
(PID.TID 0000.0001) %MON advcfl_wvel_max              =   6.9056528352446E-02
(PID.TID 0000.0001) %MON advcfl_W_hf_max              =   6.9056528352446E-02
(PID.TID 0000.0001) %MON pe_b_mean                    =   4.2643142248531E-08
(PID.TID 0000.0001) %MON ke_max                       =   8.1050316111303E-03
(PID.TID 0000.0001) %MON ke_mean                      =   3.9636278164423E-04
(PID.TID 0000.0001) %MON ke_vol                       =   7.5000000000000E+10
(PID.TID 0000.0001) %MON vort_r_min                   =  -8.5594904412365E-06
(PID.TID 0000.0001) %MON vort_r_max                   =   6.9722162134855E-06
(PID.TID 0000.0001) %MON vort_a_mean                  =   1.4000000000000E-04
(PID.TID 0000.0001) %MON vort_a_sd                    =   2.1437904848517E-06
(PID.TID 0000.0001) %MON vort_p_mean                  =   1.4000000000000E-04
(PID.TID 0000.0001) %MON vort_p_sd                    =   2.1437904848517E-06
(PID.TID 0000.0001) %MON surfExpan_theta_mean         =   7.5049151925948E-10
(PID.TID 0000.0001) %MON surfExpan_salt_mean          =  -3.7946475591374E-18
(PID.TID 0000.0001) // =======================================================
(PID.TID 0000.0001) // End MONITOR dynamic field statistics
(PID.TID 0000.0001) // =======================================================
 cg2d: Sum(rhs),rhsMax =  -1.11022302462516E-16  1.22746547596142E-01
(PID.TID 0000.0001)                    cg2d_init_res =    1.23519560341297E-03
(PID.TID 0000.0001)                       cg2d_iters =     1
(PID.TID 0000.0001)                         cg2d_res =    2.23930906222250E-19
(PID.TID 0000.0001) // =======================================================
(PID.TID 0000.0001) // Begin MONITOR dynamic field statistics
(PID.TID 0000.0001) // =======================================================
(PID.TID 0000.0001) %MON time_tsnumber                =                    10
(PID.TID 0000.0001) %MON time_secondsf                =   1.2000000000000E+04
(PID.TID 0000.0001) %MON dynstat_eta_max              =   2.2619669142361E-03
(PID.TID 0000.0001) %MON dynstat_eta_min              =  -4.1683377716935E-03
(PID.TID 0000.0001) %MON dynstat_eta_mean             =  -1.2417634328206E-18
(PID.TID 0000.0001) %MON dynstat_eta_sd               =   2.9510328105139E-03
(PID.TID 0000.0001) %MON dynstat_eta_del2             =   2.0841688858467E-03
(PID.TID 0000.0001) %MON dynstat_uvel_max             =   1.5975846096795E-01
(PID.TID 0000.0001) %MON dynstat_uvel_min             =  -3.1006515324893E-02
(PID.TID 0000.0001) %MON dynstat_uvel_mean            =   4.7901310366923E-03
(PID.TID 0000.0001) %MON dynstat_uvel_sd              =   2.5603020286856E-02
(PID.TID 0000.0001) %MON dynstat_uvel_del2            =   1.0031736283596E-02
(PID.TID 0000.0001) %MON dynstat_vvel_max             =   3.2553726182186E-03
(PID.TID 0000.0001) %MON dynstat_vvel_min             =  -7.5283757488194E-02
(PID.TID 0000.0001) %MON dynstat_vvel_mean            =  -5.3759766621192E-03
(PID.TID 0000.0001) %MON dynstat_vvel_sd              =   1.5020834594404E-02
(PID.TID 0000.0001) %MON dynstat_vvel_del2            =   3.8447632054948E-03
(PID.TID 0000.0001) %MON dynstat_wvel_max             =   3.1534772062078E-03
(PID.TID 0000.0001) %MON dynstat_wvel_min             =  -2.7934044875127E-03
(PID.TID 0000.0001) %MON dynstat_wvel_mean            =   4.4725373642057E-20
(PID.TID 0000.0001) %MON dynstat_wvel_sd              =   1.5928724754196E-03
(PID.TID 0000.0001) %MON dynstat_wvel_del2            =   8.8666293594254E-04
(PID.TID 0000.0001) %MON dynstat_theta_max            =   2.9347541856903E+00
(PID.TID 0000.0001) %MON dynstat_theta_min            =   4.5566375518635E-01
(PID.TID 0000.0001) %MON dynstat_theta_mean           =   1.6700086299196E+00
(PID.TID 0000.0001) %MON dynstat_theta_sd             =   7.2170768962391E-01
(PID.TID 0000.0001) %MON dynstat_theta_del2           =   2.5579192004933E-02
(PID.TID 0000.0001) %MON dynstat_salt_max             =   3.5000000000000E+01
(PID.TID 0000.0001) %MON dynstat_salt_min             =   3.5000000000000E+01
(PID.TID 0000.0001) %MON dynstat_salt_mean            =   3.5000000000000E+01
(PID.TID 0000.0001) %MON dynstat_salt_sd              =   3.9176622840643E-14
(PID.TID 0000.0001) %MON dynstat_salt_del2            =   4.9737991503207E-15
(PID.TID 0000.0001) %MON dynstat_sst_max              =   2.9347541856903E+00
(PID.TID 0000.0001) %MON dynstat_sst_min              =   2.3691188573586E+00
(PID.TID 0000.0001) %MON dynstat_sst_mean             =   2.7462090762464E+00
(PID.TID 0000.0001) %MON dynstat_sst_sd               =   2.6664305089470E-01
(PID.TID 0000.0001) %MON dynstat_sst_del2             =   1.8854510944391E-01
(PID.TID 0000.0001) %MON dynstat_sss_max              =   3.5000000000000E+01
(PID.TID 0000.0001) %MON dynstat_sss_min              =   3.5000000000000E+01
(PID.TID 0000.0001) %MON dynstat_sss_mean             =   3.5000000000000E+01
(PID.TID 0000.0001) %MON dynstat_sss_sd               =   2.0097183471152E-14
(PID.TID 0000.0001) %MON dynstat_sss_del2             =   1.4210854715202E-14
(PID.TID 0000.0001) %MON extforcing_qnet_max          =   2.0000000000000E+02
(PID.TID 0000.0001) %MON extforcing_qnet_min          =   0.0000000000000E+00
(PID.TID 0000.0001) %MON extforcing_qnet_mean         =   6.6666666666667E+01
(PID.TID 0000.0001) %MON extforcing_qnet_sd           =   9.4280904158206E+01
(PID.TID 0000.0001) %MON extforcing_qnet_del2         =   6.6666666666667E+01
(PID.TID 0000.0001) %MON extforcing_qsw_max           =   0.0000000000000E+00
(PID.TID 0000.0001) %MON extforcing_qsw_min           =   0.0000000000000E+00
(PID.TID 0000.0001) %MON extforcing_qsw_mean          =   0.0000000000000E+00
(PID.TID 0000.0001) %MON extforcing_qsw_sd            =   0.0000000000000E+00
(PID.TID 0000.0001) %MON extforcing_qsw_del2          =   0.0000000000000E+00
(PID.TID 0000.0001) %MON extforcing_empmr_max         =   0.0000000000000E+00
(PID.TID 0000.0001) %MON extforcing_empmr_min         =   0.0000000000000E+00
(PID.TID 0000.0001) %MON extforcing_empmr_mean        =   0.0000000000000E+00
(PID.TID 0000.0001) %MON extforcing_empmr_sd          =   0.0000000000000E+00
(PID.TID 0000.0001) %MON extforcing_empmr_del2        =   0.0000000000000E+00
(PID.TID 0000.0001) %MON extforcing_fu_max            =   1.0000000000000E+00
(PID.TID 0000.0001) %MON extforcing_fu_min            =   0.0000000000000E+00
(PID.TID 0000.0001) %MON extforcing_fu_mean           =   6.6666666666667E-01
(PID.TID 0000.0001) %MON extforcing_fu_sd             =   4.7140452079103E-01
(PID.TID 0000.0001) %MON extforcing_fu_del2           =   3.3333333333333E-01
(PID.TID 0000.0001) %MON extforcing_fv_max            =   0.0000000000000E+00
(PID.TID 0000.0001) %MON extforcing_fv_min            =   0.0000000000000E+00
(PID.TID 0000.0001) %MON extforcing_fv_mean           =   0.0000000000000E+00
(PID.TID 0000.0001) %MON extforcing_fv_sd             =   0.0000000000000E+00
(PID.TID 0000.0001) %MON extforcing_fv_del2           =   0.0000000000000E+00
(PID.TID 0000.0001) %MON advcfl_uvel_max              =   3.8342030632309E-02
(PID.TID 0000.0001) %MON advcfl_vvel_max              =   1.8068101797167E-02
(PID.TID 0000.0001) %MON advcfl_wvel_max              =   7.5683452948987E-02
(PID.TID 0000.0001) %MON advcfl_W_hf_max              =   7.5683452948987E-02
(PID.TID 0000.0001) %MON pe_b_mean                    =   4.2715656752017E-08
(PID.TID 0000.0001) %MON ke_max                       =   9.4548645316311E-03
(PID.TID 0000.0001) %MON ke_mean                      =   4.6649330007096E-04
(PID.TID 0000.0001) %MON ke_vol                       =   7.5000000000000E+10
(PID.TID 0000.0001) %MON vort_r_min                   =  -1.0402118030510E-05
(PID.TID 0000.0001) %MON vort_r_max                   =   8.4390048167292E-06
(PID.TID 0000.0001) %MON vort_a_mean                  =   1.4000000000000E-04
(PID.TID 0000.0001) %MON vort_a_sd                    =   2.6371020037740E-06
(PID.TID 0000.0001) %MON vort_p_mean                  =   1.4000000000000E-04
(PID.TID 0000.0001) %MON vort_p_sd                    =   2.6371020037740E-06
(PID.TID 0000.0001) %MON surfExpan_theta_mean         =   5.7371369334725E-10
(PID.TID 0000.0001) %MON surfExpan_salt_mean          =   3.7947496533963E-18
(PID.TID 0000.0001) // =======================================================
(PID.TID 0000.0001) // End MONITOR dynamic field statistics
(PID.TID 0000.0001) // =======================================================
 cg2d: Sum(rhs),rhsMax =  -1.11022302462516E-16  1.22815949899127E-01
(PID.TID 0000.0001)                    cg2d_init_res =    1.31820683877199E-03
(PID.TID 0000.0001)                       cg2d_iters =     1
(PID.TID 0000.0001)                         cg2d_res =    3.17994852214838E-17
(PID.TID 0000.0001) // =======================================================
(PID.TID 0000.0001) // Begin MONITOR dynamic field statistics
(PID.TID 0000.0001) // =======================================================
(PID.TID 0000.0001) %MON time_tsnumber                =                    11
(PID.TID 0000.0001) %MON time_secondsf                =   1.3200000000000E+04
(PID.TID 0000.0001) %MON dynstat_eta_max              =   2.2598366807929E-03
(PID.TID 0000.0001) %MON dynstat_eta_min              =  -4.1706945975810E-03
(PID.TID 0000.0001) %MON dynstat_eta_mean             =  -8.6923440297445E-19
(PID.TID 0000.0001) %MON dynstat_eta_sd               =   2.9525657332959E-03
(PID.TID 0000.0001) %MON dynstat_eta_del2             =   2.0853472987905E-03
(PID.TID 0000.0001) %MON dynstat_uvel_max             =   1.6457332404772E-01
(PID.TID 0000.0001) %MON dynstat_uvel_min             =  -4.0249119334378E-02
(PID.TID 0000.0001) %MON dynstat_uvel_mean            =   4.6169075674594E-03
(PID.TID 0000.0001) %MON dynstat_uvel_sd              =   2.6868202392594E-02
(PID.TID 0000.0001) %MON dynstat_uvel_del2            =   1.0892776792707E-02
(PID.TID 0000.0001) %MON dynstat_vvel_max             =   3.9091936837742E-03
(PID.TID 0000.0001) %MON dynstat_vvel_min             =  -8.5399010672583E-02
(PID.TID 0000.0001) %MON dynstat_vvel_mean            =  -6.1777165442106E-03
(PID.TID 0000.0001) %MON dynstat_vvel_sd              =   1.7168625206850E-02
(PID.TID 0000.0001) %MON dynstat_vvel_del2            =   4.6910102530395E-03
(PID.TID 0000.0001) %MON dynstat_wvel_max             =   3.4053657262646E-03
(PID.TID 0000.0001) %MON dynstat_wvel_min             =  -3.0350675636716E-03
(PID.TID 0000.0001) %MON dynstat_wvel_mean            =   1.4875291122331E-20
(PID.TID 0000.0001) %MON dynstat_wvel_sd              =   1.7276230967512E-03
(PID.TID 0000.0001) %MON dynstat_wvel_del2            =   9.5827414078688E-04
(PID.TID 0000.0001) %MON dynstat_theta_max            =   2.9347535594237E+00
(PID.TID 0000.0001) %MON dynstat_theta_min            =   4.5566438145297E-01
(PID.TID 0000.0001) %MON dynstat_theta_mean           =   1.6699885958677E+00
(PID.TID 0000.0001) %MON dynstat_theta_sd             =   7.2168292079006E-01
(PID.TID 0000.0001) %MON dynstat_theta_del2           =   2.5673203985341E-02
(PID.TID 0000.0001) %MON dynstat_salt_max             =   3.5000000000000E+01
(PID.TID 0000.0001) %MON dynstat_salt_min             =   3.5000000000000E+01
(PID.TID 0000.0001) %MON dynstat_salt_mean            =   3.5000000000000E+01
(PID.TID 0000.0001) %MON dynstat_salt_sd              =   4.5543147382028E-14
(PID.TID 0000.0001) %MON dynstat_salt_del2            =   7.1054273576010E-15
(PID.TID 0000.0001) %MON dynstat_sst_max              =   2.9347535594237E+00
(PID.TID 0000.0001) %MON dynstat_sst_min              =   2.3684949522707E+00
(PID.TID 0000.0001) %MON dynstat_sst_mean             =   2.7460006903727E+00
(PID.TID 0000.0001) %MON dynstat_sst_sd               =   2.6693686734874E-01
(PID.TID 0000.0001) %MON dynstat_sst_del2             =   1.8875286905099E-01
(PID.TID 0000.0001) %MON dynstat_sss_max              =   3.5000000000000E+01
(PID.TID 0000.0001) %MON dynstat_sss_min              =   3.5000000000000E+01
(PID.TID 0000.0001) %MON dynstat_sss_mean             =   3.5000000000000E+01
(PID.TID 0000.0001) %MON dynstat_sss_sd               =   3.0145775206728E-14
(PID.TID 0000.0001) %MON dynstat_sss_del2             =   2.1316282072803E-14
(PID.TID 0000.0001) %MON extforcing_qnet_max          =   2.0000000000000E+02
(PID.TID 0000.0001) %MON extforcing_qnet_min          =   0.0000000000000E+00
(PID.TID 0000.0001) %MON extforcing_qnet_mean         =   6.6666666666667E+01
(PID.TID 0000.0001) %MON extforcing_qnet_sd           =   9.4280904158206E+01
(PID.TID 0000.0001) %MON extforcing_qnet_del2         =   6.6666666666667E+01
(PID.TID 0000.0001) %MON extforcing_qsw_max           =   0.0000000000000E+00
(PID.TID 0000.0001) %MON extforcing_qsw_min           =   0.0000000000000E+00
(PID.TID 0000.0001) %MON extforcing_qsw_mean          =   0.0000000000000E+00
(PID.TID 0000.0001) %MON extforcing_qsw_sd            =   0.0000000000000E+00
(PID.TID 0000.0001) %MON extforcing_qsw_del2          =   0.0000000000000E+00
(PID.TID 0000.0001) %MON extforcing_empmr_max         =   0.0000000000000E+00
(PID.TID 0000.0001) %MON extforcing_empmr_min         =   0.0000000000000E+00
(PID.TID 0000.0001) %MON extforcing_empmr_mean        =   0.0000000000000E+00
(PID.TID 0000.0001) %MON extforcing_empmr_sd          =   0.0000000000000E+00
(PID.TID 0000.0001) %MON extforcing_empmr_del2        =   0.0000000000000E+00
(PID.TID 0000.0001) %MON extforcing_fu_max            =   1.0000000000000E+00
(PID.TID 0000.0001) %MON extforcing_fu_min            =   0.0000000000000E+00
(PID.TID 0000.0001) %MON extforcing_fu_mean           =   6.6666666666667E-01
(PID.TID 0000.0001) %MON extforcing_fu_sd             =   4.7140452079103E-01
(PID.TID 0000.0001) %MON extforcing_fu_del2           =   3.3333333333333E-01
(PID.TID 0000.0001) %MON extforcing_fv_max            =   0.0000000000000E+00
(PID.TID 0000.0001) %MON extforcing_fv_min            =   0.0000000000000E+00
(PID.TID 0000.0001) %MON extforcing_fv_mean           =   0.0000000000000E+00
(PID.TID 0000.0001) %MON extforcing_fv_sd             =   0.0000000000000E+00
(PID.TID 0000.0001) %MON extforcing_fv_del2           =   0.0000000000000E+00
(PID.TID 0000.0001) %MON advcfl_uvel_max              =   3.9497597771454E-02
(PID.TID 0000.0001) %MON advcfl_vvel_max              =   2.0495762561420E-02
(PID.TID 0000.0001) %MON advcfl_wvel_max              =   8.1728777430351E-02
(PID.TID 0000.0001) %MON advcfl_W_hf_max              =   8.1728777430351E-02
(PID.TID 0000.0001) %MON pe_b_mean                    =   4.2760045828270E-08
(PID.TID 0000.0001) %MON ke_max                       =   1.0822588160755E-02
(PID.TID 0000.0001) %MON ke_mean                      =   5.3807100424490E-04
(PID.TID 0000.0001) %MON ke_vol                       =   7.5000000000000E+10
(PID.TID 0000.0001) %MON vort_r_min                   =  -1.2347322103054E-05
(PID.TID 0000.0001) %MON vort_r_max                   =   9.9833803975645E-06
(PID.TID 0000.0001) %MON vort_a_mean                  =   1.4000000000000E-04
(PID.TID 0000.0001) %MON vort_a_sd                    =   3.1681844539741E-06
(PID.TID 0000.0001) %MON vort_p_mean                  =   1.4000000000000E-04
(PID.TID 0000.0001) %MON vort_p_sd                    =   3.1681844539741E-06
(PID.TID 0000.0001) %MON surfExpan_theta_mean         =   3.7071470677047E-10
(PID.TID 0000.0001) %MON surfExpan_salt_mean          =  -2.5297630656951E-18
(PID.TID 0000.0001) // =======================================================
(PID.TID 0000.0001) // End MONITOR dynamic field statistics
(PID.TID 0000.0001) // =======================================================
 cg2d: Sum(rhs),rhsMax =  -2.22044604925031E-16  1.22845093617912E-01
(PID.TID 0000.0001)                    cg2d_init_res =    1.67730274249214E-03
(PID.TID 0000.0001)                       cg2d_iters =     1
(PID.TID 0000.0001)                         cg2d_res =    1.27994259583015E-16
(PID.TID 0000.0001) // =======================================================
(PID.TID 0000.0001) // Begin MONITOR dynamic field statistics
(PID.TID 0000.0001) // =======================================================
(PID.TID 0000.0001) %MON time_tsnumber                =                    12
(PID.TID 0000.0001) %MON time_secondsf                =   1.4400000000000E+04
(PID.TID 0000.0001) %MON dynstat_eta_max              =   2.2554585759304E-03
(PID.TID 0000.0001) %MON dynstat_eta_min              =  -4.1716842862215E-03
(PID.TID 0000.0001) %MON dynstat_eta_mean             =  -7.4505805969238E-19
(PID.TID 0000.0001) %MON dynstat_eta_sd               =   2.9530754671712E-03
(PID.TID 0000.0001) %MON dynstat_eta_del2             =   2.0858421431108E-03
(PID.TID 0000.0001) %MON dynstat_uvel_max             =   1.6785816781032E-01
(PID.TID 0000.0001) %MON dynstat_uvel_min             =  -5.0366836895738E-02
(PID.TID 0000.0001) %MON dynstat_uvel_mean            =   4.3105180880307E-03
(PID.TID 0000.0001) %MON dynstat_uvel_sd              =   2.7976338285807E-02
(PID.TID 0000.0001) %MON dynstat_uvel_del2            =   1.1679166141868E-02
(PID.TID 0000.0001) %MON dynstat_vvel_max             =   4.6060141804261E-03
(PID.TID 0000.0001) %MON dynstat_vvel_min             =  -9.4989125166639E-02
(PID.TID 0000.0001) %MON dynstat_vvel_mean            =  -6.9385151770573E-03
(PID.TID 0000.0001) %MON dynstat_vvel_sd              =   1.9267923081190E-02
(PID.TID 0000.0001) %MON dynstat_vvel_del2            =   5.6050548496269E-03
(PID.TID 0000.0001) %MON dynstat_wvel_max             =   3.6315854103140E-03
(PID.TID 0000.0001) %MON dynstat_wvel_min             =  -3.2530560316160E-03
(PID.TID 0000.0001) %MON dynstat_wvel_mean            =  -2.1720910046855E-19
(PID.TID 0000.0001) %MON dynstat_wvel_sd              =   1.8500855330152E-03
(PID.TID 0000.0001) %MON dynstat_wvel_del2            =   1.0225860960625E-03
(PID.TID 0000.0001) %MON dynstat_theta_max            =   2.9347529331601E+00
(PID.TID 0000.0001) %MON dynstat_theta_min            =   4.5566500771660E-01
(PID.TID 0000.0001) %MON dynstat_theta_mean           =   1.6699685618158E+00
(PID.TID 0000.0001) %MON dynstat_theta_sd             =   7.2165814040856E-01
(PID.TID 0000.0001) %MON dynstat_theta_del2           =   2.5768504753696E-02
(PID.TID 0000.0001) %MON dynstat_salt_max             =   3.5000000000000E+01
(PID.TID 0000.0001) %MON dynstat_salt_min             =   3.5000000000000E+01
(PID.TID 0000.0001) %MON dynstat_salt_mean            =   3.5000000000000E+01
(PID.TID 0000.0001) %MON dynstat_salt_sd              =   5.2399014074553E-14
(PID.TID 0000.0001) %MON dynstat_salt_del2            =   9.3554793541747E-15
(PID.TID 0000.0001) %MON dynstat_sst_max              =   2.9347529331601E+00
(PID.TID 0000.0001) %MON dynstat_sst_min              =   2.3678252198935E+00
(PID.TID 0000.0001) %MON dynstat_sst_mean             =   2.7457770287379E+00
(PID.TID 0000.0001) %MON dynstat_sst_sd               =   2.6725228699558E-01
(PID.TID 0000.0001) %MON dynstat_sst_del2             =   1.8897590442219E-01
(PID.TID 0000.0001) %MON dynstat_sss_max              =   3.5000000000000E+01
(PID.TID 0000.0001) %MON dynstat_sss_min              =   3.5000000000000E+01
(PID.TID 0000.0001) %MON dynstat_sss_mean             =   3.5000000000000E+01
(PID.TID 0000.0001) %MON dynstat_sss_sd               =   4.0194366942305E-14
(PID.TID 0000.0001) %MON dynstat_sss_del2             =   2.8421709430404E-14
(PID.TID 0000.0001) %MON extforcing_qnet_max          =   2.0000000000000E+02
(PID.TID 0000.0001) %MON extforcing_qnet_min          =   0.0000000000000E+00
(PID.TID 0000.0001) %MON extforcing_qnet_mean         =   6.6666666666667E+01
(PID.TID 0000.0001) %MON extforcing_qnet_sd           =   9.4280904158206E+01
(PID.TID 0000.0001) %MON extforcing_qnet_del2         =   6.6666666666667E+01
(PID.TID 0000.0001) %MON extforcing_qsw_max           =   0.0000000000000E+00
(PID.TID 0000.0001) %MON extforcing_qsw_min           =   0.0000000000000E+00
(PID.TID 0000.0001) %MON extforcing_qsw_mean          =   0.0000000000000E+00
(PID.TID 0000.0001) %MON extforcing_qsw_sd            =   0.0000000000000E+00
(PID.TID 0000.0001) %MON extforcing_qsw_del2          =   0.0000000000000E+00
(PID.TID 0000.0001) %MON extforcing_empmr_max         =   0.0000000000000E+00
(PID.TID 0000.0001) %MON extforcing_empmr_min         =   0.0000000000000E+00
(PID.TID 0000.0001) %MON extforcing_empmr_mean        =   0.0000000000000E+00
(PID.TID 0000.0001) %MON extforcing_empmr_sd          =   0.0000000000000E+00
(PID.TID 0000.0001) %MON extforcing_empmr_del2        =   0.0000000000000E+00
(PID.TID 0000.0001) %MON extforcing_fu_max            =   1.0000000000000E+00
(PID.TID 0000.0001) %MON extforcing_fu_min            =   0.0000000000000E+00
(PID.TID 0000.0001) %MON extforcing_fu_mean           =   6.6666666666667E-01
(PID.TID 0000.0001) %MON extforcing_fu_sd             =   4.7140452079103E-01
(PID.TID 0000.0001) %MON extforcing_fu_del2           =   3.3333333333333E-01
(PID.TID 0000.0001) %MON extforcing_fv_max            =   0.0000000000000E+00
(PID.TID 0000.0001) %MON extforcing_fv_min            =   0.0000000000000E+00
(PID.TID 0000.0001) %MON extforcing_fv_mean           =   0.0000000000000E+00
(PID.TID 0000.0001) %MON extforcing_fv_sd             =   0.0000000000000E+00
(PID.TID 0000.0001) %MON extforcing_fv_del2           =   0.0000000000000E+00
(PID.TID 0000.0001) %MON advcfl_uvel_max              =   4.0285960274478E-02
(PID.TID 0000.0001) %MON advcfl_vvel_max              =   2.2797390039993E-02
(PID.TID 0000.0001) %MON advcfl_wvel_max              =   8.7158049847536E-02
(PID.TID 0000.0001) %MON advcfl_W_hf_max              =   8.7158049847536E-02
(PID.TID 0000.0001) %MON pe_b_mean                    =   4.2774811376137E-08
(PID.TID 0000.0001) %MON ke_max                       =   1.2189762639842E-02
(PID.TID 0000.0001) %MON ke_mean                      =   6.1032596139701E-04
(PID.TID 0000.0001) %MON ke_vol                       =   7.5000000000000E+10
(PID.TID 0000.0001) %MON vort_r_min                   =  -1.4377230362280E-05
(PID.TID 0000.0001) %MON vort_r_max                   =   1.1592903249508E-05
(PID.TID 0000.0001) %MON vort_a_mean                  =   1.4000000000000E-04
(PID.TID 0000.0001) %MON vort_a_sd                    =   3.7324191276832E-06
(PID.TID 0000.0001) %MON vort_p_mean                  =   1.4000000000000E-04
(PID.TID 0000.0001) %MON vort_p_sd                    =   3.7324191276832E-06
(PID.TID 0000.0001) %MON surfExpan_theta_mean         =   1.5585608702671E-10
(PID.TID 0000.0001) %MON surfExpan_salt_mean          =  -1.7708613834581E-17
(PID.TID 0000.0001) // =======================================================
(PID.TID 0000.0001) // End MONITOR dynamic field statistics
(PID.TID 0000.0001) // =======================================================
 cg2d: Sum(rhs),rhsMax =   4.44089209850063E-16  1.22833030068794E-01
(PID.TID 0000.0001)                    cg2d_init_res =    2.17988941331296E-03
(PID.TID 0000.0001)                       cg2d_iters =     1
(PID.TID 0000.0001)                         cg2d_res =    1.92132017028614E-16
(PID.TID 0000.0001) // =======================================================
(PID.TID 0000.0001) // Begin MONITOR dynamic field statistics
(PID.TID 0000.0001) // =======================================================
(PID.TID 0000.0001) %MON time_tsnumber                =                    13
(PID.TID 0000.0001) %MON time_secondsf                =   1.5600000000000E+04
(PID.TID 0000.0001) %MON dynstat_eta_max              =   2.2488338755624E-03
(PID.TID 0000.0001) %MON dynstat_eta_min              =  -4.1712746213598E-03
(PID.TID 0000.0001) %MON dynstat_eta_mean             =  -1.6142924626668E-18
(PID.TID 0000.0001) %MON dynstat_eta_sd               =   2.9525449015936E-03
(PID.TID 0000.0001) %MON dynstat_eta_del2             =   2.0856373106799E-03
(PID.TID 0000.0001) %MON dynstat_uvel_max             =   1.6976442917504E-01
(PID.TID 0000.0001) %MON dynstat_uvel_min             =  -6.1193880961138E-02
(PID.TID 0000.0001) %MON dynstat_uvel_mean            =   3.8798222044269E-03
(PID.TID 0000.0001) %MON dynstat_uvel_sd              =   2.8956686987171E-02
(PID.TID 0000.0001) %MON dynstat_uvel_del2            =   1.2389311355534E-02
(PID.TID 0000.0001) %MON dynstat_vvel_max             =   5.3388480678422E-03
(PID.TID 0000.0001) %MON dynstat_vvel_min             =  -1.0388693429789E-01
(PID.TID 0000.0001) %MON dynstat_vvel_mean            =  -7.6364306577994E-03
(PID.TID 0000.0001) %MON dynstat_vvel_sd              =   2.1290484928429E-02
(PID.TID 0000.0001) %MON dynstat_vvel_del2            =   6.5719598047158E-03
(PID.TID 0000.0001) %MON dynstat_wvel_max             =   3.8309161422602E-03
(PID.TID 0000.0001) %MON dynstat_wvel_min             =  -3.4586809289423E-03
(PID.TID 0000.0001) %MON dynstat_wvel_mean            =  -7.9873845809036E-20
(PID.TID 0000.0001) %MON dynstat_wvel_sd              =   1.9597456232521E-03
(PID.TID 0000.0001) %MON dynstat_wvel_del2            =   1.0790614769103E-03
(PID.TID 0000.0001) %MON dynstat_theta_max            =   2.9347523068994E+00
(PID.TID 0000.0001) %MON dynstat_theta_min            =   4.5566563397721E-01
(PID.TID 0000.0001) %MON dynstat_theta_mean           =   1.6699485277639E+00
(PID.TID 0000.0001) %MON dynstat_theta_sd             =   7.2163327892208E-01
(PID.TID 0000.0001) %MON dynstat_theta_del2           =   2.5865834174273E-02
(PID.TID 0000.0001) %MON dynstat_salt_max             =   3.5000000000000E+01
(PID.TID 0000.0001) %MON dynstat_salt_min             =   3.5000000000000E+01
(PID.TID 0000.0001) %MON dynstat_salt_mean            =   3.5000000000000E+01
(PID.TID 0000.0001) %MON dynstat_salt_sd              =   5.2775040527699E-14
(PID.TID 0000.0001) %MON dynstat_salt_del2            =   9.8291745113481E-15
(PID.TID 0000.0001) %MON dynstat_sst_max              =   2.9347523068994E+00
(PID.TID 0000.0001) %MON dynstat_sst_min              =   2.3671329292322E+00
(PID.TID 0000.0001) %MON dynstat_sst_mean             =   2.7455458476770E+00
(PID.TID 0000.0001) %MON dynstat_sst_sd               =   2.6757834072095E-01
(PID.TID 0000.0001) %MON dynstat_sst_del2             =   1.8920645922243E-01
(PID.TID 0000.0001) %MON dynstat_sss_max              =   3.5000000000000E+01
(PID.TID 0000.0001) %MON dynstat_sss_min              =   3.5000000000000E+01
(PID.TID 0000.0001) %MON dynstat_sss_mean             =   3.5000000000000E+01
(PID.TID 0000.0001) %MON dynstat_sss_sd               =   4.0194366942305E-14
(PID.TID 0000.0001) %MON dynstat_sss_del2             =   2.8421709430404E-14
(PID.TID 0000.0001) %MON extforcing_qnet_max          =   2.0000000000000E+02
(PID.TID 0000.0001) %MON extforcing_qnet_min          =   0.0000000000000E+00
(PID.TID 0000.0001) %MON extforcing_qnet_mean         =   6.6666666666667E+01
(PID.TID 0000.0001) %MON extforcing_qnet_sd           =   9.4280904158206E+01
(PID.TID 0000.0001) %MON extforcing_qnet_del2         =   6.6666666666667E+01
(PID.TID 0000.0001) %MON extforcing_qsw_max           =   0.0000000000000E+00
(PID.TID 0000.0001) %MON extforcing_qsw_min           =   0.0000000000000E+00
(PID.TID 0000.0001) %MON extforcing_qsw_mean          =   0.0000000000000E+00
(PID.TID 0000.0001) %MON extforcing_qsw_sd            =   0.0000000000000E+00
(PID.TID 0000.0001) %MON extforcing_qsw_del2          =   0.0000000000000E+00
(PID.TID 0000.0001) %MON extforcing_empmr_max         =   0.0000000000000E+00
(PID.TID 0000.0001) %MON extforcing_empmr_min         =   0.0000000000000E+00
(PID.TID 0000.0001) %MON extforcing_empmr_mean        =   0.0000000000000E+00
(PID.TID 0000.0001) %MON extforcing_empmr_sd          =   0.0000000000000E+00
(PID.TID 0000.0001) %MON extforcing_empmr_del2        =   0.0000000000000E+00
(PID.TID 0000.0001) %MON extforcing_fu_max            =   1.0000000000000E+00
(PID.TID 0000.0001) %MON extforcing_fu_min            =   0.0000000000000E+00
(PID.TID 0000.0001) %MON extforcing_fu_mean           =   6.6666666666667E-01
(PID.TID 0000.0001) %MON extforcing_fu_sd             =   4.7140452079103E-01
(PID.TID 0000.0001) %MON extforcing_fu_del2           =   3.3333333333333E-01
(PID.TID 0000.0001) %MON extforcing_fv_max            =   0.0000000000000E+00
(PID.TID 0000.0001) %MON extforcing_fv_min            =   0.0000000000000E+00
(PID.TID 0000.0001) %MON extforcing_fv_mean           =   0.0000000000000E+00
(PID.TID 0000.0001) %MON extforcing_fv_sd             =   0.0000000000000E+00
(PID.TID 0000.0001) %MON extforcing_fv_del2           =   0.0000000000000E+00
(PID.TID 0000.0001) %MON advcfl_uvel_max              =   4.0743463002009E-02
(PID.TID 0000.0001) %MON advcfl_vvel_max              =   2.4932864231493E-02
(PID.TID 0000.0001) %MON advcfl_wvel_max              =   9.1941987414244E-02
(PID.TID 0000.0001) %MON advcfl_W_hf_max              =   9.1941987414244E-02
(PID.TID 0000.0001) %MON pe_b_mean                    =   4.2759442447019E-08
(PID.TID 0000.0001) %MON ke_max                       =   1.3537410678960E-02
(PID.TID 0000.0001) %MON ke_mean                      =   6.8257128164501E-04
(PID.TID 0000.0001) %MON ke_vol                       =   7.5000000000000E+10
(PID.TID 0000.0001) %MON vort_r_min                   =  -1.6475849792471E-05
(PID.TID 0000.0001) %MON vort_r_max                   =   1.3255602548436E-05
(PID.TID 0000.0001) %MON vort_a_mean                  =   1.4000000000000E-04
(PID.TID 0000.0001) %MON vort_a_sd                    =   4.3251904835900E-06
(PID.TID 0000.0001) %MON vort_p_mean                  =   1.4000000000000E-04
(PID.TID 0000.0001) %MON vort_p_sd                    =   4.3251904835900E-06
(PID.TID 0000.0001) %MON surfExpan_theta_mean         =  -6.4592698204812E-11
(PID.TID 0000.0001) %MON surfExpan_salt_mean          =  -1.1842378929335E-23
(PID.TID 0000.0001) // =======================================================
(PID.TID 0000.0001) // End MONITOR dynamic field statistics
(PID.TID 0000.0001) // =======================================================
 cg2d: Sum(rhs),rhsMax =   1.11022302462516E-16  1.22780841932118E-01
(PID.TID 0000.0001)                    cg2d_init_res =    2.72203446841560E-03
(PID.TID 0000.0001)                       cg2d_iters =     1
(PID.TID 0000.0001)                         cg2d_res =    1.92014875441189E-16
(PID.TID 0000.0001) // =======================================================
(PID.TID 0000.0001) // Begin MONITOR dynamic field statistics
(PID.TID 0000.0001) // =======================================================
(PID.TID 0000.0001) %MON time_tsnumber                =                    14
(PID.TID 0000.0001) %MON time_secondsf                =   1.6800000000000E+04
(PID.TID 0000.0001) %MON dynstat_eta_max              =   2.2400705516548E-03
(PID.TID 0000.0001) %MON dynstat_eta_min              =  -4.1695023696296E-03
(PID.TID 0000.0001) %MON dynstat_eta_mean             =  -1.8626451492310E-18
(PID.TID 0000.0001) %MON dynstat_eta_sd               =   2.9510096140672E-03
(PID.TID 0000.0001) %MON dynstat_eta_del2             =   2.0847511848148E-03
(PID.TID 0000.0001) %MON dynstat_uvel_max             =   1.7045208100099E-01
(PID.TID 0000.0001) %MON dynstat_uvel_min             =  -7.2547028655897E-02
(PID.TID 0000.0001) %MON dynstat_uvel_mean            =   3.3372642611945E-03
(PID.TID 0000.0001) %MON dynstat_uvel_sd              =   2.9837596104622E-02
(PID.TID 0000.0001) %MON dynstat_uvel_del2            =   1.3022222359880E-02
(PID.TID 0000.0001) %MON dynstat_vvel_max             =   6.0998275080263E-03
(PID.TID 0000.0001) %MON dynstat_vvel_min             =  -1.1195746113631E-01
(PID.TID 0000.0001) %MON dynstat_vvel_mean            =  -8.2513385891061E-03
(PID.TID 0000.0001) %MON dynstat_vvel_sd              =   2.3214412289300E-02
(PID.TID 0000.0001) %MON dynstat_vvel_del2            =   7.5821909106682E-03
(PID.TID 0000.0001) %MON dynstat_wvel_max             =   4.0023832807735E-03
(PID.TID 0000.0001) %MON dynstat_wvel_min             =  -3.6471322272906E-03
(PID.TID 0000.0001) %MON dynstat_wvel_mean            =  -2.6715823855156E-20
(PID.TID 0000.0001) %MON dynstat_wvel_sd              =   2.0562280569326E-03
(PID.TID 0000.0001) %MON dynstat_wvel_del2            =   1.1272325398650E-03
(PID.TID 0000.0001) %MON dynstat_theta_max            =   2.9347516806418E+00
(PID.TID 0000.0001) %MON dynstat_theta_min            =   4.5566626023482E-01
(PID.TID 0000.0001) %MON dynstat_theta_mean           =   1.6699284937120E+00
(PID.TID 0000.0001) %MON dynstat_theta_sd             =   7.2160829228500E-01
(PID.TID 0000.0001) %MON dynstat_theta_del2           =   2.5965431049285E-02
(PID.TID 0000.0001) %MON dynstat_salt_max             =   3.5000000000000E+01
(PID.TID 0000.0001) %MON dynstat_salt_min             =   3.5000000000000E+01
(PID.TID 0000.0001) %MON dynstat_salt_mean            =   3.5000000000000E+01
(PID.TID 0000.0001) %MON dynstat_salt_sd              =   5.8772093295439E-14
(PID.TID 0000.0001) %MON dynstat_salt_del2            =   1.0066022089935E-14
(PID.TID 0000.0001) %MON dynstat_sst_max              =   2.9347516806418E+00
(PID.TID 0000.0001) %MON dynstat_sst_min              =   2.3664247213325E+00
(PID.TID 0000.0001) %MON dynstat_sst_mean             =   2.7453093608721E+00
(PID.TID 0000.0001) %MON dynstat_sst_sd               =   2.6791189790583E-01
(PID.TID 0000.0001) %MON dynstat_sst_del2             =   1.8944231976977E-01
(PID.TID 0000.0001) %MON dynstat_sss_max              =   3.5000000000000E+01
(PID.TID 0000.0001) %MON dynstat_sss_min              =   3.5000000000000E+01
(PID.TID 0000.0001) %MON dynstat_sss_mean             =   3.5000000000000E+01
(PID.TID 0000.0001) %MON dynstat_sss_sd               =   4.0194366942305E-14
(PID.TID 0000.0001) %MON dynstat_sss_del2             =   2.8421709430404E-14
(PID.TID 0000.0001) %MON extforcing_qnet_max          =   2.0000000000000E+02
(PID.TID 0000.0001) %MON extforcing_qnet_min          =   0.0000000000000E+00
(PID.TID 0000.0001) %MON extforcing_qnet_mean         =   6.6666666666667E+01
(PID.TID 0000.0001) %MON extforcing_qnet_sd           =   9.4280904158206E+01
(PID.TID 0000.0001) %MON extforcing_qnet_del2         =   6.6666666666667E+01
(PID.TID 0000.0001) %MON extforcing_qsw_max           =   0.0000000000000E+00
(PID.TID 0000.0001) %MON extforcing_qsw_min           =   0.0000000000000E+00
(PID.TID 0000.0001) %MON extforcing_qsw_mean          =   0.0000000000000E+00
(PID.TID 0000.0001) %MON extforcing_qsw_sd            =   0.0000000000000E+00
(PID.TID 0000.0001) %MON extforcing_qsw_del2          =   0.0000000000000E+00
(PID.TID 0000.0001) %MON extforcing_empmr_max         =   0.0000000000000E+00
(PID.TID 0000.0001) %MON extforcing_empmr_min         =   0.0000000000000E+00
(PID.TID 0000.0001) %MON extforcing_empmr_mean        =   0.0000000000000E+00
(PID.TID 0000.0001) %MON extforcing_empmr_sd          =   0.0000000000000E+00
(PID.TID 0000.0001) %MON extforcing_empmr_del2        =   0.0000000000000E+00
(PID.TID 0000.0001) %MON extforcing_fu_max            =   1.0000000000000E+00
(PID.TID 0000.0001) %MON extforcing_fu_min            =   0.0000000000000E+00
(PID.TID 0000.0001) %MON extforcing_fu_mean           =   6.6666666666667E-01
(PID.TID 0000.0001) %MON extforcing_fu_sd             =   4.7140452079103E-01
(PID.TID 0000.0001) %MON extforcing_fu_del2           =   3.3333333333333E-01
(PID.TID 0000.0001) %MON extforcing_fv_max            =   0.0000000000000E+00
(PID.TID 0000.0001) %MON extforcing_fv_min            =   0.0000000000000E+00
(PID.TID 0000.0001) %MON extforcing_fv_mean           =   0.0000000000000E+00
(PID.TID 0000.0001) %MON extforcing_fv_sd             =   0.0000000000000E+00
(PID.TID 0000.0001) %MON extforcing_fv_del2           =   0.0000000000000E+00
(PID.TID 0000.0001) %MON advcfl_uvel_max              =   4.0908499440238E-02
(PID.TID 0000.0001) %MON advcfl_vvel_max              =   2.6869790672713E-02
(PID.TID 0000.0001) %MON advcfl_wvel_max              =   9.6057198738564E-02
(PID.TID 0000.0001) %MON advcfl_W_hf_max              =   9.6057198738564E-02
(PID.TID 0000.0001) %MON pe_b_mean                    =   4.2714985226066E-08
(PID.TID 0000.0001) %MON ke_max                       =   1.4846482373136E-02
(PID.TID 0000.0001) %MON ke_mean                      =   7.5420650025064E-04
(PID.TID 0000.0001) %MON ke_vol                       =   7.5000000000000E+10
(PID.TID 0000.0001) %MON vort_r_min                   =  -1.8629258094313E-05
(PID.TID 0000.0001) %MON vort_r_max                   =   1.5141061089060E-05
(PID.TID 0000.0001) %MON vort_a_mean                  =   1.4000000000000E-04
(PID.TID 0000.0001) %MON vort_a_sd                    =   4.9419279803211E-06
(PID.TID 0000.0001) %MON vort_p_mean                  =   1.4000000000000E-04
(PID.TID 0000.0001) %MON vort_p_sd                    =   4.9419279803211E-06
(PID.TID 0000.0001) %MON surfExpan_theta_mean         =  -2.7978289824068E-10
(PID.TID 0000.0001) %MON surfExpan_salt_mean          =   7.5893780149272E-18
(PID.TID 0000.0001) // =======================================================
(PID.TID 0000.0001) // End MONITOR dynamic field statistics
(PID.TID 0000.0001) // =======================================================
 cg2d: Sum(rhs),rhsMax =  -4.44089209850063E-16  1.22691928686386E-01
(PID.TID 0000.0001)                    cg2d_init_res =    3.24020474852016E-03
(PID.TID 0000.0001)                       cg2d_iters =     1
(PID.TID 0000.0001)                         cg2d_res =    1.92233692579822E-16
(PID.TID 0000.0001) // =======================================================
(PID.TID 0000.0001) // Begin MONITOR dynamic field statistics
(PID.TID 0000.0001) // =======================================================
(PID.TID 0000.0001) %MON time_tsnumber                =                    15
(PID.TID 0000.0001) %MON time_secondsf                =   1.8000000000000E+04
(PID.TID 0000.0001) %MON dynstat_eta_max              =   2.2293798451067E-03
(PID.TID 0000.0001) %MON dynstat_eta_min              =  -4.1664829735827E-03
(PID.TID 0000.0001) %MON dynstat_eta_mean             =  -1.1175870895386E-18
(PID.TID 0000.0001) %MON dynstat_eta_sd               =   2.9485636838566E-03
(PID.TID 0000.0001) %MON dynstat_eta_del2             =   2.0832414867914E-03
(PID.TID 0000.0001) %MON dynstat_uvel_max             =   1.7008674197929E-01
(PID.TID 0000.0001) %MON dynstat_uvel_min             =  -8.4231209501864E-02
(PID.TID 0000.0001) %MON dynstat_uvel_mean            =   2.6985137825473E-03
(PID.TID 0000.0001) %MON dynstat_uvel_sd              =   3.0644498475756E-02
(PID.TID 0000.0001) %MON dynstat_uvel_del2            =   1.3585636404138E-02
(PID.TID 0000.0001) %MON dynstat_vvel_max             =   6.8803035785814E-03
(PID.TID 0000.0001) %MON dynstat_vvel_min             =  -1.1909931887944E-01
(PID.TID 0000.0001) %MON dynstat_vvel_mean            =  -8.7655123671121E-03
(PID.TID 0000.0001) %MON dynstat_vvel_sd              =   2.5024715633911E-02
(PID.TID 0000.0001) %MON dynstat_vvel_del2            =   8.6260309974843E-03
(PID.TID 0000.0001) %MON dynstat_wvel_max             =   4.1452681104431E-03
(PID.TID 0000.0001) %MON dynstat_wvel_min             =  -3.8129009755804E-03
(PID.TID 0000.0001) %MON dynstat_wvel_mean            =  -1.6137078985508E-19
(PID.TID 0000.0001) %MON dynstat_wvel_sd              =   2.1392899934971E-03
(PID.TID 0000.0001) %MON dynstat_wvel_del2            =   1.1667101914708E-03
(PID.TID 0000.0001) %MON dynstat_theta_max            =   2.9347510543872E+00
(PID.TID 0000.0001) %MON dynstat_theta_min            =   4.5566688648943E-01
(PID.TID 0000.0001) %MON dynstat_theta_mean           =   1.6699084596602E+00
(PID.TID 0000.0001) %MON dynstat_theta_sd             =   7.2158316068312E-01
(PID.TID 0000.0001) %MON dynstat_theta_del2           =   2.6067156937012E-02
(PID.TID 0000.0001) %MON dynstat_salt_max             =   3.5000000000000E+01
(PID.TID 0000.0001) %MON dynstat_salt_min             =   3.5000000000000E+01
(PID.TID 0000.0001) %MON dynstat_salt_mean            =   3.5000000000000E+01
(PID.TID 0000.0001) %MON dynstat_salt_sd              =   4.2056287650713E-14
(PID.TID 0000.0001) %MON dynstat_salt_del2            =   1.1013412404282E-14
(PID.TID 0000.0001) %MON dynstat_sst_max              =   2.9347510543872E+00
(PID.TID 0000.0001) %MON dynstat_sst_min              =   2.3657027257687E+00
(PID.TID 0000.0001) %MON dynstat_sst_mean             =   2.7450682781810E+00
(PID.TID 0000.0001) %MON dynstat_sst_sd               =   2.6825195465938E-01
(PID.TID 0000.0001) %MON dynstat_sst_del2             =   1.8968277620619E-01
(PID.TID 0000.0001) %MON dynstat_sss_max              =   3.5000000000000E+01
(PID.TID 0000.0001) %MON dynstat_sss_min              =   3.5000000000000E+01
(PID.TID 0000.0001) %MON dynstat_sss_mean             =   3.5000000000000E+01
(PID.TID 0000.0001) %MON dynstat_sss_sd               =   4.3800795900274E-14
(PID.TID 0000.0001) %MON dynstat_sss_del2             =   3.0790185216271E-14
(PID.TID 0000.0001) %MON extforcing_qnet_max          =   2.0000000000000E+02
(PID.TID 0000.0001) %MON extforcing_qnet_min          =   0.0000000000000E+00
(PID.TID 0000.0001) %MON extforcing_qnet_mean         =   6.6666666666667E+01
(PID.TID 0000.0001) %MON extforcing_qnet_sd           =   9.4280904158206E+01
(PID.TID 0000.0001) %MON extforcing_qnet_del2         =   6.6666666666667E+01
(PID.TID 0000.0001) %MON extforcing_qsw_max           =   0.0000000000000E+00
(PID.TID 0000.0001) %MON extforcing_qsw_min           =   0.0000000000000E+00
(PID.TID 0000.0001) %MON extforcing_qsw_mean          =   0.0000000000000E+00
(PID.TID 0000.0001) %MON extforcing_qsw_sd            =   0.0000000000000E+00
(PID.TID 0000.0001) %MON extforcing_qsw_del2          =   0.0000000000000E+00
(PID.TID 0000.0001) %MON extforcing_empmr_max         =   0.0000000000000E+00
(PID.TID 0000.0001) %MON extforcing_empmr_min         =   0.0000000000000E+00
(PID.TID 0000.0001) %MON extforcing_empmr_mean        =   0.0000000000000E+00
(PID.TID 0000.0001) %MON extforcing_empmr_sd          =   0.0000000000000E+00
(PID.TID 0000.0001) %MON extforcing_empmr_del2        =   0.0000000000000E+00
(PID.TID 0000.0001) %MON extforcing_fu_max            =   1.0000000000000E+00
(PID.TID 0000.0001) %MON extforcing_fu_min            =   0.0000000000000E+00
(PID.TID 0000.0001) %MON extforcing_fu_mean           =   6.6666666666667E-01
(PID.TID 0000.0001) %MON extforcing_fu_sd             =   4.7140452079103E-01
(PID.TID 0000.0001) %MON extforcing_fu_del2           =   3.3333333333333E-01
(PID.TID 0000.0001) %MON extforcing_fv_max            =   0.0000000000000E+00
(PID.TID 0000.0001) %MON extforcing_fv_min            =   0.0000000000000E+00
(PID.TID 0000.0001) %MON extforcing_fv_mean           =   0.0000000000000E+00
(PID.TID 0000.0001) %MON extforcing_fv_sd             =   0.0000000000000E+00
(PID.TID 0000.0001) %MON extforcing_fv_del2           =   0.0000000000000E+00
(PID.TID 0000.0001) %MON advcfl_uvel_max              =   4.0820818075030E-02
(PID.TID 0000.0001) %MON advcfl_vvel_max              =   2.8583836531065E-02
(PID.TID 0000.0001) %MON advcfl_wvel_max              =   9.9486434650634E-02
(PID.TID 0000.0001) %MON advcfl_W_hf_max              =   9.9486434650634E-02
(PID.TID 0000.0001) %MON pe_b_mean                    =   4.2644206348003E-08
(PID.TID 0000.0001) %MON ke_max                       =   1.6098422991592E-02
(PID.TID 0000.0001) %MON ke_mean                      =   8.2471893154064E-04
(PID.TID 0000.0001) %MON ke_vol                       =   7.5000000000000E+10
(PID.TID 0000.0001) %MON vort_r_min                   =  -2.0825685307908E-05
(PID.TID 0000.0001) %MON vort_r_max                   =   1.7182200653939E-05
(PID.TID 0000.0001) %MON vort_a_mean                  =   1.4000000000000E-04
(PID.TID 0000.0001) %MON vort_a_sd                    =   5.5781364868592E-06
(PID.TID 0000.0001) %MON vort_p_mean                  =   1.4000000000000E-04
(PID.TID 0000.0001) %MON vort_p_sd                    =   5.5781364868592E-06
(PID.TID 0000.0001) %MON surfExpan_theta_mean         =  -4.7727285489562E-10
(PID.TID 0000.0001) %MON surfExpan_salt_mean          =  -1.0119300952738E-17
(PID.TID 0000.0001) // =======================================================
(PID.TID 0000.0001) // End MONITOR dynamic field statistics
(PID.TID 0000.0001) // =======================================================
 cg2d: Sum(rhs),rhsMax =   2.22044604925031E-16  1.22571442135210E-01
(PID.TID 0000.0001)                    cg2d_init_res =    3.69374007937123E-03
(PID.TID 0000.0001)                       cg2d_iters =     1
(PID.TID 0000.0001)                         cg2d_res =    1.28324293111153E-16
(PID.TID 0000.0001) // =======================================================
(PID.TID 0000.0001) // Begin MONITOR dynamic field statistics
(PID.TID 0000.0001) // =======================================================
(PID.TID 0000.0001) %MON time_tsnumber                =                    16
(PID.TID 0000.0001) %MON time_secondsf                =   1.9200000000000E+04
(PID.TID 0000.0001) %MON dynstat_eta_max              =   2.2170560987397E-03
(PID.TID 0000.0001) %MON dynstat_eta_min              =  -4.1623913828041E-03
(PID.TID 0000.0001) %MON dynstat_eta_mean             =  -1.7384688059489E-18
(PID.TID 0000.0001) %MON dynstat_eta_sd               =   2.9453448658308E-03
(PID.TID 0000.0001) %MON dynstat_eta_del2             =   2.0811956914021E-03
(PID.TID 0000.0001) %MON dynstat_uvel_max             =   1.6883627258445E-01
(PID.TID 0000.0001) %MON dynstat_uvel_min             =  -9.6045004547842E-02
(PID.TID 0000.0001) %MON dynstat_uvel_mean            =   1.9820129243147E-03
(PID.TID 0000.0001) %MON dynstat_uvel_sd              =   3.1398114390045E-02
(PID.TID 0000.0001) %MON dynstat_uvel_del2            =   1.4096907475549E-02
(PID.TID 0000.0001) %MON dynstat_vvel_max             =   8.1488390137837E-03
(PID.TID 0000.0001) %MON dynstat_vvel_min             =  -1.2524518034193E-01
(PID.TID 0000.0001) %MON dynstat_vvel_mean            =  -9.1641342061478E-03
(PID.TID 0000.0001) %MON dynstat_vvel_sd              =   2.6713595108483E-02
(PID.TID 0000.0001) %MON dynstat_vvel_del2            =   9.6938079046168E-03
(PID.TID 0000.0001) %MON dynstat_wvel_max             =   4.2591128242669E-03
(PID.TID 0000.0001) %MON dynstat_wvel_min             =  -3.9562762420005E-03
(PID.TID 0000.0001) %MON dynstat_wvel_mean            =   6.8157688420043E-20
(PID.TID 0000.0001) %MON dynstat_wvel_sd              =   2.2088177579479E-03
(PID.TID 0000.0001) %MON dynstat_wvel_del2            =   1.2034771767430E-03
(PID.TID 0000.0001) %MON dynstat_theta_max            =   2.9347504281356E+00
(PID.TID 0000.0001) %MON dynstat_theta_min            =   4.5566751274102E-01
(PID.TID 0000.0001) %MON dynstat_theta_mean           =   1.6698884256083E+00
(PID.TID 0000.0001) %MON dynstat_theta_sd             =   7.2155788309468E-01
(PID.TID 0000.0001) %MON dynstat_theta_del2           =   2.6170639390842E-02
(PID.TID 0000.0001) %MON dynstat_salt_max             =   3.5000000000000E+01
(PID.TID 0000.0001) %MON dynstat_salt_min             =   3.5000000000000E+01
(PID.TID 0000.0001) %MON dynstat_salt_mean            =   3.5000000000000E+01
(PID.TID 0000.0001) %MON dynstat_salt_sd              =   4.0838182318649E-14
(PID.TID 0000.0001) %MON dynstat_salt_del2            =   1.1605531350748E-14
(PID.TID 0000.0001) %MON dynstat_sst_max              =   2.9347504281356E+00
(PID.TID 0000.0001) %MON dynstat_sst_min              =   2.3649694229865E+00
(PID.TID 0000.0001) %MON dynstat_sst_mean             =   2.7448234264192E+00
(PID.TID 0000.0001) %MON dynstat_sst_sd               =   2.6859734168817E-01
(PID.TID 0000.0001) %MON dynstat_sst_del2             =   1.8992700171639E-01
(PID.TID 0000.0001) %MON dynstat_sss_max              =   3.5000000000000E+01
(PID.TID 0000.0001) %MON dynstat_sss_min              =   3.5000000000000E+01
(PID.TID 0000.0001) %MON dynstat_sss_mean             =   3.5000000000000E+01
(PID.TID 0000.0001) %MON dynstat_sss_sd               =   4.6953203047903E-14
(PID.TID 0000.0001) %MON dynstat_sss_del2             =   3.3158661002138E-14
(PID.TID 0000.0001) %MON extforcing_qnet_max          =   2.0000000000000E+02
(PID.TID 0000.0001) %MON extforcing_qnet_min          =   0.0000000000000E+00
(PID.TID 0000.0001) %MON extforcing_qnet_mean         =   6.6666666666667E+01
(PID.TID 0000.0001) %MON extforcing_qnet_sd           =   9.4280904158206E+01
(PID.TID 0000.0001) %MON extforcing_qnet_del2         =   6.6666666666667E+01
(PID.TID 0000.0001) %MON extforcing_qsw_max           =   0.0000000000000E+00
(PID.TID 0000.0001) %MON extforcing_qsw_min           =   0.0000000000000E+00
(PID.TID 0000.0001) %MON extforcing_qsw_mean          =   0.0000000000000E+00
(PID.TID 0000.0001) %MON extforcing_qsw_sd            =   0.0000000000000E+00
(PID.TID 0000.0001) %MON extforcing_qsw_del2          =   0.0000000000000E+00
(PID.TID 0000.0001) %MON extforcing_empmr_max         =   0.0000000000000E+00
(PID.TID 0000.0001) %MON extforcing_empmr_min         =   0.0000000000000E+00
(PID.TID 0000.0001) %MON extforcing_empmr_mean        =   0.0000000000000E+00
(PID.TID 0000.0001) %MON extforcing_empmr_sd          =   0.0000000000000E+00
(PID.TID 0000.0001) %MON extforcing_empmr_del2        =   0.0000000000000E+00
(PID.TID 0000.0001) %MON extforcing_fu_max            =   1.0000000000000E+00
(PID.TID 0000.0001) %MON extforcing_fu_min            =   0.0000000000000E+00
(PID.TID 0000.0001) %MON extforcing_fu_mean           =   6.6666666666667E-01
(PID.TID 0000.0001) %MON extforcing_fu_sd             =   4.7140452079103E-01
(PID.TID 0000.0001) %MON extforcing_fu_del2           =   3.3333333333333E-01
(PID.TID 0000.0001) %MON extforcing_fv_max            =   0.0000000000000E+00
(PID.TID 0000.0001) %MON extforcing_fv_min            =   0.0000000000000E+00
(PID.TID 0000.0001) %MON extforcing_fv_mean           =   0.0000000000000E+00
(PID.TID 0000.0001) %MON extforcing_fv_sd             =   0.0000000000000E+00
(PID.TID 0000.0001) %MON extforcing_fv_del2           =   0.0000000000000E+00
(PID.TID 0000.0001) %MON advcfl_uvel_max              =   4.0520705420267E-02
(PID.TID 0000.0001) %MON advcfl_vvel_max              =   3.0058843282062E-02
(PID.TID 0000.0001) %MON advcfl_wvel_max              =   1.0221870778241E-01
(PID.TID 0000.0001) %MON advcfl_W_hf_max              =   1.0221870778241E-01
(PID.TID 0000.0001) %MON pe_b_mean                    =   4.2551151537404E-08
(PID.TID 0000.0001) %MON ke_max                       =   1.7275760059142E-02
(PID.TID 0000.0001) %MON ke_mean                      =   8.9368374092536E-04
(PID.TID 0000.0001) %MON ke_vol                       =   7.5000000000000E+10
(PID.TID 0000.0001) %MON vort_r_min                   =  -2.3055470576274E-05
(PID.TID 0000.0001) %MON vort_r_max                   =   1.9320479818610E-05
(PID.TID 0000.0001) %MON vort_a_mean                  =   1.4000000000000E-04
(PID.TID 0000.0001) %MON vort_a_sd                    =   6.2294241778901E-06
(PID.TID 0000.0001) %MON vort_p_mean                  =   1.4000000000000E-04
(PID.TID 0000.0001) %MON vort_p_sd                    =   6.2294241778901E-06
(PID.TID 0000.0001) %MON surfExpan_theta_mean         =  -6.4758630643506E-10
(PID.TID 0000.0001) %MON surfExpan_salt_mean          =   1.2648939673454E-17
(PID.TID 0000.0001) // =======================================================
(PID.TID 0000.0001) // End MONITOR dynamic field statistics
(PID.TID 0000.0001) // =======================================================
 cg2d: Sum(rhs),rhsMax =   5.55111512312578E-16  1.22426138620606E-01
(PID.TID 0000.0001)                    cg2d_init_res =    4.05441040501413E-03
(PID.TID 0000.0001)                       cg2d_iters =     1
(PID.TID 0000.0001)                         cg2d_res =    2.88068987531902E-16
(PID.TID 0000.0001) // =======================================================
(PID.TID 0000.0001) // Begin MONITOR dynamic field statistics
(PID.TID 0000.0001) // =======================================================
(PID.TID 0000.0001) %MON time_tsnumber                =                    17
(PID.TID 0000.0001) %MON time_secondsf                =   2.0400000000000E+04
(PID.TID 0000.0001) %MON dynstat_eta_max              =   2.2034622833569E-03
(PID.TID 0000.0001) %MON dynstat_eta_min              =  -4.1574570352388E-03
(PID.TID 0000.0001) %MON dynstat_eta_mean             =  -3.1044085820516E-18
(PID.TID 0000.0001) %MON dynstat_eta_sd               =   2.9415296771360E-03
(PID.TID 0000.0001) %MON dynstat_eta_del2             =   2.0787285176194E-03
(PID.TID 0000.0001) %MON dynstat_uvel_max             =   1.6686713375512E-01
(PID.TID 0000.0001) %MON dynstat_uvel_min             =  -1.0778597137422E-01
(PID.TID 0000.0001) %MON dynstat_uvel_mean            =   1.2084440069122E-03
(PID.TID 0000.0001) %MON dynstat_uvel_sd              =   3.2113079734783E-02
(PID.TID 0000.0001) %MON dynstat_uvel_del2            =   1.4533973276026E-02
(PID.TID 0000.0001) %MON dynstat_vvel_max             =   1.1832096406808E-02
(PID.TID 0000.0001) %MON dynstat_vvel_min             =  -1.3036130159625E-01
(PID.TID 0000.0001) %MON dynstat_vvel_mean            =  -9.4357221675099E-03
(PID.TID 0000.0001) %MON dynstat_vvel_sd              =   2.8280412333775E-02
(PID.TID 0000.0001) %MON dynstat_vvel_del2            =   1.0776425584936E-02
(PID.TID 0000.0001) %MON dynstat_wvel_max             =   4.3437149676605E-03
(PID.TID 0000.0001) %MON dynstat_wvel_min             =  -4.0775692890503E-03
(PID.TID 0000.0001) %MON dynstat_wvel_mean            =  -1.3927551002329E-19
(PID.TID 0000.0001) %MON dynstat_wvel_sd              =   2.2648192835400E-03
(PID.TID 0000.0001) %MON dynstat_wvel_del2            =   1.2420369543500E-03
(PID.TID 0000.0001) %MON dynstat_theta_max            =   2.9347498018870E+00
(PID.TID 0000.0001) %MON dynstat_theta_min            =   4.5566813898962E-01
(PID.TID 0000.0001) %MON dynstat_theta_mean           =   1.6698683915564E+00
(PID.TID 0000.0001) %MON dynstat_theta_sd             =   7.2153247167515E-01
(PID.TID 0000.0001) %MON dynstat_theta_del2           =   2.6275387200102E-02
(PID.TID 0000.0001) %MON dynstat_salt_max             =   3.5000000000000E+01
(PID.TID 0000.0001) %MON dynstat_salt_min             =   3.5000000000000E+01
(PID.TID 0000.0001) %MON dynstat_salt_mean            =   3.5000000000000E+01
(PID.TID 0000.0001) %MON dynstat_salt_sd              =   4.1603677812291E-14
(PID.TID 0000.0001) %MON dynstat_salt_del2            =   1.2552921665095E-14
(PID.TID 0000.0001) %MON dynstat_sst_max              =   2.9347498018870E+00
(PID.TID 0000.0001) %MON dynstat_sst_min              =   2.3642269327472E+00
(PID.TID 0000.0001) %MON dynstat_sst_mean             =   2.7445755121738E+00
(PID.TID 0000.0001) %MON dynstat_sst_sd               =   2.6894705972718E-01
(PID.TID 0000.0001) %MON dynstat_sst_del2             =   1.9017428971327E-01
(PID.TID 0000.0001) %MON dynstat_sss_max              =   3.5000000000000E+01
(PID.TID 0000.0001) %MON dynstat_sss_min              =   3.5000000000000E+01
(PID.TID 0000.0001) %MON dynstat_sss_mean             =   3.5000000000000E+01
(PID.TID 0000.0001) %MON dynstat_sss_sd               =   5.0242958677881E-14
(PID.TID 0000.0001) %MON dynstat_sss_del2             =   3.5527136788005E-14
(PID.TID 0000.0001) %MON extforcing_qnet_max          =   2.0000000000000E+02
(PID.TID 0000.0001) %MON extforcing_qnet_min          =   0.0000000000000E+00
(PID.TID 0000.0001) %MON extforcing_qnet_mean         =   6.6666666666667E+01
(PID.TID 0000.0001) %MON extforcing_qnet_sd           =   9.4280904158206E+01
(PID.TID 0000.0001) %MON extforcing_qnet_del2         =   6.6666666666667E+01
(PID.TID 0000.0001) %MON extforcing_qsw_max           =   0.0000000000000E+00
(PID.TID 0000.0001) %MON extforcing_qsw_min           =   0.0000000000000E+00
(PID.TID 0000.0001) %MON extforcing_qsw_mean          =   0.0000000000000E+00
(PID.TID 0000.0001) %MON extforcing_qsw_sd            =   0.0000000000000E+00
(PID.TID 0000.0001) %MON extforcing_qsw_del2          =   0.0000000000000E+00
(PID.TID 0000.0001) %MON extforcing_empmr_max         =   0.0000000000000E+00
(PID.TID 0000.0001) %MON extforcing_empmr_min         =   0.0000000000000E+00
(PID.TID 0000.0001) %MON extforcing_empmr_mean        =   0.0000000000000E+00
(PID.TID 0000.0001) %MON extforcing_empmr_sd          =   0.0000000000000E+00
(PID.TID 0000.0001) %MON extforcing_empmr_del2        =   0.0000000000000E+00
(PID.TID 0000.0001) %MON extforcing_fu_max            =   1.0000000000000E+00
(PID.TID 0000.0001) %MON extforcing_fu_min            =   0.0000000000000E+00
(PID.TID 0000.0001) %MON extforcing_fu_mean           =   6.6666666666667E-01
(PID.TID 0000.0001) %MON extforcing_fu_sd             =   4.7140452079103E-01
(PID.TID 0000.0001) %MON extforcing_fu_del2           =   3.3333333333333E-01
(PID.TID 0000.0001) %MON extforcing_fv_max            =   0.0000000000000E+00
(PID.TID 0000.0001) %MON extforcing_fv_min            =   0.0000000000000E+00
(PID.TID 0000.0001) %MON extforcing_fv_mean           =   0.0000000000000E+00
(PID.TID 0000.0001) %MON extforcing_fv_sd             =   0.0000000000000E+00
(PID.TID 0000.0001) %MON extforcing_fv_del2           =   0.0000000000000E+00
(PID.TID 0000.0001) %MON advcfl_uvel_max              =   4.0048112101229E-02
(PID.TID 0000.0001) %MON advcfl_vvel_max              =   3.1286712383099E-02
(PID.TID 0000.0001) %MON advcfl_wvel_max              =   1.0424915922385E-01
(PID.TID 0000.0001) %MON advcfl_W_hf_max              =   1.0424915922385E-01
(PID.TID 0000.0001) %MON pe_b_mean                    =   4.2440987507418E-08
(PID.TID 0000.0001) %MON ke_max                       =   1.8362648465117E-02
(PID.TID 0000.0001) %MON ke_mean                      =   9.6076240078056E-04
(PID.TID 0000.0001) %MON ke_vol                       =   7.5000000000000E+10
(PID.TID 0000.0001) %MON vort_r_min                   =  -2.5310892631033E-05
(PID.TID 0000.0001) %MON vort_r_max                   =   2.1544616400368E-05
(PID.TID 0000.0001) %MON vort_a_mean                  =   1.4000000000000E-04
(PID.TID 0000.0001) %MON vort_a_sd                    =   6.8915361456197E-06
(PID.TID 0000.0001) %MON vort_p_mean                  =   1.4000000000000E-04
(PID.TID 0000.0001) %MON vort_p_sd                    =   6.8915361456197E-06
(PID.TID 0000.0001) %MON surfExpan_theta_mean         =  -7.8198837017704E-10
(PID.TID 0000.0001) %MON surfExpan_salt_mean          =  -5.0597274518320E-18
(PID.TID 0000.0001) // =======================================================
(PID.TID 0000.0001) // End MONITOR dynamic field statistics
(PID.TID 0000.0001) // =======================================================
 cg2d: Sum(rhs),rhsMax =  -1.11022302462516E-16  1.22264069127984E-01
(PID.TID 0000.0001)                    cg2d_init_res =    4.30268466672537E-03
(PID.TID 0000.0001)                       cg2d_iters =     1
(PID.TID 0000.0001)                         cg2d_res =    6.35989704429675E-17
(PID.TID 0000.0001) // =======================================================
(PID.TID 0000.0001) // Begin MONITOR dynamic field statistics
(PID.TID 0000.0001) // =======================================================
(PID.TID 0000.0001) %MON time_tsnumber                =                    18
(PID.TID 0000.0001) %MON time_secondsf                =   2.1600000000000E+04
(PID.TID 0000.0001) %MON dynstat_eta_max              =   2.1890120158726E-03
(PID.TID 0000.0001) %MON dynstat_eta_min              =  -4.1519533334976E-03
(PID.TID 0000.0001) %MON dynstat_eta_mean             =  -3.4769376118978E-18
(PID.TID 0000.0001) %MON dynstat_eta_sd               =   2.9373246731005E-03
(PID.TID 0000.0001) %MON dynstat_eta_del2             =   2.0759766667488E-03
(PID.TID 0000.0001) %MON dynstat_uvel_max             =   1.6434069510895E-01
(PID.TID 0000.0001) %MON dynstat_uvel_min             =  -1.1925571624356E-01
(PID.TID 0000.0001) %MON dynstat_uvel_mean            =   4.0013250496197E-04
(PID.TID 0000.0001) %MON dynstat_uvel_sd              =   3.2797202249924E-02
(PID.TID 0000.0001) %MON dynstat_uvel_del2            =   1.4909848668204E-02
(PID.TID 0000.0001) %MON dynstat_vvel_max             =   1.6697279769605E-02
(PID.TID 0000.0001) %MON dynstat_vvel_min             =  -1.3444612915493E-01
(PID.TID 0000.0001) %MON dynstat_vvel_mean            =  -9.5724608863278E-03
(PID.TID 0000.0001) %MON dynstat_vvel_sd              =   2.9731303363776E-02
(PID.TID 0000.0001) %MON dynstat_vvel_del2            =   1.1878379767034E-02
(PID.TID 0000.0001) %MON dynstat_wvel_max             =   4.4016401825720E-03
(PID.TID 0000.0001) %MON dynstat_wvel_min             =  -4.1770314165849E-03
(PID.TID 0000.0001) %MON dynstat_wvel_mean            =  -5.2287394547055E-20
(PID.TID 0000.0001) %MON dynstat_wvel_sd              =   2.3074132480326E-03
(PID.TID 0000.0001) %MON dynstat_wvel_del2            =   1.2741389004662E-03
(PID.TID 0000.0001) %MON dynstat_theta_max            =   2.9347491756415E+00
(PID.TID 0000.0001) %MON dynstat_theta_min            =   4.5566876523520E-01
(PID.TID 0000.0001) %MON dynstat_theta_mean           =   1.6698483575045E+00
(PID.TID 0000.0001) %MON dynstat_theta_sd             =   7.2150694720102E-01
(PID.TID 0000.0001) %MON dynstat_theta_del2           =   2.6380869703055E-02
(PID.TID 0000.0001) %MON dynstat_salt_max             =   3.5000000000000E+01
(PID.TID 0000.0001) %MON dynstat_salt_min             =   3.5000000000000E+01
(PID.TID 0000.0001) %MON dynstat_salt_mean            =   3.5000000000000E+01
(PID.TID 0000.0001) %MON dynstat_salt_sd              =   4.2136242642379E-14
(PID.TID 0000.0001) %MON dynstat_salt_del2            =   1.3026616822269E-14
(PID.TID 0000.0001) %MON dynstat_sst_max              =   2.9347491756415E+00
(PID.TID 0000.0001) %MON dynstat_sst_min              =   2.3634778906046E+00
(PID.TID 0000.0001) %MON dynstat_sst_mean             =   2.7443254139625E+00
(PID.TID 0000.0001) %MON dynstat_sst_sd               =   2.6929986636447E-01
(PID.TID 0000.0001) %MON dynstat_sst_del2             =   1.9042376167895E-01
(PID.TID 0000.0001) %MON dynstat_sss_max              =   3.5000000000000E+01
(PID.TID 0000.0001) %MON dynstat_sss_min              =   3.5000000000000E+01
(PID.TID 0000.0001) %MON dynstat_sss_mean             =   3.5000000000000E+01
(PID.TID 0000.0001) %MON dynstat_sss_sd               =   5.3644800141731E-14
(PID.TID 0000.0001) %MON dynstat_sss_del2             =   3.7895612573872E-14
(PID.TID 0000.0001) %MON extforcing_qnet_max          =   2.0000000000000E+02
(PID.TID 0000.0001) %MON extforcing_qnet_min          =   0.0000000000000E+00
(PID.TID 0000.0001) %MON extforcing_qnet_mean         =   6.6666666666667E+01
(PID.TID 0000.0001) %MON extforcing_qnet_sd           =   9.4280904158206E+01
(PID.TID 0000.0001) %MON extforcing_qnet_del2         =   6.6666666666667E+01
(PID.TID 0000.0001) %MON extforcing_qsw_max           =   0.0000000000000E+00
(PID.TID 0000.0001) %MON extforcing_qsw_min           =   0.0000000000000E+00
(PID.TID 0000.0001) %MON extforcing_qsw_mean          =   0.0000000000000E+00
(PID.TID 0000.0001) %MON extforcing_qsw_sd            =   0.0000000000000E+00
(PID.TID 0000.0001) %MON extforcing_qsw_del2          =   0.0000000000000E+00
(PID.TID 0000.0001) %MON extforcing_empmr_max         =   0.0000000000000E+00
(PID.TID 0000.0001) %MON extforcing_empmr_min         =   0.0000000000000E+00
(PID.TID 0000.0001) %MON extforcing_empmr_mean        =   0.0000000000000E+00
(PID.TID 0000.0001) %MON extforcing_empmr_sd          =   0.0000000000000E+00
(PID.TID 0000.0001) %MON extforcing_empmr_del2        =   0.0000000000000E+00
(PID.TID 0000.0001) %MON extforcing_fu_max            =   1.0000000000000E+00
(PID.TID 0000.0001) %MON extforcing_fu_min            =   0.0000000000000E+00
(PID.TID 0000.0001) %MON extforcing_fu_mean           =   6.6666666666667E-01
(PID.TID 0000.0001) %MON extforcing_fu_sd             =   4.7140452079103E-01
(PID.TID 0000.0001) %MON extforcing_fu_del2           =   3.3333333333333E-01
(PID.TID 0000.0001) %MON extforcing_fv_max            =   0.0000000000000E+00
(PID.TID 0000.0001) %MON extforcing_fv_min            =   0.0000000000000E+00
(PID.TID 0000.0001) %MON extforcing_fv_mean           =   0.0000000000000E+00
(PID.TID 0000.0001) %MON extforcing_fv_sd             =   0.0000000000000E+00
(PID.TID 0000.0001) %MON extforcing_fv_del2           =   0.0000000000000E+00
(PID.TID 0000.0001) %MON advcfl_uvel_max              =   3.9441766826149E-02
(PID.TID 0000.0001) %MON advcfl_vvel_max              =   3.2267070997184E-02
(PID.TID 0000.0001) %MON advcfl_wvel_max              =   1.0563936438173E-01
(PID.TID 0000.0001) %MON advcfl_W_hf_max              =   1.0563936438173E-01
(PID.TID 0000.0001) %MON pe_b_mean                    =   4.2319732933681E-08
(PID.TID 0000.0001) %MON ke_max                       =   1.9345328303787E-02
(PID.TID 0000.0001) %MON ke_mean                      =   1.0256994942865E-03
(PID.TID 0000.0001) %MON ke_vol                       =   7.5000000000000E+10
(PID.TID 0000.0001) %MON vort_r_min                   =  -2.7585885207715E-05
(PID.TID 0000.0001) %MON vort_r_max                   =   2.3842584265384E-05
(PID.TID 0000.0001) %MON vort_a_mean                  =   1.4000000000000E-04
(PID.TID 0000.0001) %MON vort_a_sd                    =   7.5603876403284E-06
(PID.TID 0000.0001) %MON vort_p_mean                  =   1.4000000000000E-04
(PID.TID 0000.0001) %MON vort_p_sd                    =   7.5603876403284E-06
(PID.TID 0000.0001) %MON surfExpan_theta_mean         =  -8.7336299059115E-10
(PID.TID 0000.0001) %MON surfExpan_salt_mean          =   5.0594669194955E-18
(PID.TID 0000.0001) // =======================================================
(PID.TID 0000.0001) // End MONITOR dynamic field statistics
(PID.TID 0000.0001) // =======================================================
 cg2d: Sum(rhs),rhsMax =   3.33066907387547E-16  1.22094008850229E-01
(PID.TID 0000.0001)                    cg2d_init_res =    4.42726759575042E-03
(PID.TID 0000.0001)                       cg2d_iters =     1
(PID.TID 0000.0001)                         cg2d_res =    1.92296268638356E-16
(PID.TID 0000.0001) // =======================================================
(PID.TID 0000.0001) // Begin MONITOR dynamic field statistics
(PID.TID 0000.0001) // =======================================================
(PID.TID 0000.0001) %MON time_tsnumber                =                    19
(PID.TID 0000.0001) %MON time_secondsf                =   2.2800000000000E+04
(PID.TID 0000.0001) %MON dynstat_eta_max              =   2.1741469110691E-03
(PID.TID 0000.0001) %MON dynstat_eta_min              =  -4.1461782734807E-03
(PID.TID 0000.0001) %MON dynstat_eta_mean             =  -4.0978193283081E-18
(PID.TID 0000.0001) %MON dynstat_eta_sd               =   2.9329516850623E-03
(PID.TID 0000.0001) %MON dynstat_eta_del2             =   2.0730891367403E-03
(PID.TID 0000.0001) %MON dynstat_uvel_max             =   1.6140970392740E-01
(PID.TID 0000.0001) %MON dynstat_uvel_min             =  -1.3026463700644E-01
(PID.TID 0000.0001) %MON dynstat_uvel_mean            =  -4.1959727469460E-04
(PID.TID 0000.0001) %MON dynstat_uvel_sd              =   3.3451500917433E-02
(PID.TID 0000.0001) %MON dynstat_uvel_del2            =   1.5250525363298E-02
(PID.TID 0000.0001) %MON dynstat_vvel_max             =   2.2216718657077E-02
(PID.TID 0000.0001) %MON dynstat_vvel_min             =  -1.3752804906271E-01
(PID.TID 0000.0001) %MON dynstat_vvel_mean            =  -9.5704264701012E-03
(PID.TID 0000.0001) %MON dynstat_vvel_sd              =   3.1078431102547E-02
(PID.TID 0000.0001) %MON dynstat_vvel_del2            =   1.2981098388152E-02
(PID.TID 0000.0001) %MON dynstat_wvel_max             =   4.4519725543971E-03
(PID.TID 0000.0001) %MON dynstat_wvel_min             =  -4.2548572256309E-03
(PID.TID 0000.0001) %MON dynstat_wvel_mean            =  -9.5420763788060E-20
(PID.TID 0000.0001) %MON dynstat_wvel_sd              =   2.3368213387619E-03
(PID.TID 0000.0001) %MON dynstat_wvel_del2            =   1.3007585580150E-03
(PID.TID 0000.0001) %MON dynstat_theta_max            =   2.9347485493989E+00
(PID.TID 0000.0001) %MON dynstat_theta_min            =   4.5566939147778E-01
(PID.TID 0000.0001) %MON dynstat_theta_mean           =   1.6698283234527E+00
(PID.TID 0000.0001) %MON dynstat_theta_sd             =   7.2148133523749E-01
(PID.TID 0000.0001) %MON dynstat_theta_del2           =   2.6486571806689E-02
(PID.TID 0000.0001) %MON dynstat_salt_max             =   3.5000000000000E+01
(PID.TID 0000.0001) %MON dynstat_salt_min             =   3.5000000000000E+01
(PID.TID 0000.0001) %MON dynstat_salt_mean            =   3.5000000000000E+01
(PID.TID 0000.0001) %MON dynstat_salt_sd              =   4.5376559412111E-14
(PID.TID 0000.0001) %MON dynstat_salt_del2            =   1.4447702293789E-14
(PID.TID 0000.0001) %MON dynstat_sst_max              =   2.9347485493989E+00
(PID.TID 0000.0001) %MON dynstat_sst_min              =   2.3627252150684E+00
(PID.TID 0000.0001) %MON dynstat_sst_mean             =   2.7440741046220E+00
(PID.TID 0000.0001) %MON dynstat_sst_sd               =   2.6965438580135E-01
(PID.TID 0000.0001) %MON dynstat_sst_del2             =   1.9067444477683E-01
(PID.TID 0000.0001) %MON dynstat_sss_max              =   3.5000000000000E+01
(PID.TID 0000.0001) %MON dynstat_sss_min              =   3.5000000000000E+01
(PID.TID 0000.0001) %MON dynstat_sss_mean             =   3.5000000000000E+01
(PID.TID 0000.0001) %MON dynstat_sss_sd               =   5.6991256350689E-14
(PID.TID 0000.0001) %MON dynstat_sss_del2             =   4.0264088359739E-14
(PID.TID 0000.0001) %MON extforcing_qnet_max          =   2.0000000000000E+02
(PID.TID 0000.0001) %MON extforcing_qnet_min          =   0.0000000000000E+00
(PID.TID 0000.0001) %MON extforcing_qnet_mean         =   6.6666666666667E+01
(PID.TID 0000.0001) %MON extforcing_qnet_sd           =   9.4280904158206E+01
(PID.TID 0000.0001) %MON extforcing_qnet_del2         =   6.6666666666667E+01
(PID.TID 0000.0001) %MON extforcing_qsw_max           =   0.0000000000000E+00
(PID.TID 0000.0001) %MON extforcing_qsw_min           =   0.0000000000000E+00
(PID.TID 0000.0001) %MON extforcing_qsw_mean          =   0.0000000000000E+00
(PID.TID 0000.0001) %MON extforcing_qsw_sd            =   0.0000000000000E+00
(PID.TID 0000.0001) %MON extforcing_qsw_del2          =   0.0000000000000E+00
(PID.TID 0000.0001) %MON extforcing_empmr_max         =   0.0000000000000E+00
(PID.TID 0000.0001) %MON extforcing_empmr_min         =   0.0000000000000E+00
(PID.TID 0000.0001) %MON extforcing_empmr_mean        =   0.0000000000000E+00
(PID.TID 0000.0001) %MON extforcing_empmr_sd          =   0.0000000000000E+00
(PID.TID 0000.0001) %MON extforcing_empmr_del2        =   0.0000000000000E+00
(PID.TID 0000.0001) %MON extforcing_fu_max            =   1.0000000000000E+00
(PID.TID 0000.0001) %MON extforcing_fu_min            =   0.0000000000000E+00
(PID.TID 0000.0001) %MON extforcing_fu_mean           =   6.6666666666667E-01
(PID.TID 0000.0001) %MON extforcing_fu_sd             =   4.7140452079103E-01
(PID.TID 0000.0001) %MON extforcing_fu_del2           =   3.3333333333333E-01
(PID.TID 0000.0001) %MON extforcing_fv_max            =   0.0000000000000E+00
(PID.TID 0000.0001) %MON extforcing_fv_min            =   0.0000000000000E+00
(PID.TID 0000.0001) %MON extforcing_fv_mean           =   0.0000000000000E+00
(PID.TID 0000.0001) %MON extforcing_fv_sd             =   0.0000000000000E+00
(PID.TID 0000.0001) %MON extforcing_fv_del2           =   0.0000000000000E+00
(PID.TID 0000.0001) %MON advcfl_uvel_max              =   3.8738328942577E-02
(PID.TID 0000.0001) %MON advcfl_vvel_max              =   3.3006731775051E-02
(PID.TID 0000.0001) %MON advcfl_wvel_max              =   1.0684734130553E-01
(PID.TID 0000.0001) %MON advcfl_W_hf_max              =   1.0684734130553E-01
(PID.TID 0000.0001) %MON pe_b_mean                    =   4.2193818403793E-08
(PID.TID 0000.0001) %MON ke_max                       =   2.0212474183586E-02
(PID.TID 0000.0001) %MON ke_mean                      =   1.0883204590587E-03
(PID.TID 0000.0001) %MON ke_vol                       =   7.5000000000000E+10
(PID.TID 0000.0001) %MON vort_r_min                   =  -2.9875655607154E-05
(PID.TID 0000.0001) %MON vort_r_max                   =   2.6201784049094E-05
(PID.TID 0000.0001) %MON vort_a_mean                  =   1.4000000000000E-04
(PID.TID 0000.0001) %MON vort_a_sd                    =   8.2321023882326E-06
(PID.TID 0000.0001) %MON vort_p_mean                  =   1.4000000000000E-04
(PID.TID 0000.0001) %MON vort_p_sd                    =   8.2321023882326E-06
(PID.TID 0000.0001) %MON surfExpan_theta_mean         =  -9.1763030198162E-10
(PID.TID 0000.0001) %MON surfExpan_salt_mean          =  -1.8947806286936E-22
(PID.TID 0000.0001) // =======================================================
(PID.TID 0000.0001) // End MONITOR dynamic field statistics
(PID.TID 0000.0001) // =======================================================
 cg2d: Sum(rhs),rhsMax =  -4.44089209850063E-16  1.21924915925203E-01
(PID.TID 0000.0001)                    cg2d_init_res =    4.42452497393733E-03
(PID.TID 0000.0001)                       cg2d_iters =     1
(PID.TID 0000.0001)                         cg2d_res =    2.23720172731083E-16
(PID.TID 0000.0001) // =======================================================
(PID.TID 0000.0001) // Begin MONITOR dynamic field statistics
(PID.TID 0000.0001) // =======================================================
(PID.TID 0000.0001) %MON time_tsnumber                =                    20
(PID.TID 0000.0001) %MON time_secondsf                =   2.4000000000000E+04
(PID.TID 0000.0001) %MON dynstat_eta_max              =   2.1593145508867E-03
(PID.TID 0000.0001) %MON dynstat_eta_min              =  -4.1404360636987E-03
(PID.TID 0000.0001) %MON dynstat_eta_mean             =  -3.4769376118978E-18
(PID.TID 0000.0001) %MON dynstat_eta_sd               =   2.9286340715866E-03
(PID.TID 0000.0001) %MON dynstat_eta_del2             =   2.0702180318494E-03
(PID.TID 0000.0001) %MON dynstat_uvel_max             =   1.5821510833124E-01
(PID.TID 0000.0001) %MON dynstat_uvel_min             =  -1.4063626273036E-01
(PID.TID 0000.0001) %MON dynstat_uvel_mean            =  -1.2270952311349E-03
(PID.TID 0000.0001) %MON dynstat_uvel_sd              =   3.4071428536741E-02
(PID.TID 0000.0001) %MON dynstat_uvel_del2            =   1.5521684662885E-02
(PID.TID 0000.0001) %MON dynstat_vvel_max             =   2.8349599372455E-02
(PID.TID 0000.0001) %MON dynstat_vvel_min             =  -1.3966236853556E-01
(PID.TID 0000.0001) %MON dynstat_vvel_mean            =  -9.4296990968367E-03
(PID.TID 0000.0001) %MON dynstat_vvel_sd              =   3.2339565882765E-02
(PID.TID 0000.0001) %MON dynstat_vvel_del2            =   1.4078054169537E-02
(PID.TID 0000.0001) %MON dynstat_wvel_max             =   4.4781717716115E-03
(PID.TID 0000.0001) %MON dynstat_wvel_min             =  -4.3120788012241E-03
(PID.TID 0000.0001) %MON dynstat_wvel_mean            =   2.8059077568543E-20
(PID.TID 0000.0001) %MON dynstat_wvel_sd              =   2.3534092766648E-03
(PID.TID 0000.0001) %MON dynstat_wvel_del2            =   1.3216925535053E-03
(PID.TID 0000.0001) %MON dynstat_theta_max            =   2.9347479231593E+00
(PID.TID 0000.0001) %MON dynstat_theta_min            =   4.5567001771736E-01
(PID.TID 0000.0001) %MON dynstat_theta_mean           =   1.6698082894008E+00
(PID.TID 0000.0001) %MON dynstat_theta_sd             =   7.2145566304430E-01
(PID.TID 0000.0001) %MON dynstat_theta_del2           =   2.6592029143350E-02
(PID.TID 0000.0001) %MON dynstat_salt_max             =   3.5000000000000E+01
(PID.TID 0000.0001) %MON dynstat_salt_min             =   3.5000000000000E+01
(PID.TID 0000.0001) %MON dynstat_salt_mean            =   3.5000000000000E+01
(PID.TID 0000.0001) %MON dynstat_salt_sd              =   4.8409118932042E-14
(PID.TID 0000.0001) %MON dynstat_salt_del2            =   1.5276668818842E-14
(PID.TID 0000.0001) %MON dynstat_sst_max              =   2.9347479231593E+00
(PID.TID 0000.0001) %MON dynstat_sst_min              =   2.3619717786123E+00
(PID.TID 0000.0001) %MON dynstat_sst_mean             =   2.7438225416437E+00
(PID.TID 0000.0001) %MON dynstat_sst_sd               =   2.7000926394069E-01
(PID.TID 0000.0001) %MON dynstat_sst_del2             =   1.9092538151565E-01
(PID.TID 0000.0001) %MON dynstat_sss_max              =   3.5000000000000E+01
(PID.TID 0000.0001) %MON dynstat_sss_min              =   3.5000000000000E+01
(PID.TID 0000.0001) %MON dynstat_sss_mean             =   3.5000000000000E+01
(PID.TID 0000.0001) %MON dynstat_sss_sd               =   6.0291550413457E-14
(PID.TID 0000.0001) %MON dynstat_sss_del2             =   4.2632564145606E-14
(PID.TID 0000.0001) %MON extforcing_qnet_max          =   2.0000000000000E+02
(PID.TID 0000.0001) %MON extforcing_qnet_min          =   0.0000000000000E+00
(PID.TID 0000.0001) %MON extforcing_qnet_mean         =   6.6666666666667E+01
(PID.TID 0000.0001) %MON extforcing_qnet_sd           =   9.4280904158206E+01
(PID.TID 0000.0001) %MON extforcing_qnet_del2         =   6.6666666666667E+01
(PID.TID 0000.0001) %MON extforcing_qsw_max           =   0.0000000000000E+00
(PID.TID 0000.0001) %MON extforcing_qsw_min           =   0.0000000000000E+00
(PID.TID 0000.0001) %MON extforcing_qsw_mean          =   0.0000000000000E+00
(PID.TID 0000.0001) %MON extforcing_qsw_sd            =   0.0000000000000E+00
(PID.TID 0000.0001) %MON extforcing_qsw_del2          =   0.0000000000000E+00
(PID.TID 0000.0001) %MON extforcing_empmr_max         =   0.0000000000000E+00
(PID.TID 0000.0001) %MON extforcing_empmr_min         =   0.0000000000000E+00
(PID.TID 0000.0001) %MON extforcing_empmr_mean        =   0.0000000000000E+00
(PID.TID 0000.0001) %MON extforcing_empmr_sd          =   0.0000000000000E+00
(PID.TID 0000.0001) %MON extforcing_empmr_del2        =   0.0000000000000E+00
(PID.TID 0000.0001) %MON extforcing_fu_max            =   1.0000000000000E+00
(PID.TID 0000.0001) %MON extforcing_fu_min            =   0.0000000000000E+00
(PID.TID 0000.0001) %MON extforcing_fu_mean           =   6.6666666666667E-01
(PID.TID 0000.0001) %MON extforcing_fu_sd             =   4.7140452079103E-01
(PID.TID 0000.0001) %MON extforcing_fu_del2           =   3.3333333333333E-01
(PID.TID 0000.0001) %MON extforcing_fv_max            =   0.0000000000000E+00
(PID.TID 0000.0001) %MON extforcing_fv_min            =   0.0000000000000E+00
(PID.TID 0000.0001) %MON extforcing_fv_mean           =   0.0000000000000E+00
(PID.TID 0000.0001) %MON extforcing_fv_sd             =   0.0000000000000E+00
(PID.TID 0000.0001) %MON extforcing_fv_del2           =   0.0000000000000E+00
(PID.TID 0000.0001) %MON advcfl_uvel_max              =   3.7971625999498E-02
(PID.TID 0000.0001) %MON advcfl_vvel_max              =   3.3518968448534E-02
(PID.TID 0000.0001) %MON advcfl_wvel_max              =   1.0747612251868E-01
(PID.TID 0000.0001) %MON advcfl_W_hf_max              =   1.0747612251868E-01
(PID.TID 0000.0001) %MON pe_b_mean                    =   4.2069682361391E-08
(PID.TID 0000.0001) %MON ke_max                       =   2.0955433317238E-02
(PID.TID 0000.0001) %MON ke_mean                      =   1.1485673758916E-03
(PID.TID 0000.0001) %MON ke_vol                       =   7.5000000000000E+10
(PID.TID 0000.0001) %MON vort_r_min                   =  -3.2176233267790E-05
(PID.TID 0000.0001) %MON vort_r_max                   =   2.8609253276629E-05
(PID.TID 0000.0001) %MON vort_a_mean                  =   1.4000000000000E-04
(PID.TID 0000.0001) %MON vort_a_sd                    =   8.9032627389953E-06
(PID.TID 0000.0001) %MON vort_p_mean                  =   1.4000000000000E-04
(PID.TID 0000.0001) %MON vort_p_sd                    =   8.9032627389953E-06
(PID.TID 0000.0001) %MON surfExpan_theta_mean         =  -9.1361132753258E-10
(PID.TID 0000.0001) %MON surfExpan_salt_mean          =   5.0593958652219E-18
(PID.TID 0000.0001) // =======================================================
(PID.TID 0000.0001) // End MONITOR dynamic field statistics
(PID.TID 0000.0001) // =======================================================
(PID.TID 0000.0001) %CHECKPOINT        20 ckptA
(PID.TID 0000.0001)   Seconds in section "ALL                    [THE_MODEL_MAIN]":
(PID.TID 0000.0001)           User time:  0.290956011
(PID.TID 0000.0001)         System time:  0.0309950006
(PID.TID 0000.0001)     Wall clock time:  0.792326927
(PID.TID 0000.0001)          No. starts: 1
(PID.TID 0000.0001)           No. stops: 1
(PID.TID 0000.0001)   Seconds in section "INITIALISE_FIXED       [THE_MODEL_MAIN]":
(PID.TID 0000.0001)           User time:  0.0389940012
(PID.TID 0000.0001)         System time:  0.0159970005
(PID.TID 0000.0001)     Wall clock time:  0.22351408
(PID.TID 0000.0001)          No. starts: 1
(PID.TID 0000.0001)           No. stops: 1
(PID.TID 0000.0001)   Seconds in section "THE_MAIN_LOOP          [THE_MODEL_MAIN]":
(PID.TID 0000.0001)           User time:  0.25196201
(PID.TID 0000.0001)         System time:  0.0149980001
(PID.TID 0000.0001)     Wall clock time:  0.568682909
(PID.TID 0000.0001)          No. starts: 1
(PID.TID 0000.0001)           No. stops: 1
(PID.TID 0000.0001)   Seconds in section "INITIALISE_VARIA    [THE_MAIN_LOOP]":
(PID.TID 0000.0001)           User time:  0.0189969987
(PID.TID 0000.0001)         System time:  0.00899899937
(PID.TID 0000.0001)     Wall clock time:  0.107138872
(PID.TID 0000.0001)          No. starts: 1
(PID.TID 0000.0001)           No. stops: 1
(PID.TID 0000.0001)   Seconds in section "MAIN LOOP           [THE_MAIN_LOOP]":
(PID.TID 0000.0001)           User time:  0.232965011
(PID.TID 0000.0001)         System time:  0.00599900074
(PID.TID 0000.0001)     Wall clock time:  0.461421967
(PID.TID 0000.0001)          No. starts: 1
(PID.TID 0000.0001)           No. stops: 1
(PID.TID 0000.0001)   Seconds in section "FORWARD_STEP        [THE_MAIN_LOOP]":
(PID.TID 0000.0001)           User time:  0.232965011
(PID.TID 0000.0001)         System time:  0.00599900074
(PID.TID 0000.0001)     Wall clock time:  0.460577726
(PID.TID 0000.0001)          No. starts: 20
(PID.TID 0000.0001)           No. stops: 20
(PID.TID 0000.0001)   Seconds in section "LOAD_FIELDS_DRIVER  [FORWARD_STEP]":
(PID.TID 0000.0001)           User time:  0.00200000033
(PID.TID 0000.0001)         System time:  0.
(PID.TID 0000.0001)     Wall clock time:  0.00246548653
(PID.TID 0000.0001)          No. starts: 20
(PID.TID 0000.0001)           No. stops: 20
(PID.TID 0000.0001)   Seconds in section "EXTERNAL_FLDS_LOAD [LOAD_FLDS_DRIVER]":
(PID.TID 0000.0001)           User time:  0.00100000203
(PID.TID 0000.0001)         System time:  0.
(PID.TID 0000.0001)     Wall clock time:  0.000820159912
(PID.TID 0000.0001)          No. starts: 20
(PID.TID 0000.0001)           No. stops: 20
(PID.TID 0000.0001)   Seconds in section "DO_ATMOSPHERIC_PHYS [FORWARD_STEP]":
(PID.TID 0000.0001)           User time:  0.00299999118
(PID.TID 0000.0001)         System time:  0.
(PID.TID 0000.0001)     Wall clock time:  0.000828504562
(PID.TID 0000.0001)          No. starts: 20
(PID.TID 0000.0001)           No. stops: 20
(PID.TID 0000.0001)   Seconds in section "DO_OCEANIC_PHYS     [FORWARD_STEP]":
(PID.TID 0000.0001)           User time:  0.0339949802
(PID.TID 0000.0001)         System time:  0.00100000016
(PID.TID 0000.0001)     Wall clock time:  0.0368952751
(PID.TID 0000.0001)          No. starts: 20
(PID.TID 0000.0001)           No. stops: 20
(PID.TID 0000.0001)   Seconds in section "THERMODYNAMICS      [FORWARD_STEP]":
(PID.TID 0000.0001)           User time:  0.0289940685
(PID.TID 0000.0001)         System time:  0.
(PID.TID 0000.0001)     Wall clock time:  0.0295963287
(PID.TID 0000.0001)          No. starts: 20
(PID.TID 0000.0001)           No. stops: 20
(PID.TID 0000.0001)   Seconds in section "DYNAMICS            [FORWARD_STEP]":
(PID.TID 0000.0001)           User time:  0.0569909588
(PID.TID 0000.0001)         System time:  0.
(PID.TID 0000.0001)     Wall clock time:  0.0589988232
(PID.TID 0000.0001)          No. starts: 20
(PID.TID 0000.0001)           No. stops: 20
(PID.TID 0000.0001)   Seconds in section "SOLVE_FOR_PRESSURE  [FORWARD_STEP]":
(PID.TID 0000.0001)           User time:  0.0109999925
(PID.TID 0000.0001)         System time:  0.
(PID.TID 0000.0001)     Wall clock time:  0.00532341003
(PID.TID 0000.0001)          No. starts: 20
(PID.TID 0000.0001)           No. stops: 20
(PID.TID 0000.0001)   Seconds in section "MOM_CORRECTION_STEP [FORWARD_STEP]":
(PID.TID 0000.0001)           User time:  0.000999987125
(PID.TID 0000.0001)         System time:  0.
(PID.TID 0000.0001)     Wall clock time:  0.00370883942
(PID.TID 0000.0001)          No. starts: 20
(PID.TID 0000.0001)           No. stops: 20
(PID.TID 0000.0001)   Seconds in section "TRC_CORRECTION_STEP [FORWARD_STEP]":
(PID.TID 0000.0001)           User time:  0.00600002706
(PID.TID 0000.0001)         System time:  0.
(PID.TID 0000.0001)     Wall clock time:  0.0020301342
(PID.TID 0000.0001)          No. starts: 20
(PID.TID 0000.0001)           No. stops: 20
(PID.TID 0000.0001)   Seconds in section "BLOCKING_EXCHANGES  [FORWARD_STEP]":
(PID.TID 0000.0001)           User time:  0.0129950196
(PID.TID 0000.0001)         System time:  0.
(PID.TID 0000.0001)     Wall clock time:  0.0151302814
(PID.TID 0000.0001)          No. starts: 20
(PID.TID 0000.0001)           No. stops: 20
(PID.TID 0000.0001)   Seconds in section "DO_STATEVARS_TAVE   [FORWARD_STEP]":
(PID.TID 0000.0001)           User time:  0.00399999321
(PID.TID 0000.0001)         System time:  0.
(PID.TID 0000.0001)     Wall clock time:  0.00298666954
(PID.TID 0000.0001)          No. starts: 20
(PID.TID 0000.0001)           No. stops: 20
(PID.TID 0000.0001)   Seconds in section "MONITOR             [FORWARD_STEP]":
(PID.TID 0000.0001)           User time:  0.057990998
(PID.TID 0000.0001)         System time:  0.
(PID.TID 0000.0001)     Wall clock time:  0.059399128
(PID.TID 0000.0001)          No. starts: 20
(PID.TID 0000.0001)           No. stops: 20
(PID.TID 0000.0001)   Seconds in section "DO_THE_MODEL_IO     [FORWARD_STEP]":
(PID.TID 0000.0001)           User time:  0.00399900973
(PID.TID 0000.0001)         System time:  0.00199900195
(PID.TID 0000.0001)     Wall clock time:  0.0817685127
(PID.TID 0000.0001)          No. starts: 20
(PID.TID 0000.0001)           No. stops: 20
(PID.TID 0000.0001)   Seconds in section "DO_WRITE_PICKUP     [FORWARD_STEP]":
(PID.TID 0000.0001)           User time:  0.
(PID.TID 0000.0001)         System time:  0.00200000033
(PID.TID 0000.0001)     Wall clock time:  0.150006294
(PID.TID 0000.0001)          No. starts: 20
(PID.TID 0000.0001)           No. stops: 20
(PID.TID 0000.0001) // ======================================================
(PID.TID 0000.0001) // Tile <-> Tile communication statistics
(PID.TID 0000.0001) // ======================================================
(PID.TID 0000.0001) // o Tile number: 000001
(PID.TID 0000.0001) //         No. X exchanges =              0
(PID.TID 0000.0001) //            Max. X spins =              0
(PID.TID 0000.0001) //            Min. X spins =     1000000000
(PID.TID 0000.0001) //          Total. X spins =              0
(PID.TID 0000.0001) //            Avg. X spins =       0.00E+00
(PID.TID 0000.0001) //         No. Y exchanges =              0
(PID.TID 0000.0001) //            Max. Y spins =              0
(PID.TID 0000.0001) //            Min. Y spins =     1000000000
(PID.TID 0000.0001) //          Total. Y spins =              0
(PID.TID 0000.0001) //            Avg. Y spins =       0.00E+00
(PID.TID 0000.0001) // o Thread number: 000001
(PID.TID 0000.0001) //            No. barriers =          11952
(PID.TID 0000.0001) //      Max. barrier spins =              1
(PID.TID 0000.0001) //      Min. barrier spins =              1
(PID.TID 0000.0001) //     Total barrier spins =          11952
(PID.TID 0000.0001) //      Avg. barrier spins =       1.00E+00
