(PID.TID 0000.0001) 
(PID.TID 0000.0001) // ======================================================
(PID.TID 0000.0001) //                      MITgcm UV
(PID.TID 0000.0001) //                      =========
(PID.TID 0000.0001) // ======================================================
(PID.TID 0000.0001) // execution environment starting up...
(PID.TID 0000.0001) 
(PID.TID 0000.0001) // MITgcmUV version:  checkpoint61g
(PID.TID 0000.0001) // Build user:        jmc
(PID.TID 0000.0001) // Build host:        faulks
(PID.TID 0000.0001) // Build date:        Mon Jan 19 19:30:03 EST 2009
(PID.TID 0000.0001) 
(PID.TID 0000.0001) // =======================================================
(PID.TID 0000.0001) // Execution Environment parameter file "eedata"
(PID.TID 0000.0001) // =======================================================
(PID.TID 0000.0001) ># Example "eedata" file
(PID.TID 0000.0001) ># Lines beginning "#" are comments
(PID.TID 0000.0001) ># nTx - No. threads per process in X
(PID.TID 0000.0001) ># nTy - No. threads per process in Y
(PID.TID 0000.0001) > &EEPARMS
(PID.TID 0000.0001) > &
(PID.TID 0000.0001) ># Note: Some systems use & as the
(PID.TID 0000.0001) ># namelist terminator. Other systems
(PID.TID 0000.0001) ># use a / character (as shown here).
(PID.TID 0000.0001) 
(PID.TID 0000.0001) // =======================================================
(PID.TID 0000.0001) // Computational Grid Specification ( see files "SIZE.h" )
(PID.TID 0000.0001) //                                  ( and "eedata"       )
(PID.TID 0000.0001) // =======================================================
(PID.TID 0000.0001)      nPx =    1 ; /* No. processes in X */
(PID.TID 0000.0001)      nPy =    1 ; /* No. processes in Y */
(PID.TID 0000.0001)      nSx =    1 ; /* No. tiles in X per process */
(PID.TID 0000.0001)      nSy =    1 ; /* No. tiles in Y per process */
(PID.TID 0000.0001)      sNx =    3 ; /* Tile size in X */
(PID.TID 0000.0001)      sNy =    1 ; /* Tile size in Y */
(PID.TID 0000.0001)      OLx =    3 ; /* Tile overlap distance in X */
(PID.TID 0000.0001)      OLy =    3 ; /* Tile overlap distance in Y */
(PID.TID 0000.0001)      nTx =    1 ; /* No. threads in X per process */
(PID.TID 0000.0001)      nTy =    1 ; /* No. threads in Y per process */
(PID.TID 0000.0001)       Nr =   20 ; /* No. levels in the vertical   */
(PID.TID 0000.0001)       nX =    3 ; /* Total domain size in X ( = nPx*nSx*sNx ) */
(PID.TID 0000.0001)       nY =    1 ; /* Total domain size in Y ( = nPy*nSy*sNy ) */
(PID.TID 0000.0001)   nTiles =    1 ; /* Total no. tiles per process ( = nSx*nSy ) */
(PID.TID 0000.0001)   nProcs =    1 ; /* Total no. processes ( = nPx*nPy ) */
(PID.TID 0000.0001) nThreads =    1 ; /* Total no. threads per process ( = nTx*nTy ) */
(PID.TID 0000.0001) usingMPI =    F ; /* Flag used to control whether MPI is in use */
(PID.TID 0000.0001)                   /*  note: To execute a program with MPI calls */
(PID.TID 0000.0001)                   /*  it must be launched appropriately e.g     */
(PID.TID 0000.0001)                   /*  "mpirun -np 64 ......"                    */
(PID.TID 0000.0001) useCoupler=   F ; /* Flag used to control communications with */
(PID.TID 0000.0001)                   /*  other model components, through a coupler */
(PID.TID 0000.0001) 
(PID.TID 0000.0001) // ======================================================
(PID.TID 0000.0001) // Mapping of tiles to threads
(PID.TID 0000.0001) // ======================================================
(PID.TID 0000.0001) // -o- Thread   1, tiles (   1:   1,   1:   1)
(PID.TID 0000.0001) 
(PID.TID 0000.0001) // ======================================================
(PID.TID 0000.0001) // Tile <-> Tile connectvity table
(PID.TID 0000.0001) // ======================================================
(PID.TID 0000.0001) // Tile number: 000001 (process no. = 000001)
(PID.TID 0000.0001) //        WEST: Tile = 000001, Process = 000001, Comm = put
(PID.TID 0000.0001) //                bi = 000001, bj = 000001
(PID.TID 0000.0001) //        EAST: Tile = 000001, Process = 000001, Comm = put
(PID.TID 0000.0001) //                bi = 000001, bj = 000001
(PID.TID 0000.0001) //       SOUTH: Tile = 000001, Process = 000001, Comm = put
(PID.TID 0000.0001) //                bi = 000001, bj = 000001
(PID.TID 0000.0001) //       NORTH: Tile = 000001, Process = 000001, Comm = put
(PID.TID 0000.0001) //                bi = 000001, bj = 000001
(PID.TID 0000.0001) 
(PID.TID 0000.0001) // =======================================================
(PID.TID 0000.0001) // Model parameter file "data"
(PID.TID 0000.0001) // =======================================================
(PID.TID 0000.0001) ># ====================
(PID.TID 0000.0001) ># | Model parameters |
(PID.TID 0000.0001) ># ====================
(PID.TID 0000.0001) >#
(PID.TID 0000.0001) ># Continuous equation parameters
(PID.TID 0000.0001) > &PARM01
(PID.TID 0000.0001) > tRef=20*1.,
(PID.TID 0000.0001) > sRef=20*35.,
(PID.TID 0000.0001) > viscA4=0.0E4,
(PID.TID 0000.0001) > viscAh=0.E-2,
(PID.TID 0000.0001) > viscAz=1.E-4,
(PID.TID 0000.0001) > no_slip_sides=.TRUE.,
(PID.TID 0000.0001) > no_slip_bottom=.TRUE.,
(PID.TID 0000.0001) > diffK4T=0.E4,
(PID.TID 0000.0001) > diffKhT=0.E-2,
(PID.TID 0000.0001) > diffKzT=1.E-5,
(PID.TID 0000.0001) > diffK4S=0.E4,
(PID.TID 0000.0001) > diffKhS=0.E-2,
(PID.TID 0000.0001) > diffKzS=1.E-5,
(PID.TID 0000.0001) > f0=1.4e-4,
(PID.TID 0000.0001) > beta=0.E-11,
(PID.TID 0000.0001) > tAlpha=2.E-4,
(PID.TID 0000.0001) > sBeta =0.E-4,
(PID.TID 0000.0001) > rigidLid=.FALSE.,
(PID.TID 0000.0001) > implicitFreeSurface=.TRUE.,
(PID.TID 0000.0001) >#ivdc_kappa=10.,
(PID.TID 0000.0001) > implicitDiffusion=.TRUE.,
(PID.TID 0000.0001) > implicitViscosity=.TRUE.,
(PID.TID 0000.0001) >#eosType='LINEAR',
(PID.TID 0000.0001) > eosType='MDJWF',
(PID.TID 0000.0001) > hFacMin=0.05,
(PID.TID 0000.0001) > readBinaryPrec=64,
(PID.TID 0000.0001) > bottomDragLinear=0.E-4,
(PID.TID 0000.0001) > debugLevel=1,
(PID.TID 0000.0001) > tempAdvection=.FALSE.,
(PID.TID 0000.0001) > tempAdvScheme=33,
(PID.TID 0000.0001) > &
(PID.TID 0000.0001) >
(PID.TID 0000.0001) ># Elliptic solver parameters
(PID.TID 0000.0001) > &PARM02
(PID.TID 0000.0001) > cg2dMaxIters=300,
(PID.TID 0000.0001) > cg2dTargetResidual=1.E-13,
(PID.TID 0000.0001) > &
(PID.TID 0000.0001) >
(PID.TID 0000.0001) ># Time stepping parameters
(PID.TID 0000.0001) > &PARM03
(PID.TID 0000.0001) > niter0=0,
(PID.TID 0000.0001) > nTimeSteps=20,
(PID.TID 0000.0001) >#nTimeSteps=720,
(PID.TID 0000.0001) >#nTimeSteps=8640,
(PID.TID 0000.0001) > deltaT=1200.0,
(PID.TID 0000.0001) >#cAdjFreq=-1.,
(PID.TID 0000.0001) > abEps=0.01,
(PID.TID 0000.0001) > pChkptFreq=0.0,
(PID.TID 0000.0001) > chkptFreq=0.0,
(PID.TID 0000.0001) > taveFreq=86400.0,
(PID.TID 0000.0001) > dumpFreq=86400.0,
(PID.TID 0000.0001) >#dumpFreq=1.0,
(PID.TID 0000.0001) > monitorFreq=86400.,
(PID.TID 0000.0001) > monitorFreq=1.,
(PID.TID 0000.0001) > &
(PID.TID 0000.0001) >
(PID.TID 0000.0001) ># Gridding parameters
(PID.TID 0000.0001) > &PARM04
(PID.TID 0000.0001) > usingCartesianGrid=.TRUE.,
(PID.TID 0000.0001) > usingSphericalPolarGrid=.FALSE.,
(PID.TID 0000.0001) > dXspacing=5000,
(PID.TID 0000.0001) > dYspacing=5000.,
(PID.TID 0000.0001) > delZ=20*50,
(PID.TID 0000.0001) > &
(PID.TID 0000.0001) >
(PID.TID 0000.0001) ># Input datasets
(PID.TID 0000.0001) > &PARM05
(PID.TID 0000.0001) > hydrogThetaFile='T.init',
(PID.TID 0000.0001) >#hydrogThetaFile='Tinstable.init',
(PID.TID 0000.0001) > hydrogThetaFile='Tstable2.init',
(PID.TID 0000.0001) > surfQfile='Qnet.forcing',
(PID.TID 0000.0001) > zonalWindFile='taux.forcing',
(PID.TID 0000.0001) > &
(PID.TID 0000.0001) 
(PID.TID 0000.0001) S/R INI_PARMS ; starts to read PARM01
(PID.TID 0000.0001) S/R INI_PARMS ; read PARM01 : OK
(PID.TID 0000.0001) S/R INI_PARMS ; starts to read PARM02
(PID.TID 0000.0001) S/R INI_PARMS ; read PARM02 : OK
(PID.TID 0000.0001) S/R INI_PARMS ; starts to read PARM03
(PID.TID 0000.0001) S/R INI_PARMS ; read PARM03 : OK
(PID.TID 0000.0001) S/R INI_PARMS ; starts to read PARM04
(PID.TID 0000.0001) S/R INI_PARMS ; read PARM04 : OK
(PID.TID 0000.0001) S/R INI_PARMS ; starts to read PARM05
(PID.TID 0000.0001) S/R INI_PARMS ; read PARM05 : OK
(PID.TID 0000.0001)  PACKAGES_BOOT: opening data.pkg
(PID.TID 0000.0001)  OPEN_COPY_DATA_FILE: opening file data.pkg
(PID.TID 0000.0001) // =======================================================
(PID.TID 0000.0001) // Parameter file "data.pkg"
(PID.TID 0000.0001) // =======================================================
(PID.TID 0000.0001) ># Packages
(PID.TID 0000.0001) > &PACKAGES
(PID.TID 0000.0001) > useMY82=.TRUE.,
(PID.TID 0000.0001) > &
(PID.TID 0000.0001) 
(PID.TID 0000.0001)  PACKAGES_BOOT: finished reading data.pkg
(PID.TID 0000.0001)  MY82_READPARMS: opening data.my82
(PID.TID 0000.0001)  OPEN_COPY_DATA_FILE: opening file data.my82
(PID.TID 0000.0001) // =======================================================
(PID.TID 0000.0001) // Parameter file "data.my82"
(PID.TID 0000.0001) // =======================================================
(PID.TID 0000.0001) ># =====================================================================
(PID.TID 0000.0001) ># | Parameters for Pacanowski&Philander (1981) vertical mixing scheme |
(PID.TID 0000.0001) ># =====================================================================
(PID.TID 0000.0001) > &MY_PARM01
(PID.TID 0000.0001) > MYwriteState=.TRUE.,
(PID.TID 0000.0001) > MYdiffMax = 10.,
(PID.TID 0000.0001) >#MYhblScale = 1.,
(PID.TID 0000.0001) > &
(PID.TID 0000.0001) 
(PID.TID 0000.0001)  MY82_READPARMS: finished reading data.my82
(PID.TID 0000.0001) SET_PARMS: done
(PID.TID 0000.0001) Enter INI_VERTICAL_GRID: setInterFDr=    T ; setCenterDr=    F
(PID.TID 0000.0001) %MON XC_max                       =   1.2500000000000E+04
(PID.TID 0000.0001) %MON XC_min                       =   2.5000000000000E+03
(PID.TID 0000.0001) %MON XC_mean                      =   7.5000000000000E+03
(PID.TID 0000.0001) %MON XC_sd                        =   4.0824829046386E+03
(PID.TID 0000.0001) %MON XG_max                       =   1.0000000000000E+04
(PID.TID 0000.0001) %MON XG_min                       =   0.0000000000000E+00
(PID.TID 0000.0001) %MON XG_mean                      =   5.0000000000000E+03
(PID.TID 0000.0001) %MON XG_sd                        =   4.0824829046386E+03
(PID.TID 0000.0001) %MON DXC_max                      =   5.0000000000000E+03
(PID.TID 0000.0001) %MON DXC_min                      =   5.0000000000000E+03
(PID.TID 0000.0001) %MON DXC_mean                     =   5.0000000000000E+03
(PID.TID 0000.0001) %MON DXC_sd                       =   0.0000000000000E+00
(PID.TID 0000.0001) %MON DXF_max                      =   5.0000000000000E+03
(PID.TID 0000.0001) %MON DXF_min                      =   5.0000000000000E+03
(PID.TID 0000.0001) %MON DXF_mean                     =   5.0000000000000E+03
(PID.TID 0000.0001) %MON DXF_sd                       =   0.0000000000000E+00
(PID.TID 0000.0001) %MON DXG_max                      =   5.0000000000000E+03
(PID.TID 0000.0001) %MON DXG_min                      =   5.0000000000000E+03
(PID.TID 0000.0001) %MON DXG_mean                     =   5.0000000000000E+03
(PID.TID 0000.0001) %MON DXG_sd                       =   0.0000000000000E+00
(PID.TID 0000.0001) %MON DXV_max                      =   5.0000000000000E+03
(PID.TID 0000.0001) %MON DXV_min                      =   5.0000000000000E+03
(PID.TID 0000.0001) %MON DXV_mean                     =   5.0000000000000E+03
(PID.TID 0000.0001) %MON DXV_sd                       =   0.0000000000000E+00
(PID.TID 0000.0001) %MON YC_max                       =   2.5000000000000E+03
(PID.TID 0000.0001) %MON YC_min                       =   2.5000000000000E+03
(PID.TID 0000.0001) %MON YC_mean                      =   2.5000000000000E+03
(PID.TID 0000.0001) %MON YC_sd                        =   0.0000000000000E+00
(PID.TID 0000.0001) %MON YG_max                       =   0.0000000000000E+00
(PID.TID 0000.0001) %MON YG_min                       =   0.0000000000000E+00
(PID.TID 0000.0001) %MON YG_mean                      =   0.0000000000000E+00
(PID.TID 0000.0001) %MON YG_sd                        =   0.0000000000000E+00
(PID.TID 0000.0001) %MON DYC_max                      =   5.0000000000000E+03
(PID.TID 0000.0001) %MON DYC_min                      =   5.0000000000000E+03
(PID.TID 0000.0001) %MON DYC_mean                     =   5.0000000000000E+03
(PID.TID 0000.0001) %MON DYC_sd                       =   0.0000000000000E+00
(PID.TID 0000.0001) %MON DYF_max                      =   5.0000000000000E+03
(PID.TID 0000.0001) %MON DYF_min                      =   5.0000000000000E+03
(PID.TID 0000.0001) %MON DYF_mean                     =   5.0000000000000E+03
(PID.TID 0000.0001) %MON DYF_sd                       =   0.0000000000000E+00
(PID.TID 0000.0001) %MON DYG_max                      =   5.0000000000000E+03
(PID.TID 0000.0001) %MON DYG_min                      =   5.0000000000000E+03
(PID.TID 0000.0001) %MON DYG_mean                     =   5.0000000000000E+03
(PID.TID 0000.0001) %MON DYG_sd                       =   0.0000000000000E+00
(PID.TID 0000.0001) %MON DYU_max                      =   5.0000000000000E+03
(PID.TID 0000.0001) %MON DYU_min                      =   5.0000000000000E+03
(PID.TID 0000.0001) %MON DYU_mean                     =   5.0000000000000E+03
(PID.TID 0000.0001) %MON DYU_sd                       =   0.0000000000000E+00
(PID.TID 0000.0001) %MON RA_max                       =   2.5000000000000E+07
(PID.TID 0000.0001) %MON RA_min                       =   2.5000000000000E+07
(PID.TID 0000.0001) %MON RA_mean                      =   2.5000000000000E+07
(PID.TID 0000.0001) %MON RA_sd                        =   0.0000000000000E+00
(PID.TID 0000.0001) %MON RAW_max                      =   2.5000000000000E+07
(PID.TID 0000.0001) %MON RAW_min                      =   2.5000000000000E+07
(PID.TID 0000.0001) %MON RAW_mean                     =   2.5000000000000E+07
(PID.TID 0000.0001) %MON RAW_sd                       =   0.0000000000000E+00
(PID.TID 0000.0001) %MON RAS_max                      =   2.5000000000000E+07
(PID.TID 0000.0001) %MON RAS_min                      =   2.5000000000000E+07
(PID.TID 0000.0001) %MON RAS_mean                     =   2.5000000000000E+07
(PID.TID 0000.0001) %MON RAS_sd                       =   0.0000000000000E+00
(PID.TID 0000.0001) %MON RAZ_max                      =   2.5000000000000E+07
(PID.TID 0000.0001) %MON RAZ_min                      =   2.5000000000000E+07
(PID.TID 0000.0001) %MON RAZ_mean                     =   2.5000000000000E+07
(PID.TID 0000.0001) %MON RAZ_sd                       =   0.0000000000000E+00
(PID.TID 0000.0001) %MON AngleCS_max                  =   1.0000000000000E+00
(PID.TID 0000.0001) %MON AngleCS_min                  =   1.0000000000000E+00
(PID.TID 0000.0001) %MON AngleCS_mean                 =   1.0000000000000E+00
(PID.TID 0000.0001) %MON AngleCS_sd                   =   0.0000000000000E+00
(PID.TID 0000.0001) %MON AngleSN_max                  =   0.0000000000000E+00
(PID.TID 0000.0001) %MON AngleSN_min                  =   0.0000000000000E+00
(PID.TID 0000.0001) %MON AngleSN_mean                 =   0.0000000000000E+00
(PID.TID 0000.0001) %MON AngleSN_sd                   =   0.0000000000000E+00
(PID.TID 0000.0001) // =======================================================
(PID.TID 0000.0001) // Field Model R_low (ini_masks_etc) at iteration          1
(PID.TID 0000.0001) // CMIN =         -1.000000000000000E+03
(PID.TID 0000.0001) // CMAX =         -1.000000000000000E+03
(PID.TID 0000.0001) // CINT =          0.000000000000000E+00
(PID.TID 0000.0001) // SYMBOLS (CMIN->CMAX): -abcdefghijklmnopqrstuvwxyz+
(PID.TID 0000.0001) //                  0.0: .
(PID.TID 0000.0001) // RANGE I (Lo:Hi:Step):(  -2:   6:   1)
(PID.TID 0000.0001) // RANGE J (Lo:Hi:Step):(   4:  -2:  -1)
(PID.TID 0000.0001) // RANGE K (Lo:Hi:Step):(   1:   1:   1)
(PID.TID 0000.0001) // =======================================================
(PID.TID 0000.0001) // =======================================================
(PID.TID 0000.0001) // END OF FIELD                                          =
(PID.TID 0000.0001) // =======================================================
(PID.TID 0000.0001) 
(PID.TID 0000.0001) // =======================================================
(PID.TID 0000.0001) // Field Model Ro_surf (ini_masks_etc) at iteration          1
(PID.TID 0000.0001) // CMIN =          1.000000000000000E+32
(PID.TID 0000.0001) // CMAX =         -1.000000000000000E+32
(PID.TID 0000.0001) // CINT =          0.000000000000000E+00
(PID.TID 0000.0001) // SYMBOLS (CMIN->CMAX): -abcdefghijklmnopqrstuvwxyz+
(PID.TID 0000.0001) //                  0.0: .
(PID.TID 0000.0001) // RANGE I (Lo:Hi:Step):(  -2:   6:   1)
(PID.TID 0000.0001) // RANGE J (Lo:Hi:Step):(   4:  -2:  -1)
(PID.TID 0000.0001) // RANGE K (Lo:Hi:Step):(   1:   1:   1)
(PID.TID 0000.0001) // =======================================================
(PID.TID 0000.0001) // =======================================================
(PID.TID 0000.0001) // END OF FIELD                                          =
(PID.TID 0000.0001) // =======================================================
(PID.TID 0000.0001) 
(PID.TID 0000.0001) // =======================================================
(PID.TID 0000.0001) // Field hFacC at iteration          1
(PID.TID 0000.0001) // CMIN =          1.000000000000000E+00
(PID.TID 0000.0001) // CMAX =          1.000000000000000E+00
(PID.TID 0000.0001) // CINT =          0.000000000000000E+00
(PID.TID 0000.0001) // SYMBOLS (CMIN->CMAX): -abcdefghijklmnopqrstuvwxyz+
(PID.TID 0000.0001) //                  0.0: .
(PID.TID 0000.0001) // RANGE I (Lo:Hi:Step):(  -2:   6:   1)
(PID.TID 0000.0001) // RANGE J (Lo:Hi:Step):(   4:  -2:  -1)
(PID.TID 0000.0001) // RANGE K (Lo:Hi:Step):(   1:   1:   1)
(PID.TID 0000.0001) // =======================================================
(PID.TID 0000.0001) // =======================================================
(PID.TID 0000.0001) // END OF FIELD                                          =
(PID.TID 0000.0001) // =======================================================
(PID.TID 0000.0001) 
(PID.TID 0000.0001) // =======================================================
(PID.TID 0000.0001) // Field hFacW at iteration          1
(PID.TID 0000.0001) // CMIN =          1.000000000000000E+00
(PID.TID 0000.0001) // CMAX =          1.000000000000000E+00
(PID.TID 0000.0001) // CINT =          0.000000000000000E+00
(PID.TID 0000.0001) // SYMBOLS (CMIN->CMAX): -abcdefghijklmnopqrstuvwxyz+
(PID.TID 0000.0001) //                  0.0: .
(PID.TID 0000.0001) // RANGE I (Lo:Hi:Step):(  -2:   6:   1)
(PID.TID 0000.0001) // RANGE J (Lo:Hi:Step):(   4:  -2:  -1)
(PID.TID 0000.0001) // RANGE K (Lo:Hi:Step):(   1:   1:   1)
(PID.TID 0000.0001) // =======================================================
(PID.TID 0000.0001) // =======================================================
(PID.TID 0000.0001) // END OF FIELD                                          =
(PID.TID 0000.0001) // =======================================================
(PID.TID 0000.0001) 
(PID.TID 0000.0001) // =======================================================
(PID.TID 0000.0001) // Field hFacS at iteration          1
(PID.TID 0000.0001) // CMIN =          1.000000000000000E+00
(PID.TID 0000.0001) // CMAX =          1.000000000000000E+00
(PID.TID 0000.0001) // CINT =          0.000000000000000E+00
(PID.TID 0000.0001) // SYMBOLS (CMIN->CMAX): -abcdefghijklmnopqrstuvwxyz+
(PID.TID 0000.0001) //                  0.0: .
(PID.TID 0000.0001) // RANGE I (Lo:Hi:Step):(  -2:   6:   1)
(PID.TID 0000.0001) // RANGE J (Lo:Hi:Step):(   4:  -2:  -1)
(PID.TID 0000.0001) // RANGE K (Lo:Hi:Step):(   1:   1:   1)
(PID.TID 0000.0001) // =======================================================
(PID.TID 0000.0001) // =======================================================
(PID.TID 0000.0001) // END OF FIELD                                          =
(PID.TID 0000.0001) // =======================================================
(PID.TID 0000.0001) 
(PID.TID 0000.0001) 
(PID.TID 0000.0001) // ===================================
(PID.TID 0000.0001) // GAD parameters :
(PID.TID 0000.0001) // ===================================
(PID.TID 0000.0001) tempAdvScheme =   /* Temp. Horiz.Advection scheme selector */
(PID.TID 0000.0001)                      33
(PID.TID 0000.0001)     ;
(PID.TID 0000.0001) tempVertAdvScheme =   /* Temp. Vert. Advection scheme selector */
(PID.TID 0000.0001)                      33
(PID.TID 0000.0001)     ;
(PID.TID 0000.0001) tempMultiDimAdvec =   /* use Muti-Dim Advec method for Temp */
(PID.TID 0000.0001)                   F
(PID.TID 0000.0001)     ;
(PID.TID 0000.0001) tempSOM_Advection = /* use 2nd Order Moment Advection for Temp */
(PID.TID 0000.0001)                   F
(PID.TID 0000.0001)     ;
(PID.TID 0000.0001) AdamsBashforthGt = /* apply Adams-Bashforth extrapolation on Gt */
(PID.TID 0000.0001)                   F
(PID.TID 0000.0001)     ;
(PID.TID 0000.0001) AdamsBashforth_T = /* apply Adams-Bashforth extrapolation on Temp */
(PID.TID 0000.0001)                   F
(PID.TID 0000.0001)     ;
(PID.TID 0000.0001) saltAdvScheme =   /* Salt. Horiz.advection scheme selector */
(PID.TID 0000.0001)                       2
(PID.TID 0000.0001)     ;
(PID.TID 0000.0001) saltVertAdvScheme =   /* Salt. Vert. Advection scheme selector */
(PID.TID 0000.0001)                       2
(PID.TID 0000.0001)     ;
(PID.TID 0000.0001) saltMultiDimAdvec =   /* use Muti-Dim Advec method for Salt */
(PID.TID 0000.0001)                   F
(PID.TID 0000.0001)     ;
(PID.TID 0000.0001) saltSOM_Advection = /* use 2nd Order Moment Advection for Salt */
(PID.TID 0000.0001)                   F
(PID.TID 0000.0001)     ;
(PID.TID 0000.0001) AdamsBashforthGs = /* apply Adams-Bashforth extrapolation on Gs */
(PID.TID 0000.0001)                   T
(PID.TID 0000.0001)     ;
(PID.TID 0000.0001) AdamsBashforth_S = /* apply Adams-Bashforth extrapolation on Salt */
(PID.TID 0000.0001)                   F
(PID.TID 0000.0001)     ;
(PID.TID 0000.0001) // ===================================
(PID.TID 0000.0001) %MON fCori_max                    =   1.4000000000000E-04
(PID.TID 0000.0001) %MON fCori_min                    =   1.4000000000000E-04
(PID.TID 0000.0001) %MON fCori_mean                   =   1.4000000000000E-04
(PID.TID 0000.0001) %MON fCori_sd                     =   0.0000000000000E+00
(PID.TID 0000.0001) %MON fCoriG_max                   =   1.4000000000000E-04
(PID.TID 0000.0001) %MON fCoriG_min                   =   1.4000000000000E-04
(PID.TID 0000.0001) %MON fCoriG_mean                  =   1.4000000000000E-04
(PID.TID 0000.0001) %MON fCoriG_sd                    =   0.0000000000000E+00
(PID.TID 0000.0001) %MON fCoriCos_max                 =   0.0000000000000E+00
(PID.TID 0000.0001) %MON fCoriCos_min                 =   0.0000000000000E+00
(PID.TID 0000.0001) %MON fCoriCos_mean                =   0.0000000000000E+00
(PID.TID 0000.0001) %MON fCoriCos_sd                  =   0.0000000000000E+00
(PID.TID 0000.0001) INI_CG2D: CG2D normalisation factor =  1.0000000000000000E-03
(PID.TID 0000.0001) 
(PID.TID 0000.0001) // =======================================================
(PID.TID 0000.0001) // Model configuration
(PID.TID 0000.0001) // =======================================================
(PID.TID 0000.0001) //
(PID.TID 0000.0001) // "Physical" paramters ( PARM01 in namelist )
(PID.TID 0000.0001) //
(PID.TID 0000.0001) buoyancyRelation = /* Type of relation to get Buoyancy */
(PID.TID 0000.0001)               'OCEANIC'
(PID.TID 0000.0001)     ;
(PID.TID 0000.0001) fluidIsAir  =  /* fluid major constituent is Air */
(PID.TID 0000.0001)                   F
(PID.TID 0000.0001)     ;
(PID.TID 0000.0001) fluidIsWater=  /* fluid major constituent is Water */
(PID.TID 0000.0001)                   T
(PID.TID 0000.0001)     ;
(PID.TID 0000.0001) usingPCoords =  /* use p (or p*) vertical coordinate */
(PID.TID 0000.0001)                   F
(PID.TID 0000.0001)     ;
(PID.TID 0000.0001) usingZCoords =  /* use z (or z*) vertical coordinate */
(PID.TID 0000.0001)                   T
(PID.TID 0000.0001)     ;
(PID.TID 0000.0001) tRef =   /* Reference temperature profile ( oC or K ) */
(PID.TID 0000.0001)    20 @  1.000000000000000E+00              /* K =  1: 20 */
(PID.TID 0000.0001)     ;
(PID.TID 0000.0001) sRef =   /* Reference salinity profile ( psu ) */
(PID.TID 0000.0001)    20 @  3.500000000000000E+01              /* K =  1: 20 */
(PID.TID 0000.0001)     ;
(PID.TID 0000.0001) viscAh =   /* Lateral eddy viscosity ( m^2/s ) */
(PID.TID 0000.0001)                 0.000000000000000E+00
(PID.TID 0000.0001)     ;
(PID.TID 0000.0001) viscAhMax =   /* Maximum lateral eddy viscosity ( m^2/s ) */
(PID.TID 0000.0001)                 1.000000000000000E+21
(PID.TID 0000.0001)     ;
(PID.TID 0000.0001) viscAhGrid =   /* Grid dependent lateral eddy viscosity ( non-dim. ) */
(PID.TID 0000.0001)                 0.000000000000000E+00
(PID.TID 0000.0001)     ;
(PID.TID 0000.0001) useFullLeith =   /* Use Full Form of Leith Viscosity on/off flag*/
(PID.TID 0000.0001)                   F
(PID.TID 0000.0001)     ;
(PID.TID 0000.0001) useStrainTensionVisc =   /* Use StrainTension Form of Viscous Operator on/off flag*/
(PID.TID 0000.0001)                   F
(PID.TID 0000.0001)     ;
(PID.TID 0000.0001) useAreaViscLength =   /* Use area for visc length instead of geom. mean*/
(PID.TID 0000.0001)                   F
(PID.TID 0000.0001)     ;
(PID.TID 0000.0001) viscC2leith = /* Leith harmonic visc. factor (on grad(vort),non-dim.) */
(PID.TID 0000.0001)                 0.000000000000000E+00
(PID.TID 0000.0001)     ;
(PID.TID 0000.0001) viscC2leithD = /* Leith harmonic viscosity factor (on grad(div),non-dim.) */
(PID.TID 0000.0001)                 0.000000000000000E+00
(PID.TID 0000.0001)     ;
(PID.TID 0000.0001) viscC2smag =   /* Smagorinsky harmonic viscosity factor (non-dim.) */
(PID.TID 0000.0001)                 0.000000000000000E+00
(PID.TID 0000.0001)     ;
(PID.TID 0000.0001) viscA4 =   /* Lateral biharmonic viscosity ( m^4/s ) */
(PID.TID 0000.0001)                 0.000000000000000E+00
(PID.TID 0000.0001)     ;
(PID.TID 0000.0001) viscA4Max =   /* Maximum biharmonic viscosity ( m^2/s ) */
(PID.TID 0000.0001)                 1.000000000000000E+21
(PID.TID 0000.0001)     ;
(PID.TID 0000.0001) viscA4Grid =   /* Grid dependent biharmonic viscosity ( non-dim. ) */
(PID.TID 0000.0001)                 0.000000000000000E+00
(PID.TID 0000.0001)     ;
(PID.TID 0000.0001) viscC4leith = /* Leith biharm viscosity factor (on grad(vort), non-dim.) */
(PID.TID 0000.0001)                 0.000000000000000E+00
(PID.TID 0000.0001)     ;
(PID.TID 0000.0001) viscC4leithD = /* Leith biharm viscosity factor (on grad(div), non-dim.) */
(PID.TID 0000.0001)                 0.000000000000000E+00
(PID.TID 0000.0001)     ;
(PID.TID 0000.0001) viscC4Smag = /* Smagorinsky biharm viscosity factor (non-dim) */
(PID.TID 0000.0001)                 0.000000000000000E+00
(PID.TID 0000.0001)     ;
(PID.TID 0000.0001) no_slip_sides =  /* Viscous BCs: No-slip sides */
(PID.TID 0000.0001)                   T
(PID.TID 0000.0001)     ;
(PID.TID 0000.0001) sideDragFactor = /* side-drag scaling factor (non-dim) */
(PID.TID 0000.0001)                 2.000000000000000E+00
(PID.TID 0000.0001)     ;
(PID.TID 0000.0001) viscAr =   /* Vertical eddy viscosity ( m^2/s ) */
(PID.TID 0000.0001)                 1.000000000000000E-04
(PID.TID 0000.0001)     ;
(PID.TID 0000.0001) no_slip_bottom =  /* Viscous BCs: No-slip bottom */
(PID.TID 0000.0001)                   T
(PID.TID 0000.0001)     ;
(PID.TID 0000.0001) bottomDragLinear = /* linear bottom-drag coefficient ( m/s ) */
(PID.TID 0000.0001)                 0.000000000000000E+00
(PID.TID 0000.0001)     ;
(PID.TID 0000.0001) bottomDragQuadratic = /* quadratic bottom-drag coefficient (-) */
(PID.TID 0000.0001)                 0.000000000000000E+00
(PID.TID 0000.0001)     ;
(PID.TID 0000.0001) diffKhT =   /* Laplacian diffusion of heat laterally ( m^2/s ) */
(PID.TID 0000.0001)                 0.000000000000000E+00
(PID.TID 0000.0001)     ;
(PID.TID 0000.0001) diffK4T =   /* Biharmonic diffusion of heat laterally ( m^4/s ) */
(PID.TID 0000.0001)                 0.000000000000000E+00
(PID.TID 0000.0001)     ;
(PID.TID 0000.0001) diffKhS =   /* Laplacian diffusion of salt laterally ( m^2/s ) */
(PID.TID 0000.0001)                 0.000000000000000E+00
(PID.TID 0000.0001)     ;
(PID.TID 0000.0001) diffK4S =   /* Biharmonic diffusion of salt laterally ( m^4/s ) */
(PID.TID 0000.0001)                 0.000000000000000E+00
(PID.TID 0000.0001)     ;
(PID.TID 0000.0001) diffKrNrT = /* vertical profile of vertical diffusion of Temp ( m^2/s )*/
(PID.TID 0000.0001)    20 @  1.000000000000000E-05              /* K =  1: 20 */
(PID.TID 0000.0001)     ;
(PID.TID 0000.0001) diffKrNrS = /* vertical profile of vertical diffusion of Salt ( m^2/s )*/
(PID.TID 0000.0001)    20 @  1.000000000000000E-05              /* K =  1: 20 */
(PID.TID 0000.0001)     ;
(PID.TID 0000.0001) diffKrBL79surf = /* Surface diffusion for Bryan and Lewis 79 ( m^2/s ) */
(PID.TID 0000.0001)                 0.000000000000000E+00
(PID.TID 0000.0001)     ;
(PID.TID 0000.0001) diffKrBL79deep = /* Deep diffusion for Bryan and Lewis 1979 ( m^2/s ) */
(PID.TID 0000.0001)                 0.000000000000000E+00
(PID.TID 0000.0001)     ;
(PID.TID 0000.0001) diffKrBL79scl = /* Depth scale for Bryan and Lewis 1979 ( m ) */
(PID.TID 0000.0001)                 2.000000000000000E+02
(PID.TID 0000.0001)     ;
(PID.TID 0000.0001) diffKrBL79Ho = /* Turning depth for Bryan and Lewis 1979 ( m ) */
(PID.TID 0000.0001)                -2.000000000000000E+03
(PID.TID 0000.0001)     ;
(PID.TID 0000.0001) ivdc_kappa = /* Implicit Vertical Diffusivity for Convection ( m^2/s ) */
(PID.TID 0000.0001)                 0.000000000000000E+00
(PID.TID 0000.0001)     ;
(PID.TID 0000.0001) hMixCriteria=  /* Criteria for mixed-layer diagnostic */
(PID.TID 0000.0001)                -8.000000000000000E-01
(PID.TID 0000.0001)     ;
(PID.TID 0000.0001) dRhoSmall=  /* Parameter for mixed-layer diagnostic */
(PID.TID 0000.0001)                 1.000000000000000E-06
(PID.TID 0000.0001)     ;
(PID.TID 0000.0001) hMixSmooth=  /* Smoothing parameter for mixed-layer diagnostic */
(PID.TID 0000.0001)                 0.000000000000000E+00
(PID.TID 0000.0001)     ;
(PID.TID 0000.0001) eosType =  /* Type of Equation of State */
(PID.TID 0000.0001)               'MDJWF '
(PID.TID 0000.0001)     ;
(PID.TID 0000.0001) tAlpha =   /* Linear EOS thermal expansion coefficient ( 1/oC ) */
(PID.TID 0000.0001)                 2.000000000000000E-04
(PID.TID 0000.0001)     ;
(PID.TID 0000.0001) sBeta =   /* Linear EOS haline contraction coefficient ( 1/psu ) */
(PID.TID 0000.0001)                 0.000000000000000E+00
(PID.TID 0000.0001)     ;
(PID.TID 0000.0001) rhonil =   /* Reference density ( kg/m^3 ) */
(PID.TID 0000.0001)                 9.998000000000000E+02
(PID.TID 0000.0001)     ;
(PID.TID 0000.0001) rhoConst =   /* Reference density ( kg/m^3 ) */
(PID.TID 0000.0001)                 9.998000000000000E+02
(PID.TID 0000.0001)     ;
(PID.TID 0000.0001) rhoFacC = /* normalized Reference density @ cell-Center (-) */
(PID.TID 0000.0001)    20 @  1.000000000000000E+00              /* K =  1: 20 */
(PID.TID 0000.0001)     ;
(PID.TID 0000.0001) rhoFacF = /* normalized Reference density @ W-Interface (-) */
(PID.TID 0000.0001)    21 @  1.000000000000000E+00              /* K =  1: 21 */
(PID.TID 0000.0001)     ;
(PID.TID 0000.0001) rhoConstFresh =   /* Reference density ( kg/m^3 ) */
(PID.TID 0000.0001)                 9.998000000000000E+02
(PID.TID 0000.0001)     ;
(PID.TID 0000.0001) gravity =   /* Gravitational acceleration ( m/s^2 ) */
(PID.TID 0000.0001)                 9.810000000000000E+00
(PID.TID 0000.0001)     ;
(PID.TID 0000.0001) gBaro =   /* Barotropic gravity ( m/s^2 ) */
(PID.TID 0000.0001)                 9.810000000000000E+00
(PID.TID 0000.0001)     ;
(PID.TID 0000.0001) rotationPeriod =   /* Rotation Period ( s ) */
(PID.TID 0000.0001)                 8.616400000000000E+04
(PID.TID 0000.0001)     ;
(PID.TID 0000.0001) omega =   /* Angular velocity ( rad/s ) */
(PID.TID 0000.0001)                 7.292123516990375E-05
(PID.TID 0000.0001)     ;
(PID.TID 0000.0001) f0 =   /* Reference coriolis parameter ( 1/s ) */
(PID.TID 0000.0001)                 1.400000000000000E-04
(PID.TID 0000.0001)     ;
(PID.TID 0000.0001) beta =   /* Beta ( 1/(m.s) ) */
(PID.TID 0000.0001)                 0.000000000000000E+00
(PID.TID 0000.0001)     ;
(PID.TID 0000.0001) freeSurfFac =   /* Implicit free surface factor */
(PID.TID 0000.0001)                 1.000000000000000E+00
(PID.TID 0000.0001)     ;
(PID.TID 0000.0001) implicitFreeSurface =   /* Implicit free surface on/off flag */
(PID.TID 0000.0001)                   T
(PID.TID 0000.0001)     ;
(PID.TID 0000.0001) rigidLid =   /* Rigid lid on/off flag */
(PID.TID 0000.0001)                   F
(PID.TID 0000.0001)     ;
(PID.TID 0000.0001) implicSurfPress =   /* Surface Pressure implicit factor (0-1)*/
(PID.TID 0000.0001)                 1.000000000000000E+00
(PID.TID 0000.0001)     ;
(PID.TID 0000.0001) implicDiv2Dflow =   /* Barot. Flow Div. implicit factor (0-1)*/
(PID.TID 0000.0001)                 1.000000000000000E+00
(PID.TID 0000.0001)     ;
(PID.TID 0000.0001) exactConserv =   /* Exact Volume Conservation on/off flag*/
(PID.TID 0000.0001)                   F
(PID.TID 0000.0001)     ;
(PID.TID 0000.0001) linFSConserveTr =   /* Tracer correction for Lin Free Surface on/off flag*/
(PID.TID 0000.0001)                   F
(PID.TID 0000.0001)     ;
(PID.TID 0000.0001) uniformLin_PhiSurf =   /* use uniform Bo_surf on/off flag*/
(PID.TID 0000.0001)                   T
(PID.TID 0000.0001)     ;
(PID.TID 0000.0001) nonlinFreeSurf =   /* Non-linear Free Surf. options (-1,0,1,2,3)*/
(PID.TID 0000.0001)                       0
(PID.TID 0000.0001)     ;
(PID.TID 0000.0001)      -1,0= Off ; 1,2,3= On, 2=+rescale gU,gV, 3=+update cg2d solv.
(PID.TID 0000.0001) hFacInf =   /* lower threshold for hFac (nonlinFreeSurf only)*/
(PID.TID 0000.0001)                 2.000000000000000E-01
(PID.TID 0000.0001)     ;
(PID.TID 0000.0001) hFacSup =   /* upper threshold for hFac (nonlinFreeSurf only)*/
(PID.TID 0000.0001)                 2.000000000000000E+00
(PID.TID 0000.0001)     ;
(PID.TID 0000.0001) select_rStar = /* r* Vertical coord. options (=0 r coord.; > 0 uses r*) */
(PID.TID 0000.0001)                       0
(PID.TID 0000.0001)     ;
(PID.TID 0000.0001) selectAddFluid = /* option for mass source/sink of fluid (=0: off) */
(PID.TID 0000.0001)                       0
(PID.TID 0000.0001)     ;
(PID.TID 0000.0001) useRealFreshWaterFlux = /* Real Fresh Water Flux on/off flag*/
(PID.TID 0000.0001)                   F
(PID.TID 0000.0001)     ;
(PID.TID 0000.0001) temp_EvPrRn = /* Temp. of Evap/Prec/R (UNSET=use local T)(oC)*/
(PID.TID 0000.0001)                 1.234567000000000E+05
(PID.TID 0000.0001)     ;
(PID.TID 0000.0001) salt_EvPrRn = /* Salin. of Evap/Prec/R (UNSET=use local S)(ppt)*/
(PID.TID 0000.0001)                 0.000000000000000E+00
(PID.TID 0000.0001)     ;
(PID.TID 0000.0001) convertFW2Salt = /* convert F.W. Flux to Salt Flux (-1=use local S)(ppt)*/
(PID.TID 0000.0001)                 3.500000000000000E+01
(PID.TID 0000.0001)     ;
(PID.TID 0000.0001) use3Dsolver = /* use 3-D pressure solver on/off flag */
(PID.TID 0000.0001)                   F
(PID.TID 0000.0001)     ;
(PID.TID 0000.0001) nonHydrostatic =  /* Non-Hydrostatic on/off flag */
(PID.TID 0000.0001)                   F
(PID.TID 0000.0001)     ;
(PID.TID 0000.0001) nh_Am2 = /* Non-Hydrostatic terms scaling factor */
(PID.TID 0000.0001)                 1.000000000000000E+00
(PID.TID 0000.0001)     ;
(PID.TID 0000.0001) quasiHydrostatic = /* Quasi-Hydrostatic on/off flag */
(PID.TID 0000.0001)                   F
(PID.TID 0000.0001)     ;
(PID.TID 0000.0001) momStepping =  /* Momentum equation on/off flag */
(PID.TID 0000.0001)                   T
(PID.TID 0000.0001)     ;
(PID.TID 0000.0001) vectorInvariantMomentum= /* Vector-Invariant Momentum on/off */
(PID.TID 0000.0001)                   F
(PID.TID 0000.0001)     ;
(PID.TID 0000.0001) momAdvection =  /* Momentum advection on/off flag */
(PID.TID 0000.0001)                   T
(PID.TID 0000.0001)     ;
(PID.TID 0000.0001) momViscosity =  /* Momentum viscosity on/off flag */
(PID.TID 0000.0001)                   T
(PID.TID 0000.0001)     ;
(PID.TID 0000.0001) momImplVertAdv =/* Momentum implicit vert. advection on/off*/
(PID.TID 0000.0001)                   F
(PID.TID 0000.0001)     ;
(PID.TID 0000.0001) implicitViscosity = /* Implicit viscosity on/off flag */
(PID.TID 0000.0001)                   T
(PID.TID 0000.0001)     ;
(PID.TID 0000.0001) metricTerms =  /* metric-Terms on/off flag */
(PID.TID 0000.0001)                   F
(PID.TID 0000.0001)     ;
(PID.TID 0000.0001) useNHMTerms = /* Non-Hydrostatic Metric-Terms on/off */
(PID.TID 0000.0001)                   F
(PID.TID 0000.0001)     ;
(PID.TID 0000.0001) useConstantF =  /* use Constant f0 Coriolis flag */
(PID.TID 0000.0001)                   F
(PID.TID 0000.0001)     ;
(PID.TID 0000.0001) useBetaPlaneF = /* use Beta-Plane Coriolis flag */
(PID.TID 0000.0001)                   T
(PID.TID 0000.0001)     ;
(PID.TID 0000.0001) useSphereF  =   /* use Spherical Coriolis flag */
(PID.TID 0000.0001)                   F
(PID.TID 0000.0001)     ;
(PID.TID 0000.0001) use3dCoriolis = /* 3-D Coriolis on/off flag */
(PID.TID 0000.0001)                   F
(PID.TID 0000.0001)     ;
(PID.TID 0000.0001) useCoriolis =  /* Coriolis on/off flag */
(PID.TID 0000.0001)                   T
(PID.TID 0000.0001)     ;
(PID.TID 0000.0001) useCDscheme =  /* CD scheme on/off flag */
(PID.TID 0000.0001)                   F
(PID.TID 0000.0001)     ;
(PID.TID 0000.0001) useJamartWetPoints= /* Coriolis WetPoints method flag */
(PID.TID 0000.0001)                   F
(PID.TID 0000.0001)     ;
(PID.TID 0000.0001) useJamartMomAdv= /* V.I. Non-linear terms Jamart flag */
(PID.TID 0000.0001)                   F
(PID.TID 0000.0001)     ;
(PID.TID 0000.0001) useAbsVorticity= /* Work with f+zeta in Coriolis */
(PID.TID 0000.0001)                   F
(PID.TID 0000.0001)     ;
(PID.TID 0000.0001) selectVortScheme= /* Scheme selector for Vorticity-Term */
(PID.TID 0000.0001)               123456789
(PID.TID 0000.0001)    = 0 : enstrophy (Shallow-Water Eq.) conserving scheme by Sadourny, JAS 75
(PID.TID 0000.0001)    = 1 : same as 0 with modified hFac
(PID.TID 0000.0001)    = 2 : energy conserving scheme (used by Sadourny in JAS 75 paper)
(PID.TID 0000.0001)    = 3 : energy (general) and enstrophy (2D, nonDiv.) conserving scheme
(PID.TID 0000.0001)          from Sadourny (Burridge & Haseler, ECMWF Rep.4, 1977)
(PID.TID 0000.0001)     ;
(PID.TID 0000.0001) upwindVorticity= /* Upwind bias vorticity flag */
(PID.TID 0000.0001)                   F
(PID.TID 0000.0001)     ;
(PID.TID 0000.0001) highOrderVorticity= /* High order interp. of vort. flag */
(PID.TID 0000.0001)                   F
(PID.TID 0000.0001)     ;
(PID.TID 0000.0001) upwindShear= /* Upwind vertical Shear advection flag */
(PID.TID 0000.0001)                   F
(PID.TID 0000.0001)     ;
(PID.TID 0000.0001) selectKEscheme= /* Kinetic Energy scheme selector */
(PID.TID 0000.0001)                       0
(PID.TID 0000.0001)     ;
(PID.TID 0000.0001) momForcing =  /* Momentum forcing on/off flag */
(PID.TID 0000.0001)                   T
(PID.TID 0000.0001)     ;
(PID.TID 0000.0001) momPressureForcing =  /* Momentum pressure term on/off flag */
(PID.TID 0000.0001)                   T
(PID.TID 0000.0001)     ;
(PID.TID 0000.0001) implicitIntGravWave= /* Implicit Internal Gravity Wave flag */
(PID.TID 0000.0001)                   F
(PID.TID 0000.0001)     ;
(PID.TID 0000.0001) staggerTimeStep =   /* Stagger time stepping on/off flag */
(PID.TID 0000.0001)                   F
(PID.TID 0000.0001)     ;
(PID.TID 0000.0001) multiDimAdvection =   /* enable/disable Multi-Dim Advection */
(PID.TID 0000.0001)                   T
(PID.TID 0000.0001)     ;
(PID.TID 0000.0001) useMultiDimAdvec =   /* Multi-Dim Advection is/is-not used */
(PID.TID 0000.0001)                   F
(PID.TID 0000.0001)     ;
(PID.TID 0000.0001) implicitDiffusion =/* Implicit Diffusion on/off flag */
(PID.TID 0000.0001)                   T
(PID.TID 0000.0001)     ;
(PID.TID 0000.0001) tempStepping =  /* Temperature equation on/off flag */
(PID.TID 0000.0001)                   T
(PID.TID 0000.0001)     ;
(PID.TID 0000.0001) tempAdvection=  /* Temperature advection on/off flag */
(PID.TID 0000.0001)                   F
(PID.TID 0000.0001)     ;
(PID.TID 0000.0001) tempImplVertAdv =/* Temp. implicit vert. advection on/off */
(PID.TID 0000.0001)                   F
(PID.TID 0000.0001)     ;
(PID.TID 0000.0001) tempForcing  =  /* Temperature forcing on/off flag */
(PID.TID 0000.0001)                   T
(PID.TID 0000.0001)     ;
(PID.TID 0000.0001) tempIsActiveTr = /* Temp. is a dynamically Active Tracer */
(PID.TID 0000.0001)                   F
(PID.TID 0000.0001)     ;
(PID.TID 0000.0001) saltStepping =  /* Salinity equation on/off flag */
(PID.TID 0000.0001)                   T
(PID.TID 0000.0001)     ;
(PID.TID 0000.0001) saltAdvection=  /* Salinity advection on/off flag */
(PID.TID 0000.0001)                   T
(PID.TID 0000.0001)     ;
(PID.TID 0000.0001) saltImplVertAdv =/* Sali. implicit vert. advection on/off */
(PID.TID 0000.0001)                   F
(PID.TID 0000.0001)     ;
(PID.TID 0000.0001) saltForcing  =  /* Salinity forcing on/off flag */
(PID.TID 0000.0001)                   T
(PID.TID 0000.0001)     ;
(PID.TID 0000.0001) saltIsActiveTr = /* Salt  is a dynamically Active Tracer */
(PID.TID 0000.0001)                   T
(PID.TID 0000.0001)     ;
(PID.TID 0000.0001)  readBinaryPrec = /* Precision used for reading binary files */
(PID.TID 0000.0001)                      64
(PID.TID 0000.0001)     ;
(PID.TID 0000.0001) writeBinaryPrec = /* Precision used for writing binary files */
(PID.TID 0000.0001)                      32
(PID.TID 0000.0001)     ;
(PID.TID 0000.0001)  globalFiles = /* write "global" (=not per tile) files */
(PID.TID 0000.0001)                   F
(PID.TID 0000.0001)     ;
(PID.TID 0000.0001)  useSingleCpuIO = /* only master MPI process does I/O */
(PID.TID 0000.0001)                   F
(PID.TID 0000.0001)     ;
(PID.TID 0000.0001)  debugMode  =  /* Debug Mode on/off flag */
(PID.TID 0000.0001)                   F
(PID.TID 0000.0001)     ;
(PID.TID 0000.0001)    debLevA  =  /* 1rst level of debugging */
(PID.TID 0000.0001)                       1
(PID.TID 0000.0001)     ;
(PID.TID 0000.0001)    debLevB  =  /* 2nd  level of debugging */
(PID.TID 0000.0001)                       2
(PID.TID 0000.0001)     ;
(PID.TID 0000.0001)  debugLevel =  /* select debugging level */
(PID.TID 0000.0001)                       1
(PID.TID 0000.0001)     ;
(PID.TID 0000.0001) //
(PID.TID 0000.0001) // Elliptic solver(s) paramters ( PARM02 in namelist )
(PID.TID 0000.0001) //
(PID.TID 0000.0001) cg2dMaxIters =   /* Upper limit on 2d con. grad iterations  */
(PID.TID 0000.0001)                     300
(PID.TID 0000.0001)     ;
(PID.TID 0000.0001) cg2dChkResFreq =   /* 2d con. grad convergence test frequency */
(PID.TID 0000.0001)                       1
(PID.TID 0000.0001)     ;
(PID.TID 0000.0001) cg2dTargetResidual =   /* 2d con. grad target residual  */
(PID.TID 0000.0001)                 1.000000000000000E-13
(PID.TID 0000.0001)     ;
(PID.TID 0000.0001) cg2dTargetResWunit =   /* CG2d target residual [W units] */
(PID.TID 0000.0001)                -1.000000000000000E+00
(PID.TID 0000.0001)     ;
(PID.TID 0000.0001) cg2dPreCondFreq =   /* Freq. for updating cg2d preconditioner */
(PID.TID 0000.0001)                       1
(PID.TID 0000.0001)     ;
(PID.TID 0000.0001) //
(PID.TID 0000.0001) // Time stepping paramters ( PARM03 in namelist )
(PID.TID 0000.0001) //
(PID.TID 0000.0001) deltaTmom =   /* Momentum equation timestep ( s ) */
(PID.TID 0000.0001)                 1.200000000000000E+03
(PID.TID 0000.0001)     ;
(PID.TID 0000.0001) deltaTfreesurf =   /* FreeSurface equation timestep ( s ) */
(PID.TID 0000.0001)                 1.200000000000000E+03
(PID.TID 0000.0001)     ;
(PID.TID 0000.0001) dTtracerLev =   /* Tracer equation timestep ( s ) */
(PID.TID 0000.0001)    20 @  1.200000000000000E+03              /* K =  1: 20 */
(PID.TID 0000.0001)     ;
(PID.TID 0000.0001) deltaTClock  =   /* Model clock timestep ( s ) */
(PID.TID 0000.0001)                 1.200000000000000E+03
(PID.TID 0000.0001)     ;
(PID.TID 0000.0001) cAdjFreq =   /* Convective adjustment interval ( s ) */
(PID.TID 0000.0001)                 0.000000000000000E+00
(PID.TID 0000.0001)     ;
(PID.TID 0000.0001) momForcingOutAB = /* =1: take Momentum Forcing out of Adams-Bash. stepping */
(PID.TID 0000.0001)                       0
(PID.TID 0000.0001)     ;
(PID.TID 0000.0001) tracForcingOutAB = /* =1: take T,S,pTr Forcing out of Adams-Bash. stepping */
(PID.TID 0000.0001)                       0
(PID.TID 0000.0001)     ;
(PID.TID 0000.0001) momDissip_In_AB = /* put Dissipation Tendency in Adams-Bash. stepping */
(PID.TID 0000.0001)                   T
(PID.TID 0000.0001)     ;
(PID.TID 0000.0001) doAB_onGtGs = /* apply AB on Tendencies (rather than on T,S)*/
(PID.TID 0000.0001)                   T
(PID.TID 0000.0001)     ;
(PID.TID 0000.0001) abEps =   /* Adams-Bashforth-2 stabilizing weight */
(PID.TID 0000.0001)                 1.000000000000000E-02
(PID.TID 0000.0001)     ;
(PID.TID 0000.0001) pickupStrictlyMatch= /* stop if pickup do not strictly match */
(PID.TID 0000.0001)                   T
(PID.TID 0000.0001)     ;
(PID.TID 0000.0001) nIter0 =   /* Run starting timestep number  */
(PID.TID 0000.0001)                       0
(PID.TID 0000.0001)     ;
(PID.TID 0000.0001) nTimeSteps =   /* Number of timesteps */
(PID.TID 0000.0001)                      20
(PID.TID 0000.0001)     ;
(PID.TID 0000.0001) baseTime =   /* Model base time ( s ). */
(PID.TID 0000.0001)                 0.000000000000000E+00
(PID.TID 0000.0001)     ;
(PID.TID 0000.0001) startTime =   /* Run start time ( s ). */
(PID.TID 0000.0001)                 0.000000000000000E+00
(PID.TID 0000.0001)     ;
(PID.TID 0000.0001) endTime =   /* Integration ending time ( s ). */
(PID.TID 0000.0001)                 2.400000000000000E+04
(PID.TID 0000.0001)     ;
(PID.TID 0000.0001) pChkPtFreq =   /* Permanent restart/checkpoint file interval ( s ). */
(PID.TID 0000.0001)                 0.000000000000000E+00
(PID.TID 0000.0001)     ;
(PID.TID 0000.0001) chkPtFreq =   /* Rolling restart/checkpoint file interval ( s ). */
(PID.TID 0000.0001)                 0.000000000000000E+00
(PID.TID 0000.0001)     ;
(PID.TID 0000.0001) pickup_write_mdsio =   /* Model IO flag. */
(PID.TID 0000.0001)                   T
(PID.TID 0000.0001)     ;
(PID.TID 0000.0001) pickup_read_mdsio =   /* Model IO flag. */
(PID.TID 0000.0001)                   T
(PID.TID 0000.0001)     ;
(PID.TID 0000.0001) pickup_write_immed =   /* Model IO flag. */
(PID.TID 0000.0001)                   F
(PID.TID 0000.0001)     ;
(PID.TID 0000.0001) writePickupAtEnd =   /* Model IO flag. */
(PID.TID 0000.0001)                   T
(PID.TID 0000.0001)     ;
(PID.TID 0000.0001) dumpFreq =   /* Model state write out interval ( s ). */
(PID.TID 0000.0001)                 8.640000000000000E+04
(PID.TID 0000.0001)     ;
(PID.TID 0000.0001) dumpInitAndLast= /* write out Initial & Last iter. model state */
(PID.TID 0000.0001)                   T
(PID.TID 0000.0001)     ;
(PID.TID 0000.0001) snapshot_mdsio =   /* Model IO flag. */
(PID.TID 0000.0001)                   T
(PID.TID 0000.0001)     ;
(PID.TID 0000.0001) monitorFreq =   /* Monitor output interval ( s ). */
(PID.TID 0000.0001)                 1.000000000000000E+00
(PID.TID 0000.0001)     ;
(PID.TID 0000.0001) monitorSelect = /* select group of variables to monitor */
(PID.TID 0000.0001)                       3
(PID.TID 0000.0001)     ;
(PID.TID 0000.0001) monitor_stdio =   /* Model IO flag. */
(PID.TID 0000.0001)                   T
(PID.TID 0000.0001)     ;
(PID.TID 0000.0001) externForcingPeriod =   /* forcing period (s) */
(PID.TID 0000.0001)                 0.000000000000000E+00
(PID.TID 0000.0001)     ;
(PID.TID 0000.0001) externForcingCycle =   /* period of the cyle (s). */
(PID.TID 0000.0001)                 0.000000000000000E+00
(PID.TID 0000.0001)     ;
(PID.TID 0000.0001) tauThetaClimRelax =   /* relaxation time scale (s) */
(PID.TID 0000.0001)                 0.000000000000000E+00
(PID.TID 0000.0001)     ;
(PID.TID 0000.0001) tauSaltClimRelax =   /* relaxation time scale (s) */
(PID.TID 0000.0001)                 0.000000000000000E+00
(PID.TID 0000.0001)     ;
(PID.TID 0000.0001) latBandClimRelax =   /* max. Lat. where relaxation */
(PID.TID 0000.0001)                 1.500000000000000E+04
(PID.TID 0000.0001)     ;
(PID.TID 0000.0001) //
(PID.TID 0000.0001) // Gridding paramters ( PARM04 in namelist )
(PID.TID 0000.0001) //
(PID.TID 0000.0001) usingCartesianGrid = /* Cartesian coordinates flag ( True/False ) */
(PID.TID 0000.0001)                   T
(PID.TID 0000.0001)     ;
(PID.TID 0000.0001) usingCylindricalGrid = /* Cylindrical coordinates flag ( True/False ) */
(PID.TID 0000.0001)                   F
(PID.TID 0000.0001)     ;
(PID.TID 0000.0001) usingSphericalPolarGrid = /* Spherical coordinates flag ( True/False ) */
(PID.TID 0000.0001)                   F
(PID.TID 0000.0001)     ;
(PID.TID 0000.0001) usingCurvilinearGrid = /* Curvilinear coordinates flag ( True/False ) */
(PID.TID 0000.0001)                   F
(PID.TID 0000.0001)     ;
(PID.TID 0000.0001) Ro_SeaLevel = /* r(1) ( units of r ==  m ) */
(PID.TID 0000.0001)                 0.000000000000000E+00
(PID.TID 0000.0001)     ;
(PID.TID 0000.0001) rkSign =   /* index orientation relative to vertical coordinate */
(PID.TID 0000.0001)                -1.000000000000000E+00
(PID.TID 0000.0001)     ;
(PID.TID 0000.0001) gravitySign = /* gravity orientation relative to vertical coordinate */
(PID.TID 0000.0001)                -1.000000000000000E+00
(PID.TID 0000.0001)     ;
(PID.TID 0000.0001) mass2rUnit = /* convert mass per unit area [kg/m2] to r-units [m] */
(PID.TID 0000.0001)                 1.000200040008002E-03
(PID.TID 0000.0001)     ;
(PID.TID 0000.0001) rUnit2mass = /* convert r-units [m] to mass per unit area [kg/m2] */
(PID.TID 0000.0001)                 9.998000000000000E+02
(PID.TID 0000.0001)     ;
(PID.TID 0000.0001) drC =   /* C spacing ( units of r ) */
(PID.TID 0000.0001)                 2.500000000000000E+01,      /* K =  1 */
(PID.TID 0000.0001)    19 @  5.000000000000000E+01              /* K =  2: 20 */
(PID.TID 0000.0001)     ;
(PID.TID 0000.0001) drF =   /* W spacing ( units of r ) */
(PID.TID 0000.0001)    20 @  5.000000000000000E+01              /* K =  1: 20 */
(PID.TID 0000.0001)     ;
(PID.TID 0000.0001) delX =   /* U spacing ( m - cartesian, degrees - spherical ) */
(PID.TID 0000.0001)     3 @  5.000000000000000E+03              /* I =  1:  3 */
(PID.TID 0000.0001)     ;
(PID.TID 0000.0001) delY =   /* V spacing ( m - cartesian, degrees - spherical ) */
(PID.TID 0000.0001)                 5.000000000000000E+03       /* J =  1 */
(PID.TID 0000.0001)     ;
(PID.TID 0000.0001) phiMin =    /* South edge (ignored - cartesian, degrees - spherical ) */
(PID.TID 0000.0001)                 0.000000000000000E+00
(PID.TID 0000.0001)     ;
(PID.TID 0000.0001) thetaMin =    /* West edge ( ignored - cartesian, degrees - spherical ) */
(PID.TID 0000.0001)                 0.000000000000000E+00
(PID.TID 0000.0001)     ;
(PID.TID 0000.0001) rSphere =  /* Radius ( ignored - cartesian, m - spherical ) */
(PID.TID 0000.0001)                 6.370000000000000E+06
(PID.TID 0000.0001)     ;
(PID.TID 0000.0001) deepAtmosphere = /* Deep/Shallow Atmosphere flag (True/False) */
(PID.TID 0000.0001)                   F
(PID.TID 0000.0001)     ;
(PID.TID 0000.0001) xcoord =   /* P-point X coord ( m - cartesian, degrees - spherical ) */
(PID.TID 0000.0001)                 2.500000000000000E+03,      /* I =  1 */
(PID.TID 0000.0001)                 7.500000000000000E+03,      /* I =  2 */
(PID.TID 0000.0001)                 1.250000000000000E+04       /* I =  3 */
(PID.TID 0000.0001)     ;
(PID.TID 0000.0001) ycoord =   /* P-point Y coord ( m - cartesian, degrees - spherical ) */
(PID.TID 0000.0001)                 2.500000000000000E+03       /* J =  1 */
(PID.TID 0000.0001)     ;
(PID.TID 0000.0001) rcoord =   /* P-point R coordinate (  units of r ) */
(PID.TID 0000.0001)                -2.500000000000000E+01,      /* K =  1 */
(PID.TID 0000.0001)                -7.500000000000000E+01,      /* K =  2 */
(PID.TID 0000.0001)                -1.250000000000000E+02,      /* K =  3 */
(PID.TID 0000.0001)                -1.750000000000000E+02,      /* K =  4 */
(PID.TID 0000.0001)                -2.250000000000000E+02,      /* K =  5 */
(PID.TID 0000.0001)                -2.750000000000000E+02,      /* K =  6 */
(PID.TID 0000.0001)                -3.250000000000000E+02,      /* K =  7 */
(PID.TID 0000.0001)                -3.750000000000000E+02,      /* K =  8 */
(PID.TID 0000.0001)                -4.250000000000000E+02,      /* K =  9 */
(PID.TID 0000.0001)                -4.750000000000000E+02,      /* K = 10 */
(PID.TID 0000.0001)                -5.250000000000000E+02,      /* K = 11 */
(PID.TID 0000.0001)                -5.750000000000000E+02,      /* K = 12 */
(PID.TID 0000.0001)                -6.250000000000000E+02,      /* K = 13 */
(PID.TID 0000.0001)                -6.750000000000000E+02,      /* K = 14 */
(PID.TID 0000.0001)                -7.250000000000000E+02,      /* K = 15 */
(PID.TID 0000.0001)                -7.750000000000000E+02,      /* K = 16 */
(PID.TID 0000.0001)                -8.250000000000000E+02,      /* K = 17 */
(PID.TID 0000.0001)                -8.750000000000000E+02,      /* K = 18 */
(PID.TID 0000.0001)                -9.250000000000000E+02,      /* K = 19 */
(PID.TID 0000.0001)                -9.750000000000000E+02       /* K = 20 */
(PID.TID 0000.0001)     ;
(PID.TID 0000.0001) rF =   /* W-Interf. R coordinate (  units of r ) */
(PID.TID 0000.0001)                 0.000000000000000E+00,      /* K =  1 */
(PID.TID 0000.0001)                -5.000000000000000E+01,      /* K =  2 */
(PID.TID 0000.0001)                -1.000000000000000E+02,      /* K =  3 */
(PID.TID 0000.0001)                -1.500000000000000E+02,      /* K =  4 */
(PID.TID 0000.0001)                -2.000000000000000E+02,      /* K =  5 */
(PID.TID 0000.0001)                -2.500000000000000E+02,      /* K =  6 */
(PID.TID 0000.0001)                -3.000000000000000E+02,      /* K =  7 */
(PID.TID 0000.0001)                -3.500000000000000E+02,      /* K =  8 */
(PID.TID 0000.0001)                -4.000000000000000E+02,      /* K =  9 */
(PID.TID 0000.0001)                -4.500000000000000E+02,      /* K = 10 */
(PID.TID 0000.0001)                -5.000000000000000E+02,      /* K = 11 */
(PID.TID 0000.0001)                -5.500000000000000E+02,      /* K = 12 */
(PID.TID 0000.0001)                -6.000000000000000E+02,      /* K = 13 */
(PID.TID 0000.0001)                -6.500000000000000E+02,      /* K = 14 */
(PID.TID 0000.0001)                -7.000000000000000E+02,      /* K = 15 */
(PID.TID 0000.0001)                -7.500000000000000E+02,      /* K = 16 */
(PID.TID 0000.0001)                -8.000000000000000E+02,      /* K = 17 */
(PID.TID 0000.0001)                -8.500000000000000E+02,      /* K = 18 */
(PID.TID 0000.0001)                -9.000000000000000E+02,      /* K = 19 */
(PID.TID 0000.0001)                -9.500000000000000E+02,      /* K = 20 */
(PID.TID 0000.0001)                -1.000000000000000E+03       /* K = 21 */
(PID.TID 0000.0001)     ;
(PID.TID 0000.0001) deepFacC = /* deep-model grid factor @ cell-Center (-) */
(PID.TID 0000.0001)    20 @  1.000000000000000E+00              /* K =  1: 20 */
(PID.TID 0000.0001)     ;
(PID.TID 0000.0001) deepFacF = /* deep-model grid factor @ W-Interface (-) */
(PID.TID 0000.0001)    21 @  1.000000000000000E+00              /* K =  1: 21 */
(PID.TID 0000.0001)     ;
(PID.TID 0000.0001) rVel2wUnit = /* convert units: rVel -> wSpeed (=1 if z-coord)*/
(PID.TID 0000.0001)    21 @  1.000000000000000E+00              /* K =  1: 21 */
(PID.TID 0000.0001)     ;
(PID.TID 0000.0001) wUnit2rVel = /* convert units: wSpeed -> rVel (=1 if z-coord)*/
(PID.TID 0000.0001)    21 @  1.000000000000000E+00              /* K =  1: 21 */
(PID.TID 0000.0001)     ;
(PID.TID 0000.0001) dBdrRef = /* Vertical gradient of reference boyancy [(m/s/r)^2)] */
(PID.TID 0000.0001)    20 @  0.000000000000000E+00              /* K =  1: 20 */
(PID.TID 0000.0001)     ;
(PID.TID 0000.0001) rotateGrid = /* use rotated grid ( True/False ) */
(PID.TID 0000.0001)                   F
(PID.TID 0000.0001)     ;
(PID.TID 0000.0001) phiEuler = /* Euler angle, rotation about original z-coordinate [rad] */
(PID.TID 0000.0001)                 0.000000000000000E+00
(PID.TID 0000.0001)     ;
(PID.TID 0000.0001) thetaEuler = /* Euler angle, rotation about new x-coordinate [rad] */
(PID.TID 0000.0001)                 0.000000000000000E+00
(PID.TID 0000.0001)     ;
(PID.TID 0000.0001) psiEuler = /* Euler angle, rotation about new z-coordinate [rad] */
(PID.TID 0000.0001)                 0.000000000000000E+00
(PID.TID 0000.0001)     ;
(PID.TID 0000.0001) dxF =  /* dxF(:,1,:,1) ( units: m ) */
(PID.TID 0000.0001)     3 @  5.000000000000000E+03              /* I =  1:  3 */
(PID.TID 0000.0001)     ;
(PID.TID 0000.0001) dxF =  /* dxF(1,:,1,:) ( units: m ) */
(PID.TID 0000.0001)                 5.000000000000000E+03       /* J =  1 */
(PID.TID 0000.0001)     ;
(PID.TID 0000.0001) dyF =  /* dyF(:,1,:,1) ( units: m ) */
(PID.TID 0000.0001)     3 @  5.000000000000000E+03              /* I =  1:  3 */
(PID.TID 0000.0001)     ;
(PID.TID 0000.0001) dyF =  /* dyF(1,:,1,:) ( units: m ) */
(PID.TID 0000.0001)                 5.000000000000000E+03       /* J =  1 */
(PID.TID 0000.0001)     ;
(PID.TID 0000.0001) dxG =  /* dxG(:,1,:,1) ( units: m ) */
(PID.TID 0000.0001)     3 @  5.000000000000000E+03              /* I =  1:  3 */
(PID.TID 0000.0001)     ;
(PID.TID 0000.0001) dxG =  /* dxG(1,:,1,:) ( units: m ) */
(PID.TID 0000.0001)                 5.000000000000000E+03       /* J =  1 */
(PID.TID 0000.0001)     ;
(PID.TID 0000.0001) dyG =  /* dyG(:,1,:,1) ( units: m ) */
(PID.TID 0000.0001)     3 @  5.000000000000000E+03              /* I =  1:  3 */
(PID.TID 0000.0001)     ;
(PID.TID 0000.0001) dyG =  /* dyG(1,:,1,:) ( units: m ) */
(PID.TID 0000.0001)                 5.000000000000000E+03       /* J =  1 */
(PID.TID 0000.0001)     ;
(PID.TID 0000.0001) dxC =  /* dxC(:,1,:,1) ( units: m ) */
(PID.TID 0000.0001)     3 @  5.000000000000000E+03              /* I =  1:  3 */
(PID.TID 0000.0001)     ;
(PID.TID 0000.0001) dxC =  /* dxC(1,:,1,:) ( units: m ) */
(PID.TID 0000.0001)                 5.000000000000000E+03       /* J =  1 */
(PID.TID 0000.0001)     ;
(PID.TID 0000.0001) dyC =  /* dyC(:,1,:,1) ( units: m ) */
(PID.TID 0000.0001)     3 @  5.000000000000000E+03              /* I =  1:  3 */
(PID.TID 0000.0001)     ;
(PID.TID 0000.0001) dyC =  /* dyC(1,:,1,:) ( units: m ) */
(PID.TID 0000.0001)                 5.000000000000000E+03       /* J =  1 */
(PID.TID 0000.0001)     ;
(PID.TID 0000.0001) dxV =  /* dxV(:,1,:,1) ( units: m ) */
(PID.TID 0000.0001)     3 @  5.000000000000000E+03              /* I =  1:  3 */
(PID.TID 0000.0001)     ;
(PID.TID 0000.0001) dxV =  /* dxV(1,:,1,:) ( units: m ) */
(PID.TID 0000.0001)                 5.000000000000000E+03       /* J =  1 */
(PID.TID 0000.0001)     ;
(PID.TID 0000.0001) dyU =  /* dyU(:,1,:,1) ( units: m ) */
(PID.TID 0000.0001)     3 @  5.000000000000000E+03              /* I =  1:  3 */
(PID.TID 0000.0001)     ;
(PID.TID 0000.0001) dyU =  /* dyU(1,:,1,:) ( units: m ) */
(PID.TID 0000.0001)                 5.000000000000000E+03       /* J =  1 */
(PID.TID 0000.0001)     ;
(PID.TID 0000.0001) rA  =  /* rA (:,1,:,1) ( units: m^2 ) */
(PID.TID 0000.0001)     3 @  2.500000000000000E+07              /* I =  1:  3 */
(PID.TID 0000.0001)     ;
(PID.TID 0000.0001) rA  =  /* rA (1,:,1,:) ( units: m^2 ) */
(PID.TID 0000.0001)                 2.500000000000000E+07       /* J =  1 */
(PID.TID 0000.0001)     ;
(PID.TID 0000.0001) rAw =  /* rAw(:,1,:,1) ( units: m^2 ) */
(PID.TID 0000.0001)     3 @  2.500000000000000E+07              /* I =  1:  3 */
(PID.TID 0000.0001)     ;
(PID.TID 0000.0001) rAw =  /* rAw(1,:,1,:) ( units: m^2 ) */
(PID.TID 0000.0001)                 2.500000000000000E+07       /* J =  1 */
(PID.TID 0000.0001)     ;
(PID.TID 0000.0001) rAs =  /* rAs(:,1,:,1) ( units: m^2 ) */
(PID.TID 0000.0001)     3 @  2.500000000000000E+07              /* I =  1:  3 */
(PID.TID 0000.0001)     ;
(PID.TID 0000.0001) rAs =  /* rAs(1,:,1,:) ( units: m^2 ) */
(PID.TID 0000.0001)                 2.500000000000000E+07       /* J =  1 */
(PID.TID 0000.0001)     ;
(PID.TID 0000.0001) globalArea = /* Integrated horizontal Area (m^2) */
(PID.TID 0000.0001)                 7.500000000000000E+07
(PID.TID 0000.0001)     ;
(PID.TID 0000.0001) // =======================================================
(PID.TID 0000.0001) // End of Model config. summary
(PID.TID 0000.0001) // =======================================================
(PID.TID 0000.0001) 
(PID.TID 0000.0001) == Packages configuration : Check & print summary ==
(PID.TID 0000.0001) 
(PID.TID 0000.0001) GAD_CHECK: #define ALLOW_GENERIC_ADVDIFF
(PID.TID 0000.0001) MY82_CHECK: #define ALLOW_MY82
(PID.TID 0000.0001) // =======================================================
(PID.TID 0000.0001) // CONFIG_CHECK : Normal End
(PID.TID 0000.0001) // =======================================================
(PID.TID 0000.0001) 
(PID.TID 0000.0001)  MDS_READ_FIELD: opening global file: Tstable2.init
(PID.TID 0000.0001) // =======================================================
(PID.TID 0000.0001) // Field Initial Temperature at iteration          1
(PID.TID 0000.0001) // CMIN =          1.434760448521916E+00
(PID.TID 0000.0001) // CMAX =          2.934760448521916E+00
(PID.TID 0000.0001) // CINT =          5.555555555555555E-02
(PID.TID 0000.0001) // SYMBOLS (CMIN->CMAX): -abcdefghijklmnopqrstuvwxyz+
(PID.TID 0000.0001) //                  0.0: .
(PID.TID 0000.0001) // RANGE I (Lo:Hi:Step):(   1:   3:   1)
(PID.TID 0000.0001) // RANGE J (Lo:Hi:Step):(   1:   1:  -1)
(PID.TID 0000.0001) // RANGE K (Lo:Hi:Step):(   1:   1:   1)
(PID.TID 0000.0001) // =======================================================
(PID.TID 0000.0001) K =   1
(PID.TID 0000.0001) 
(PID.TID 0000.0001) |--J--|123
(PID.TID 0000.0001)      1 +-+
(PID.TID 0000.0001) // =======================================================
(PID.TID 0000.0001) // END OF FIELD                                          =
(PID.TID 0000.0001) // =======================================================
(PID.TID 0000.0001) 
(PID.TID 0000.0001) // =======================================================
(PID.TID 0000.0001) // Field Initial Salinity at iteration          1
(PID.TID 0000.0001) // CMIN =          3.500000000000000E+01
(PID.TID 0000.0001) // CMAX =          3.500000000000000E+01
(PID.TID 0000.0001) // CINT =          0.000000000000000E+00
(PID.TID 0000.0001) // SYMBOLS (CMIN->CMAX): -abcdefghijklmnopqrstuvwxyz+
(PID.TID 0000.0001) //                  0.0: .
(PID.TID 0000.0001) // RANGE I (Lo:Hi:Step):(   1:   3:   1)
(PID.TID 0000.0001) // RANGE J (Lo:Hi:Step):(   1:   1:  -1)
(PID.TID 0000.0001) // RANGE K (Lo:Hi:Step):(   1:   1:   1)
(PID.TID 0000.0001) // =======================================================
(PID.TID 0000.0001) // =======================================================
(PID.TID 0000.0001) // END OF FIELD                                          =
(PID.TID 0000.0001) // =======================================================
(PID.TID 0000.0001) 
(PID.TID 0000.0001) Start initial hydrostatic pressure computation
(PID.TID 0000.0001) Iteration   1, RMS-difference =  1.693180512648E+02
(PID.TID 0000.0001) Iteration   2, RMS-difference =  2.950416425963E-01
(PID.TID 0000.0001) Iteration   3, RMS-difference =  3.769509058930E-04
(PID.TID 0000.0001) Iteration   4, RMS-difference =  3.793737130661E-07
(PID.TID 0000.0001) Iteration   5, RMS-difference =  3.153482393530E-10
(PID.TID 0000.0001) Iteration   6, RMS-difference =  2.114188040463E-13
(PID.TID 0000.0001) Iteration   7, RMS-difference =  0.000000000000E+00
(PID.TID 0000.0001) Iteration   8, RMS-difference =  0.000000000000E+00
(PID.TID 0000.0001) Iteration   9, RMS-difference =  0.000000000000E+00
(PID.TID 0000.0001) Iteration  10, RMS-difference =  0.000000000000E+00
(PID.TID 0000.0001) Iteration  11, RMS-difference =  0.000000000000E+00
(PID.TID 0000.0001) Iteration  12, RMS-difference =  0.000000000000E+00
(PID.TID 0000.0001) Iteration  13, RMS-difference =  0.000000000000E+00
(PID.TID 0000.0001) Iteration  14, RMS-difference =  0.000000000000E+00
(PID.TID 0000.0001) Iteration  15, RMS-difference =  0.000000000000E+00
(PID.TID 0000.0001) Initial hydrostatic pressure converged.
(PID.TID 0000.0001) 
(PID.TID 0000.0001)  MDS_READ_FIELD: opening global file: taux.forcing
(PID.TID 0000.0001)  MDS_READ_FIELD: opening global file: Qnet.forcing
(PID.TID 0000.0001) // =======================================================
(PID.TID 0000.0001) // Model current state
(PID.TID 0000.0001) // =======================================================
(PID.TID 0000.0001) 
(PID.TID 0000.0001) // =======================================================
(PID.TID 0000.0001) // Begin MONITOR dynamic field statistics
(PID.TID 0000.0001) // =======================================================
(PID.TID 0000.0001) %MON time_tsnumber                =                     0
(PID.TID 0000.0001) %MON time_secondsf                =   0.0000000000000E+00
(PID.TID 0000.0001) %MON dynstat_eta_max              =   0.0000000000000E+00
(PID.TID 0000.0001) %MON dynstat_eta_min              =   0.0000000000000E+00
(PID.TID 0000.0001) %MON dynstat_eta_mean             =   0.0000000000000E+00
(PID.TID 0000.0001) %MON dynstat_eta_sd               =   0.0000000000000E+00
(PID.TID 0000.0001) %MON dynstat_eta_del2             =   0.0000000000000E+00
(PID.TID 0000.0001) %MON dynstat_uvel_max             =   0.0000000000000E+00
(PID.TID 0000.0001) %MON dynstat_uvel_min             =   0.0000000000000E+00
(PID.TID 0000.0001) %MON dynstat_uvel_mean            =   0.0000000000000E+00
(PID.TID 0000.0001) %MON dynstat_uvel_sd              =   0.0000000000000E+00
(PID.TID 0000.0001) %MON dynstat_uvel_del2            =   0.0000000000000E+00
(PID.TID 0000.0001) %MON dynstat_vvel_max             =   0.0000000000000E+00
(PID.TID 0000.0001) %MON dynstat_vvel_min             =   0.0000000000000E+00
(PID.TID 0000.0001) %MON dynstat_vvel_mean            =   0.0000000000000E+00
(PID.TID 0000.0001) %MON dynstat_vvel_sd              =   0.0000000000000E+00
(PID.TID 0000.0001) %MON dynstat_vvel_del2            =   0.0000000000000E+00
(PID.TID 0000.0001) %MON dynstat_wvel_max             =   0.0000000000000E+00
(PID.TID 0000.0001) %MON dynstat_wvel_min             =   0.0000000000000E+00
(PID.TID 0000.0001) %MON dynstat_wvel_mean            =   0.0000000000000E+00
(PID.TID 0000.0001) %MON dynstat_wvel_sd              =   0.0000000000000E+00
(PID.TID 0000.0001) %MON dynstat_wvel_del2            =   0.0000000000000E+00
(PID.TID 0000.0001) %MON dynstat_theta_max            =   2.9347604485219E+00
(PID.TID 0000.0001) %MON dynstat_theta_min            =   4.5565749235474E-01
(PID.TID 0000.0001) %MON dynstat_theta_mean           =   1.6702089704383E+00
(PID.TID 0000.0001) %MON dynstat_theta_sd             =   7.3550792201376E-01
(PID.TID 0000.0001) %MON dynstat_theta_del2           =   2.5000000000000E-02
(PID.TID 0000.0001) %MON dynstat_salt_max             =   3.5000000000000E+01
(PID.TID 0000.0001) %MON dynstat_salt_min             =   3.5000000000000E+01
(PID.TID 0000.0001) %MON dynstat_salt_mean            =   3.5000000000000E+01
(PID.TID 0000.0001) %MON dynstat_salt_sd              =   0.0000000000000E+00
(PID.TID 0000.0001) %MON dynstat_salt_del2            =   0.0000000000000E+00
(PID.TID 0000.0001) %MON dynstat_sst_max              =   2.9347604485219E+00
(PID.TID 0000.0001) %MON dynstat_sst_min              =   1.4347604485219E+00
(PID.TID 0000.0001) %MON dynstat_sst_mean             =   2.4347604485219E+00
(PID.TID 0000.0001) %MON dynstat_sst_sd               =   7.0710678118655E-01
(PID.TID 0000.0001) %MON dynstat_sst_del2             =   5.0000000000000E-01
(PID.TID 0000.0001) %MON dynstat_sss_max              =   3.5000000000000E+01
(PID.TID 0000.0001) %MON dynstat_sss_min              =   3.5000000000000E+01
(PID.TID 0000.0001) %MON dynstat_sss_mean             =   3.5000000000000E+01
(PID.TID 0000.0001) %MON dynstat_sss_sd               =   0.0000000000000E+00
(PID.TID 0000.0001) %MON dynstat_sss_del2             =   0.0000000000000E+00
(PID.TID 0000.0001) %MON extforcing_qnet_max          =   2.0000000000000E+02
(PID.TID 0000.0001) %MON extforcing_qnet_min          =   0.0000000000000E+00
(PID.TID 0000.0001) %MON extforcing_qnet_mean         =   6.6666666666667E+01
(PID.TID 0000.0001) %MON extforcing_qnet_sd           =   9.4280904158206E+01
(PID.TID 0000.0001) %MON extforcing_qnet_del2         =   6.6666666666667E+01
(PID.TID 0000.0001) %MON extforcing_qsw_max           =   0.0000000000000E+00
(PID.TID 0000.0001) %MON extforcing_qsw_min           =   0.0000000000000E+00
(PID.TID 0000.0001) %MON extforcing_qsw_mean          =   0.0000000000000E+00
(PID.TID 0000.0001) %MON extforcing_qsw_sd            =   0.0000000000000E+00
(PID.TID 0000.0001) %MON extforcing_qsw_del2          =   0.0000000000000E+00
(PID.TID 0000.0001) %MON extforcing_empmr_max         =   0.0000000000000E+00
(PID.TID 0000.0001) %MON extforcing_empmr_min         =   0.0000000000000E+00
(PID.TID 0000.0001) %MON extforcing_empmr_mean        =   0.0000000000000E+00
(PID.TID 0000.0001) %MON extforcing_empmr_sd          =   0.0000000000000E+00
(PID.TID 0000.0001) %MON extforcing_empmr_del2        =   0.0000000000000E+00
(PID.TID 0000.0001) %MON extforcing_fu_max            =   1.0000000000000E+00
(PID.TID 0000.0001) %MON extforcing_fu_min            =   0.0000000000000E+00
(PID.TID 0000.0001) %MON extforcing_fu_mean           =   6.6666666666667E-01
(PID.TID 0000.0001) %MON extforcing_fu_sd             =   4.7140452079103E-01
(PID.TID 0000.0001) %MON extforcing_fu_del2           =   3.3333333333333E-01
(PID.TID 0000.0001) %MON extforcing_fv_max            =   0.0000000000000E+00
(PID.TID 0000.0001) %MON extforcing_fv_min            =   0.0000000000000E+00
(PID.TID 0000.0001) %MON extforcing_fv_mean           =   0.0000000000000E+00
(PID.TID 0000.0001) %MON extforcing_fv_sd             =   0.0000000000000E+00
(PID.TID 0000.0001) %MON extforcing_fv_del2           =   0.0000000000000E+00
(PID.TID 0000.0001) %MON advcfl_uvel_max              =   0.0000000000000E+00
(PID.TID 0000.0001) %MON advcfl_vvel_max              =   0.0000000000000E+00
(PID.TID 0000.0001) %MON advcfl_wvel_max              =   0.0000000000000E+00
(PID.TID 0000.0001) %MON advcfl_W_hf_max              =   0.0000000000000E+00
(PID.TID 0000.0001) %MON pe_b_mean                    =   0.0000000000000E+00
(PID.TID 0000.0001) %MON ke_max                       =   0.0000000000000E+00
(PID.TID 0000.0001) %MON ke_mean                      =   0.0000000000000E+00
(PID.TID 0000.0001) %MON ke_vol                       =   7.5000000000000E+10
(PID.TID 0000.0001) %MON vort_r_min                   =   0.0000000000000E+00
(PID.TID 0000.0001) %MON vort_r_max                   =   0.0000000000000E+00
(PID.TID 0000.0001) %MON vort_a_mean                  =   1.4000000000000E-04
(PID.TID 0000.0001) %MON vort_a_sd                    =   0.0000000000000E+00
(PID.TID 0000.0001) %MON vort_p_mean                  =   1.4000000000000E-04
(PID.TID 0000.0001) %MON vort_p_sd                    =   0.0000000000000E+00
(PID.TID 0000.0001) %MON surfExpan_theta_mean         =   0.0000000000000E+00
(PID.TID 0000.0001) %MON surfExpan_salt_mean          =   0.0000000000000E+00
(PID.TID 0000.0001) // =======================================================
(PID.TID 0000.0001) // End MONITOR dynamic field statistics
(PID.TID 0000.0001) // =======================================================
 cg2d: Sum(rhs),rhsMax =   0.00000000000000E+00  1.19519630002329E-01
(PID.TID 0000.0001)                    cg2d_init_res =    1.22617355611955E+00
(PID.TID 0000.0001)                       cg2d_iters =     1
(PID.TID 0000.0001)                         cg2d_res =    1.66533453693773E-16
(PID.TID 0000.0001) // =======================================================
(PID.TID 0000.0001) // Begin MONITOR dynamic field statistics
(PID.TID 0000.0001) // =======================================================
(PID.TID 0000.0001) %MON time_tsnumber                =                     1
(PID.TID 0000.0001) %MON time_secondsf                =   1.2000000000000E+03
(PID.TID 0000.0001) %MON dynstat_eta_max              =   2.1992060666098E-03
(PID.TID 0000.0001) %MON dynstat_eta_min              =  -4.0587551988566E-03
(PID.TID 0000.0001) %MON dynstat_eta_mean             =  -1.2417634328206E-19
(PID.TID 0000.0001) %MON dynstat_eta_sd               =   2.8733211946514E-03
(PID.TID 0000.0001) %MON dynstat_eta_del2             =   2.0293775994283E-03
(PID.TID 0000.0001) %MON dynstat_uvel_max             =   2.5515848604130E-02
(PID.TID 0000.0001) %MON dynstat_uvel_min             =  -8.0710964762936E-04
(PID.TID 0000.0001) %MON dynstat_uvel_mean            =   8.0016003200640E-04
(PID.TID 0000.0001) %MON dynstat_uvel_sd              =   3.7762935526021E-03
(PID.TID 0000.0001) %MON dynstat_uvel_del2            =   7.2025387319996E-04
(PID.TID 0000.0001) %MON dynstat_vvel_max             =   0.0000000000000E+00
(PID.TID 0000.0001) %MON dynstat_vvel_min             =   0.0000000000000E+00
(PID.TID 0000.0001) %MON dynstat_vvel_mean            =   0.0000000000000E+00
(PID.TID 0000.0001) %MON dynstat_vvel_sd              =   0.0000000000000E+00
(PID.TID 0000.0001) %MON dynstat_vvel_del2            =   0.0000000000000E+00
(PID.TID 0000.0001) %MON dynstat_wvel_max             =   2.8408090907179E-04
(PID.TID 0000.0001) %MON dynstat_wvel_min             =  -1.4774702862444E-04
(PID.TID 0000.0001) %MON dynstat_wvel_mean            =   2.7860077018412E-21
(PID.TID 0000.0001) %MON dynstat_wvel_sd              =   1.2320572898773E-04
(PID.TID 0000.0001) %MON dynstat_wvel_del2            =   7.4179133479685E-05
(PID.TID 0000.0001) %MON dynstat_theta_max            =   2.9347598222252E+00
(PID.TID 0000.0001) %MON dynstat_theta_min            =   4.5565811865143E-01
(PID.TID 0000.0001) %MON dynstat_theta_mean           =   1.6701889363865E+00
(PID.TID 0000.0001) %MON dynstat_theta_sd             =   7.2566305227581E-01
(PID.TID 0000.0001) %MON dynstat_theta_del2           =   2.5020034051878E-02
(PID.TID 0000.0001) %MON dynstat_salt_max             =   3.5000000000000E+01
(PID.TID 0000.0001) %MON dynstat_salt_min             =   3.5000000000000E+01
(PID.TID 0000.0001) %MON dynstat_salt_mean            =   3.5000000000000E+01
(PID.TID 0000.0001) %MON dynstat_salt_sd              =   1.8346134549117E-15
(PID.TID 0000.0001) %MON dynstat_salt_del2            =   1.1842378929335E-16
(PID.TID 0000.0001) %MON dynstat_sst_max              =   2.9347598222252E+00
(PID.TID 0000.0001) %MON dynstat_sst_min              =   1.9242648083187E+00
(PID.TID 0000.0001) %MON dynstat_sst_mean             =   2.5979281509230E+00
(PID.TID 0000.0001) %MON dynstat_sst_sd               =   4.7635191779234E-01
(PID.TID 0000.0001) %MON dynstat_sst_del2             =   3.3683167130218E-01
(PID.TID 0000.0001) %MON dynstat_sss_max              =   3.5000000000000E+01
(PID.TID 0000.0001) %MON dynstat_sss_min              =   3.5000000000000E+01
(PID.TID 0000.0001) %MON dynstat_sss_mean             =   3.5000000000000E+01
(PID.TID 0000.0001) %MON dynstat_sss_sd               =   0.0000000000000E+00
(PID.TID 0000.0001) %MON dynstat_sss_del2             =   0.0000000000000E+00
(PID.TID 0000.0001) %MON extforcing_qnet_max          =   2.0000000000000E+02
(PID.TID 0000.0001) %MON extforcing_qnet_min          =   0.0000000000000E+00
(PID.TID 0000.0001) %MON extforcing_qnet_mean         =   6.6666666666667E+01
(PID.TID 0000.0001) %MON extforcing_qnet_sd           =   9.4280904158206E+01
(PID.TID 0000.0001) %MON extforcing_qnet_del2         =   6.6666666666667E+01
(PID.TID 0000.0001) %MON extforcing_qsw_max           =   0.0000000000000E+00
(PID.TID 0000.0001) %MON extforcing_qsw_min           =   0.0000000000000E+00
(PID.TID 0000.0001) %MON extforcing_qsw_mean          =   0.0000000000000E+00
(PID.TID 0000.0001) %MON extforcing_qsw_sd            =   0.0000000000000E+00
(PID.TID 0000.0001) %MON extforcing_qsw_del2          =   0.0000000000000E+00
(PID.TID 0000.0001) %MON extforcing_empmr_max         =   0.0000000000000E+00
(PID.TID 0000.0001) %MON extforcing_empmr_min         =   0.0000000000000E+00
(PID.TID 0000.0001) %MON extforcing_empmr_mean        =   0.0000000000000E+00
(PID.TID 0000.0001) %MON extforcing_empmr_sd          =   0.0000000000000E+00
(PID.TID 0000.0001) %MON extforcing_empmr_del2        =   0.0000000000000E+00
(PID.TID 0000.0001) %MON extforcing_fu_max            =   1.0000000000000E+00
(PID.TID 0000.0001) %MON extforcing_fu_min            =   0.0000000000000E+00
(PID.TID 0000.0001) %MON extforcing_fu_mean           =   6.6666666666667E-01
(PID.TID 0000.0001) %MON extforcing_fu_sd             =   4.7140452079103E-01
(PID.TID 0000.0001) %MON extforcing_fu_del2           =   3.3333333333333E-01
(PID.TID 0000.0001) %MON extforcing_fv_max            =   0.0000000000000E+00
(PID.TID 0000.0001) %MON extforcing_fv_min            =   0.0000000000000E+00
(PID.TID 0000.0001) %MON extforcing_fv_mean           =   0.0000000000000E+00
(PID.TID 0000.0001) %MON extforcing_fv_sd             =   0.0000000000000E+00
(PID.TID 0000.0001) %MON extforcing_fv_del2           =   0.0000000000000E+00
(PID.TID 0000.0001) %MON advcfl_uvel_max              =   6.1238036649912E-03
(PID.TID 0000.0001) %MON advcfl_vvel_max              =   0.0000000000000E+00
(PID.TID 0000.0001) %MON advcfl_wvel_max              =   6.8179418177229E-03
(PID.TID 0000.0001) %MON advcfl_W_hf_max              =   6.8179418177229E-03
(PID.TID 0000.0001) %MON pe_b_mean                    =   4.0495555842839E-08
(PID.TID 0000.0001) %MON ke_max                       =   2.1112370506845E-04
(PID.TID 0000.0001) %MON ke_mean                      =   7.4503245361222E-06
(PID.TID 0000.0001) %MON ke_vol                       =   7.5000000000000E+10
(PID.TID 0000.0001) %MON vort_r_min                   =   0.0000000000000E+00
(PID.TID 0000.0001) %MON vort_r_max                   =   0.0000000000000E+00
(PID.TID 0000.0001) %MON vort_a_mean                  =   1.4000000000000E-04
(PID.TID 0000.0001) %MON vort_a_sd                    =   0.0000000000000E+00
(PID.TID 0000.0001) %MON vort_p_mean                  =   1.4000000000000E-04
(PID.TID 0000.0001) %MON vort_p_sd                    =   0.0000000000000E+00
(PID.TID 0000.0001) %MON surfExpan_theta_mean         =   1.1392644141981E-06
(PID.TID 0000.0001) %MON surfExpan_salt_mean          =   6.3361464223514E-19
(PID.TID 0000.0001) // =======================================================
(PID.TID 0000.0001) // End MONITOR dynamic field statistics
(PID.TID 0000.0001) // =======================================================
 cg2d: Sum(rhs),rhsMax =   3.33066907387547E-16  1.25412152709221E-01
(PID.TID 0000.0001)                    cg2d_init_res =    5.75453841034929E-02
(PID.TID 0000.0001)                       cg2d_iters =     1
(PID.TID 0000.0001)                         cg2d_res =    2.24417174132744E-16
(PID.TID 0000.0001) // =======================================================
(PID.TID 0000.0001) // Begin MONITOR dynamic field statistics
(PID.TID 0000.0001) // =======================================================
(PID.TID 0000.0001) %MON time_tsnumber                =                     2
(PID.TID 0000.0001) %MON time_secondsf                =   2.4000000000000E+03
(PID.TID 0000.0001) %MON dynstat_eta_max              =   2.2999253494765E-03
(PID.TID 0000.0001) %MON dynstat_eta_min              =  -4.2588587899613E-03
(PID.TID 0000.0001) %MON dynstat_eta_mean             =  -2.4835268656413E-19
(PID.TID 0000.0001) %MON dynstat_eta_sd               =   3.0146837882961E-03
(PID.TID 0000.0001) %MON dynstat_eta_del2             =   2.1294293949807E-03
(PID.TID 0000.0001) %MON dynstat_uvel_max             =   5.1038122101147E-02
(PID.TID 0000.0001) %MON dynstat_uvel_min             =  -2.0106502675684E-03
(PID.TID 0000.0001) %MON dynstat_uvel_mean            =   1.6003398781662E-03
(PID.TID 0000.0001) %MON dynstat_uvel_sd              =   7.3490450792858E-03
(PID.TID 0000.0001) %MON dynstat_uvel_del2            =   1.6777630083532E-03
(PID.TID 0000.0001) %MON dynstat_vvel_max             =   1.0143246222975E-04
(PID.TID 0000.0001) %MON dynstat_vvel_min             =  -3.8656261687991E-03
(PID.TID 0000.0001) %MON dynstat_vvel_mean            =  -2.0298459691938E-04
(PID.TID 0000.0001) %MON dynstat_vvel_sd              =   7.1282061995517E-04
(PID.TID 0000.0001) %MON dynstat_vvel_del2            =   9.4155079971063E-05
(PID.TID 0000.0001) %MON dynstat_wvel_max             =   6.1091585353078E-04
(PID.TID 0000.0001) %MON dynstat_wvel_min             =  -3.9296303885411E-04
(PID.TID 0000.0001) %MON dynstat_wvel_mean            =  -1.9900055013151E-22
(PID.TID 0000.0001) %MON dynstat_wvel_sd              =   2.7647016852716E-04
(PID.TID 0000.0001) %MON dynstat_wvel_del2            =   1.6448305183817E-04
(PID.TID 0000.0001) %MON dynstat_theta_max            =   2.9347591959315E+00
(PID.TID 0000.0001) %MON dynstat_theta_min            =   4.5565874494511E-01
(PID.TID 0000.0001) %MON dynstat_theta_mean           =   1.6701689023346E+00
(PID.TID 0000.0001) %MON dynstat_theta_sd             =   7.2299939986971E-01
(PID.TID 0000.0001) %MON dynstat_theta_del2           =   2.5040068103756E-02
(PID.TID 0000.0001) %MON dynstat_salt_max             =   3.5000000000000E+01
(PID.TID 0000.0001) %MON dynstat_salt_min             =   3.5000000000000E+01
(PID.TID 0000.0001) %MON dynstat_salt_mean            =   3.5000000000000E+01
(PID.TID 0000.0001) %MON dynstat_salt_sd              =   7.0459666690887E-15
(PID.TID 0000.0001) %MON dynstat_salt_del2            =   1.1842378929335E-16
(PID.TID 0000.0001) %MON dynstat_sst_max              =   2.9347591959315E+00
(PID.TID 0000.0001) %MON dynstat_sst_min              =   2.1426298199105E+00
(PID.TID 0000.0001) %MON dynstat_sst_mean             =   2.6707160705912E+00
(PID.TID 0000.0001) %MON dynstat_sst_sd               =   3.7341336890772E-01
(PID.TID 0000.0001) %MON dynstat_sst_del2             =   2.6404312534036E-01
(PID.TID 0000.0001) %MON dynstat_sss_max              =   3.5000000000000E+01
(PID.TID 0000.0001) %MON dynstat_sss_min              =   3.5000000000000E+01
(PID.TID 0000.0001) %MON dynstat_sss_mean             =   3.5000000000000E+01
(PID.TID 0000.0001) %MON dynstat_sss_sd               =   0.0000000000000E+00
(PID.TID 0000.0001) %MON dynstat_sss_del2             =   0.0000000000000E+00
(PID.TID 0000.0001) %MON extforcing_qnet_max          =   2.0000000000000E+02
(PID.TID 0000.0001) %MON extforcing_qnet_min          =   0.0000000000000E+00
(PID.TID 0000.0001) %MON extforcing_qnet_mean         =   6.6666666666667E+01
(PID.TID 0000.0001) %MON extforcing_qnet_sd           =   9.4280904158206E+01
(PID.TID 0000.0001) %MON extforcing_qnet_del2         =   6.6666666666667E+01
(PID.TID 0000.0001) %MON extforcing_qsw_max           =   0.0000000000000E+00
(PID.TID 0000.0001) %MON extforcing_qsw_min           =   0.0000000000000E+00
(PID.TID 0000.0001) %MON extforcing_qsw_mean          =   0.0000000000000E+00
(PID.TID 0000.0001) %MON extforcing_qsw_sd            =   0.0000000000000E+00
(PID.TID 0000.0001) %MON extforcing_qsw_del2          =   0.0000000000000E+00
(PID.TID 0000.0001) %MON extforcing_empmr_max         =   0.0000000000000E+00
(PID.TID 0000.0001) %MON extforcing_empmr_min         =   0.0000000000000E+00
(PID.TID 0000.0001) %MON extforcing_empmr_mean        =   0.0000000000000E+00
(PID.TID 0000.0001) %MON extforcing_empmr_sd          =   0.0000000000000E+00
(PID.TID 0000.0001) %MON extforcing_empmr_del2        =   0.0000000000000E+00
(PID.TID 0000.0001) %MON extforcing_fu_max            =   1.0000000000000E+00
(PID.TID 0000.0001) %MON extforcing_fu_min            =   0.0000000000000E+00
(PID.TID 0000.0001) %MON extforcing_fu_mean           =   6.6666666666667E-01
(PID.TID 0000.0001) %MON extforcing_fu_sd             =   4.7140452079103E-01
(PID.TID 0000.0001) %MON extforcing_fu_del2           =   3.3333333333333E-01
(PID.TID 0000.0001) %MON extforcing_fv_max            =   0.0000000000000E+00
(PID.TID 0000.0001) %MON extforcing_fv_min            =   0.0000000000000E+00
(PID.TID 0000.0001) %MON extforcing_fv_mean           =   0.0000000000000E+00
(PID.TID 0000.0001) %MON extforcing_fv_sd             =   0.0000000000000E+00
(PID.TID 0000.0001) %MON extforcing_fv_del2           =   0.0000000000000E+00
(PID.TID 0000.0001) %MON advcfl_uvel_max              =   1.2249149304275E-02
(PID.TID 0000.0001) %MON advcfl_vvel_max              =   9.2775028051179E-04
(PID.TID 0000.0001) %MON advcfl_wvel_max              =   1.4661980484739E-02
(PID.TID 0000.0001) %MON advcfl_W_hf_max              =   1.4661980484739E-02
(PID.TID 0000.0001) %MON pe_b_mean                    =   4.4578201474451E-08
(PID.TID 0000.0001) %MON ke_max                       =   7.7990068456445E-04
(PID.TID 0000.0001) %MON ke_mean                      =   2.8559433642922E-05
(PID.TID 0000.0001) %MON ke_vol                       =   7.5000000000000E+10
(PID.TID 0000.0001) %MON vort_r_min                   =  -2.9445233533344E-07
(PID.TID 0000.0001) %MON vort_r_max                   =   4.0003081621935E-07
(PID.TID 0000.0001) %MON vort_a_mean                  =   1.4000000000000E-04
(PID.TID 0000.0001) %MON vort_a_sd                    =   8.0220852034846E-08
(PID.TID 0000.0001) %MON vort_p_mean                  =   1.4000000000000E-04
(PID.TID 0000.0001) %MON vort_p_sd                    =   8.0220852034846E-08
(PID.TID 0000.0001) %MON surfExpan_theta_mean         =   4.4029981322284E-08
(PID.TID 0000.0001) %MON surfExpan_salt_mean          =  -9.4871666078689E-19
(PID.TID 0000.0001) // =======================================================
(PID.TID 0000.0001) // End MONITOR dynamic field statistics
(PID.TID 0000.0001) // =======================================================
 cg2d: Sum(rhs),rhsMax =   0.00000000000000E+00  1.23300848850160E-01
(PID.TID 0000.0001)                    cg2d_init_res =    2.09739717977347E-02
(PID.TID 0000.0001)                       cg2d_iters =     1
(PID.TID 0000.0001)                         cg2d_res =    3.04442734473391E-17
(PID.TID 0000.0001) // =======================================================
(PID.TID 0000.0001) // Begin MONITOR dynamic field statistics
(PID.TID 0000.0001) // =======================================================
(PID.TID 0000.0001) %MON time_tsnumber                =                     3
(PID.TID 0000.0001) %MON time_secondsf                =   3.6000000000000E+03
(PID.TID 0000.0001) %MON dynstat_eta_max              =   2.2650223528974E-03
(PID.TID 0000.0001) %MON dynstat_eta_min              =  -4.1871612327135E-03
(PID.TID 0000.0001) %MON dynstat_eta_mean             =  -1.2417634328206E-19
(PID.TID 0000.0001) %MON dynstat_eta_sd               =   2.9640773337395E-03
(PID.TID 0000.0001) %MON dynstat_eta_del2             =   2.0935806163568E-03
(PID.TID 0000.0001) %MON dynstat_uvel_max             =   7.3166431245789E-02
(PID.TID 0000.0001) %MON dynstat_uvel_min             =  -3.3745985218506E-03
(PID.TID 0000.0001) %MON dynstat_uvel_mean            =   2.3490018512420E-03
(PID.TID 0000.0001) %MON dynstat_uvel_sd              =   1.0594900973693E-02
(PID.TID 0000.0001) %MON dynstat_uvel_del2            =   2.7797485748999E-03
(PID.TID 0000.0001) %MON dynstat_vvel_max             =   2.7048171111951E-04
(PID.TID 0000.0001) %MON dynstat_vvel_min             =  -9.1297031266132E-03
(PID.TID 0000.0001) %MON dynstat_vvel_mean            =  -5.4040123347581E-04
(PID.TID 0000.0001) %MON dynstat_vvel_sd              =   1.7881493840524E-03
(PID.TID 0000.0001) %MON dynstat_vvel_del2            =   2.7416420530070E-04
(PID.TID 0000.0001) %MON dynstat_wvel_max             =   9.5918884307001E-04
(PID.TID 0000.0001) %MON dynstat_wvel_min             =  -7.0861509682080E-04
(PID.TID 0000.0001) %MON dynstat_wvel_mean            =  -8.9550247559181E-22
(PID.TID 0000.0001) %MON dynstat_wvel_sd              =   4.4672121646015E-04
(PID.TID 0000.0001) %MON dynstat_wvel_del2            =   2.6077417458806E-04
(PID.TID 0000.0001) %MON dynstat_theta_max            =   2.9347585696409E+00
(PID.TID 0000.0001) %MON dynstat_theta_min            =   4.5565937123579E-01
(PID.TID 0000.0001) %MON dynstat_theta_mean           =   1.6701488682827E+00
(PID.TID 0000.0001) %MON dynstat_theta_sd             =   7.2224801018503E-01
(PID.TID 0000.0001) %MON dynstat_theta_del2           =   2.5060102155634E-02
(PID.TID 0000.0001) %MON dynstat_salt_max             =   3.5000000000000E+01
(PID.TID 0000.0001) %MON dynstat_salt_min             =   3.5000000000000E+01
(PID.TID 0000.0001) %MON dynstat_salt_mean            =   3.5000000000000E+01
(PID.TID 0000.0001) %MON dynstat_salt_sd              =   1.3851027837303E-14
(PID.TID 0000.0001) %MON dynstat_salt_del2            =   1.1842378929335E-16
(PID.TID 0000.0001) %MON dynstat_sst_max              =   2.9347585696409E+00
(PID.TID 0000.0001) %MON dynstat_sst_min              =   2.2440860069006E+00
(PID.TID 0000.0001) %MON dynstat_sst_mean             =   2.7045343820608E+00
(PID.TID 0000.0001) %MON dynstat_sst_sd               =   3.2558616846209E-01
(PID.TID 0000.0001) %MON dynstat_sst_del2             =   2.3022418758009E-01
(PID.TID 0000.0001) %MON dynstat_sss_max              =   3.5000000000000E+01
(PID.TID 0000.0001) %MON dynstat_sss_min              =   3.5000000000000E+01
(PID.TID 0000.0001) %MON dynstat_sss_mean             =   3.5000000000000E+01
(PID.TID 0000.0001) %MON dynstat_sss_sd               =   7.1054273576010E-15
(PID.TID 0000.0001) %MON dynstat_sss_del2             =   0.0000000000000E+00
(PID.TID 0000.0001) %MON extforcing_qnet_max          =   2.0000000000000E+02
(PID.TID 0000.0001) %MON extforcing_qnet_min          =   0.0000000000000E+00
(PID.TID 0000.0001) %MON extforcing_qnet_mean         =   6.6666666666667E+01
(PID.TID 0000.0001) %MON extforcing_qnet_sd           =   9.4280904158206E+01
(PID.TID 0000.0001) %MON extforcing_qnet_del2         =   6.6666666666667E+01
(PID.TID 0000.0001) %MON extforcing_qsw_max           =   0.0000000000000E+00
(PID.TID 0000.0001) %MON extforcing_qsw_min           =   0.0000000000000E+00
(PID.TID 0000.0001) %MON extforcing_qsw_mean          =   0.0000000000000E+00
(PID.TID 0000.0001) %MON extforcing_qsw_sd            =   0.0000000000000E+00
(PID.TID 0000.0001) %MON extforcing_qsw_del2          =   0.0000000000000E+00
(PID.TID 0000.0001) %MON extforcing_empmr_max         =   0.0000000000000E+00
(PID.TID 0000.0001) %MON extforcing_empmr_min         =   0.0000000000000E+00
(PID.TID 0000.0001) %MON extforcing_empmr_mean        =   0.0000000000000E+00
(PID.TID 0000.0001) %MON extforcing_empmr_sd          =   0.0000000000000E+00
(PID.TID 0000.0001) %MON extforcing_empmr_del2        =   0.0000000000000E+00
(PID.TID 0000.0001) %MON extforcing_fu_max            =   1.0000000000000E+00
(PID.TID 0000.0001) %MON extforcing_fu_min            =   0.0000000000000E+00
(PID.TID 0000.0001) %MON extforcing_fu_mean           =   6.6666666666667E-01
(PID.TID 0000.0001) %MON extforcing_fu_sd             =   4.7140452079103E-01
(PID.TID 0000.0001) %MON extforcing_fu_del2           =   3.3333333333333E-01
(PID.TID 0000.0001) %MON extforcing_fv_max            =   0.0000000000000E+00
(PID.TID 0000.0001) %MON extforcing_fv_min            =   0.0000000000000E+00
(PID.TID 0000.0001) %MON extforcing_fv_mean           =   0.0000000000000E+00
(PID.TID 0000.0001) %MON extforcing_fv_sd             =   0.0000000000000E+00
(PID.TID 0000.0001) %MON extforcing_fv_del2           =   0.0000000000000E+00
(PID.TID 0000.0001) %MON advcfl_uvel_max              =   1.7559943498989E-02
(PID.TID 0000.0001) %MON advcfl_vvel_max              =   2.1911287503872E-03
(PID.TID 0000.0001) %MON advcfl_wvel_max              =   2.3020532233680E-02
(PID.TID 0000.0001) %MON advcfl_W_hf_max              =   2.3020532233680E-02
(PID.TID 0000.0001) %MON pe_b_mean                    =   4.3094125530104E-08
(PID.TID 0000.0001) %MON ke_max                       =   1.5751548973229E-03
(PID.TID 0000.0001) %MON ke_mean                      =   6.0629624026161E-05
(PID.TID 0000.0001) %MON ke_vol                       =   7.5000000000000E+10
(PID.TID 0000.0001) %MON vort_r_min                   =  -9.2268121373087E-07
(PID.TID 0000.0001) %MON vort_r_max                   =   9.7815053481857E-07
(PID.TID 0000.0001) %MON vort_a_mean                  =   1.4000000000000E-04
(PID.TID 0000.0001) %MON vort_a_sd                    =   2.2171416423379E-07
(PID.TID 0000.0001) %MON vort_p_mean                  =   1.4000000000000E-04
(PID.TID 0000.0001) %MON vort_p_sd                    =   2.2171416423379E-07
(PID.TID 0000.0001) %MON surfExpan_theta_mean         =  -1.3755426556881E-08
(PID.TID 0000.0001) %MON surfExpan_salt_mean          =   1.8973385825423E-18
(PID.TID 0000.0001) // =======================================================
(PID.TID 0000.0001) // End MONITOR dynamic field statistics
(PID.TID 0000.0001) // =======================================================
 cg2d: Sum(rhs),rhsMax =  -5.55111512312578E-16  1.22794494550232E-01
(PID.TID 0000.0001)                    cg2d_init_res =    5.11188842589959E-03
(PID.TID 0000.0001)                       cg2d_iters =     1
(PID.TID 0000.0001)                         cg2d_res =    2.87443077997695E-16
(PID.TID 0000.0001) // =======================================================
(PID.TID 0000.0001) // Begin MONITOR dynamic field statistics
(PID.TID 0000.0001) // =======================================================
(PID.TID 0000.0001) %MON time_tsnumber                =                     4
(PID.TID 0000.0001) %MON time_secondsf                =   4.8000000000000E+03
(PID.TID 0000.0001) %MON dynstat_eta_max              =   2.2587565563164E-03
(PID.TID 0000.0001) %MON dynstat_eta_min              =  -4.1699659975270E-03
(PID.TID 0000.0001) %MON dynstat_eta_mean             =   4.9670537312826E-19
(PID.TID 0000.0001) %MON dynstat_eta_sd               =   2.9520229859881E-03
(PID.TID 0000.0001) %MON dynstat_eta_del2             =   2.0849829987635E-03
(PID.TID 0000.0001) %MON dynstat_uvel_max             =   9.2466790695443E-02
(PID.TID 0000.0001) %MON dynstat_uvel_min             =  -4.8391060786788E-03
(PID.TID 0000.0001) %MON dynstat_uvel_mean            =   3.0294631484269E-03
(PID.TID 0000.0001) %MON dynstat_uvel_sd              =   1.3553802385760E-02
(PID.TID 0000.0001) %MON dynstat_uvel_del2            =   3.9291463769137E-03
(PID.TID 0000.0001) %MON dynstat_vvel_max             =   5.0667992691514E-04
(PID.TID 0000.0001) %MON dynstat_vvel_min             =  -1.5992662765109E-02
(PID.TID 0000.0001) %MON dynstat_vvel_mean            =  -9.9917876822127E-04
(PID.TID 0000.0001) %MON dynstat_vvel_sd              =   3.1697189765510E-03
(PID.TID 0000.0001) %MON dynstat_vvel_del2            =   5.5105381360458E-04
(PID.TID 0000.0001) %MON dynstat_wvel_max             =   1.3142409215053E-03
(PID.TID 0000.0001) %MON dynstat_wvel_min             =  -1.0349839602327E-03
(PID.TID 0000.0001) %MON dynstat_wvel_mean            =   2.0397556388480E-21
(PID.TID 0000.0001) %MON dynstat_wvel_sd              =   6.2489954905433E-04
(PID.TID 0000.0001) %MON dynstat_wvel_del2            =   3.5921650735247E-04
(PID.TID 0000.0001) %MON dynstat_theta_max            =   2.9347579433532E+00
(PID.TID 0000.0001) %MON dynstat_theta_min            =   4.5565999752346E-01
(PID.TID 0000.0001) %MON dynstat_theta_mean           =   1.6701288342308E+00
(PID.TID 0000.0001) %MON dynstat_theta_sd             =   7.2201388257224E-01
(PID.TID 0000.0001) %MON dynstat_theta_del2           =   2.5080136207512E-02
(PID.TID 0000.0001) %MON dynstat_salt_max             =   3.5000000000000E+01
(PID.TID 0000.0001) %MON dynstat_salt_min             =   3.5000000000000E+01
(PID.TID 0000.0001) %MON dynstat_salt_mean            =   3.5000000000000E+01
(PID.TID 0000.0001) %MON dynstat_salt_sd              =   2.0532103344521E-14
(PID.TID 0000.0001) %MON dynstat_salt_del2            =   3.5527136788005E-16
(PID.TID 0000.0001) %MON dynstat_sst_max              =   2.9347579433532E+00
(PID.TID 0000.0001) %MON dynstat_sst_min              =   2.2877664522340E+00
(PID.TID 0000.0001) %MON dynstat_sst_mean             =   2.7190941129801E+00
(PID.TID 0000.0001) %MON dynstat_sst_sd               =   3.0499471382693E-01
(PID.TID 0000.0001) %MON dynstat_sst_del2             =   2.1566383037307E-01
(PID.TID 0000.0001) %MON dynstat_sss_max              =   3.5000000000000E+01
(PID.TID 0000.0001) %MON dynstat_sss_min              =   3.5000000000000E+01
(PID.TID 0000.0001) %MON dynstat_sss_mean             =   3.5000000000000E+01
(PID.TID 0000.0001) %MON dynstat_sss_sd               =   5.8015571435115E-15
(PID.TID 0000.0001) %MON dynstat_sss_del2             =   2.3684757858670E-15
(PID.TID 0000.0001) %MON extforcing_qnet_max          =   2.0000000000000E+02
(PID.TID 0000.0001) %MON extforcing_qnet_min          =   0.0000000000000E+00
(PID.TID 0000.0001) %MON extforcing_qnet_mean         =   6.6666666666667E+01
(PID.TID 0000.0001) %MON extforcing_qnet_sd           =   9.4280904158206E+01
(PID.TID 0000.0001) %MON extforcing_qnet_del2         =   6.6666666666667E+01
(PID.TID 0000.0001) %MON extforcing_qsw_max           =   0.0000000000000E+00
(PID.TID 0000.0001) %MON extforcing_qsw_min           =   0.0000000000000E+00
(PID.TID 0000.0001) %MON extforcing_qsw_mean          =   0.0000000000000E+00
(PID.TID 0000.0001) %MON extforcing_qsw_sd            =   0.0000000000000E+00
(PID.TID 0000.0001) %MON extforcing_qsw_del2          =   0.0000000000000E+00
(PID.TID 0000.0001) %MON extforcing_empmr_max         =   0.0000000000000E+00
(PID.TID 0000.0001) %MON extforcing_empmr_min         =   0.0000000000000E+00
(PID.TID 0000.0001) %MON extforcing_empmr_mean        =   0.0000000000000E+00
(PID.TID 0000.0001) %MON extforcing_empmr_sd          =   0.0000000000000E+00
(PID.TID 0000.0001) %MON extforcing_empmr_del2        =   0.0000000000000E+00
(PID.TID 0000.0001) %MON extforcing_fu_max            =   1.0000000000000E+00
(PID.TID 0000.0001) %MON extforcing_fu_min            =   0.0000000000000E+00
(PID.TID 0000.0001) %MON extforcing_fu_mean           =   6.6666666666667E-01
(PID.TID 0000.0001) %MON extforcing_fu_sd             =   4.7140452079103E-01
(PID.TID 0000.0001) %MON extforcing_fu_del2           =   3.3333333333333E-01
(PID.TID 0000.0001) %MON extforcing_fv_max            =   0.0000000000000E+00
(PID.TID 0000.0001) %MON extforcing_fv_min            =   0.0000000000000E+00
(PID.TID 0000.0001) %MON extforcing_fv_mean           =   0.0000000000000E+00
(PID.TID 0000.0001) %MON extforcing_fv_sd             =   0.0000000000000E+00
(PID.TID 0000.0001) %MON extforcing_fv_del2           =   0.0000000000000E+00
(PID.TID 0000.0001) %MON advcfl_uvel_max              =   2.2192029766906E-02
(PID.TID 0000.0001) %MON advcfl_vvel_max              =   3.8382390636260E-03
(PID.TID 0000.0001) %MON advcfl_wvel_max              =   3.1541782116128E-02
(PID.TID 0000.0001) %MON advcfl_W_hf_max              =   3.1541782116128E-02
(PID.TID 0000.0001) %MON pe_b_mean                    =   4.2744326776579E-08
(PID.TID 0000.0001) %MON ke_max                       =   2.5152741495476E-03
(PID.TID 0000.0001) %MON ke_mean                      =   1.0196434134054E-04
(PID.TID 0000.0001) %MON ke_vol                       =   7.5000000000000E+10
(PID.TID 0000.0001) %MON vort_r_min                   =  -1.7982162141840E-06
(PID.TID 0000.0001) %MON vort_r_max                   =   1.6849294073831E-06
(PID.TID 0000.0001) %MON vort_a_mean                  =   1.4000000000000E-04
(PID.TID 0000.0001) %MON vort_a_sd                    =   4.2589372856349E-07
(PID.TID 0000.0001) %MON vort_p_mean                  =   1.4000000000000E-04
(PID.TID 0000.0001) %MON vort_p_sd                    =   4.2589372856349E-07
(PID.TID 0000.0001) %MON surfExpan_theta_mean         =  -3.0903252365828E-09
(PID.TID 0000.0001) %MON surfExpan_salt_mean          =  -4.7369515717340E-23
(PID.TID 0000.0001) // =======================================================
(PID.TID 0000.0001) // End MONITOR dynamic field statistics
(PID.TID 0000.0001) // =======================================================
 cg2d: Sum(rhs),rhsMax =   1.11022302462516E-16  1.22746170785552E-01
(PID.TID 0000.0001)                    cg2d_init_res =    9.13483702014006E-04
(PID.TID 0000.0001)                       cg2d_iters =     1
(PID.TID 0000.0001)                         cg2d_res =    1.60059125687543E-16
(PID.TID 0000.0001) // =======================================================
(PID.TID 0000.0001) // Begin MONITOR dynamic field statistics
(PID.TID 0000.0001) // =======================================================
(PID.TID 0000.0001) %MON time_tsnumber                =                     5
(PID.TID 0000.0001) %MON time_secondsf                =   6.0000000000000E+03
(PID.TID 0000.0001) %MON dynstat_eta_max              =   2.2602228692043E-03
(PID.TID 0000.0001) %MON dynstat_eta_min              =  -4.1683249756202E-03
(PID.TID 0000.0001) %MON dynstat_eta_mean             =  -2.4835268656413E-19
(PID.TID 0000.0001) %MON dynstat_eta_sd               =   2.9509543184854E-03
(PID.TID 0000.0001) %MON dynstat_eta_del2             =   2.0841624878101E-03
(PID.TID 0000.0001) %MON dynstat_uvel_max             =   1.0917956941444E-01
(PID.TID 0000.0001) %MON dynstat_uvel_min             =  -6.3049545440072E-03
(PID.TID 0000.0001) %MON dynstat_uvel_mean            =   3.6224531514415E-03
(PID.TID 0000.0001) %MON dynstat_uvel_sd              =   1.6228827668217E-02
(PID.TID 0000.0001) %MON dynstat_uvel_del2            =   5.0665530726089E-03
(PID.TID 0000.0001) %MON dynstat_vvel_max             =   8.0931071006073E-04
(PID.TID 0000.0001) %MON dynstat_vvel_min             =  -2.4446542868611E-02
(PID.TID 0000.0001) %MON dynstat_vvel_mean            =  -1.5664305088012E-03
(PID.TID 0000.0001) %MON dynstat_vvel_sd              =   4.8168123624345E-03
(PID.TID 0000.0001) %MON dynstat_vvel_del2            =   9.3789927021088E-04
(PID.TID 0000.0001) %MON dynstat_wvel_max             =   1.6592327632031E-03
(PID.TID 0000.0001) %MON dynstat_wvel_min             =  -1.3695247173788E-03
(PID.TID 0000.0001) %MON dynstat_wvel_mean            =   2.5720821104498E-20
(PID.TID 0000.0001) %MON dynstat_wvel_sd              =   8.0205309382936E-04
(PID.TID 0000.0001) %MON dynstat_wvel_del2            =   4.5621949196511E-04
(PID.TID 0000.0001) %MON dynstat_theta_max            =   2.9347573170685E+00
(PID.TID 0000.0001) %MON dynstat_theta_min            =   4.5566062380812E-01
(PID.TID 0000.0001) %MON dynstat_theta_mean           =   1.6701088001789E+00
(PID.TID 0000.0001) %MON dynstat_theta_sd             =   7.2192165947438E-01
(PID.TID 0000.0001) %MON dynstat_theta_del2           =   2.5100170259390E-02
(PID.TID 0000.0001) %MON dynstat_salt_max             =   3.5000000000000E+01
(PID.TID 0000.0001) %MON dynstat_salt_min             =   3.5000000000000E+01
(PID.TID 0000.0001) %MON dynstat_salt_mean            =   3.5000000000000E+01
(PID.TID 0000.0001) %MON dynstat_salt_sd              =   2.6806709867668E-14
(PID.TID 0000.0001) %MON dynstat_salt_del2            =   1.3026616822269E-15
(PID.TID 0000.0001) %MON dynstat_sst_max              =   2.9347573170685E+00
(PID.TID 0000.0001) %MON dynstat_sst_min              =   2.3098025902344E+00
(PID.TID 0000.0001) %MON dynstat_sst_mean             =   2.7264390747905E+00
(PID.TID 0000.0001) %MON dynstat_sst_sd               =   2.9460648351933E-01
(PID.TID 0000.0001) %MON dynstat_sst_del2             =   2.0831824227804E-01
(PID.TID 0000.0001) %MON dynstat_sss_max              =   3.5000000000000E+01
(PID.TID 0000.0001) %MON dynstat_sss_min              =   3.5000000000000E+01
(PID.TID 0000.0001) %MON dynstat_sss_mean             =   3.5000000000000E+01
(PID.TID 0000.0001) %MON dynstat_sss_sd               =   1.0048591735576E-14
(PID.TID 0000.0001) %MON dynstat_sss_del2             =   7.1054273576010E-15
(PID.TID 0000.0001) %MON extforcing_qnet_max          =   2.0000000000000E+02
(PID.TID 0000.0001) %MON extforcing_qnet_min          =   0.0000000000000E+00
(PID.TID 0000.0001) %MON extforcing_qnet_mean         =   6.6666666666667E+01
(PID.TID 0000.0001) %MON extforcing_qnet_sd           =   9.4280904158206E+01
(PID.TID 0000.0001) %MON extforcing_qnet_del2         =   6.6666666666667E+01
(PID.TID 0000.0001) %MON extforcing_qsw_max           =   0.0000000000000E+00
(PID.TID 0000.0001) %MON extforcing_qsw_min           =   0.0000000000000E+00
(PID.TID 0000.0001) %MON extforcing_qsw_mean          =   0.0000000000000E+00
(PID.TID 0000.0001) %MON extforcing_qsw_sd            =   0.0000000000000E+00
(PID.TID 0000.0001) %MON extforcing_qsw_del2          =   0.0000000000000E+00
(PID.TID 0000.0001) %MON extforcing_empmr_max         =   0.0000000000000E+00
(PID.TID 0000.0001) %MON extforcing_empmr_min         =   0.0000000000000E+00
(PID.TID 0000.0001) %MON extforcing_empmr_mean        =   0.0000000000000E+00
(PID.TID 0000.0001) %MON extforcing_empmr_sd          =   0.0000000000000E+00
(PID.TID 0000.0001) %MON extforcing_empmr_del2        =   0.0000000000000E+00
(PID.TID 0000.0001) %MON extforcing_fu_max            =   1.0000000000000E+00
(PID.TID 0000.0001) %MON extforcing_fu_min            =   0.0000000000000E+00
(PID.TID 0000.0001) %MON extforcing_fu_mean           =   6.6666666666667E-01
(PID.TID 0000.0001) %MON extforcing_fu_sd             =   4.7140452079103E-01
(PID.TID 0000.0001) %MON extforcing_fu_del2           =   3.3333333333333E-01
(PID.TID 0000.0001) %MON extforcing_fv_max            =   0.0000000000000E+00
(PID.TID 0000.0001) %MON extforcing_fv_min            =   0.0000000000000E+00
(PID.TID 0000.0001) %MON extforcing_fv_mean           =   0.0000000000000E+00
(PID.TID 0000.0001) %MON extforcing_fv_sd             =   0.0000000000000E+00
(PID.TID 0000.0001) %MON extforcing_fv_del2           =   0.0000000000000E+00
(PID.TID 0000.0001) %MON advcfl_uvel_max              =   2.6203096659465E-02
(PID.TID 0000.0001) %MON advcfl_vvel_max              =   5.8671702884665E-03
(PID.TID 0000.0001) %MON advcfl_wvel_max              =   3.9821586316873E-02
(PID.TID 0000.0001) %MON advcfl_W_hf_max              =   3.9821586316873E-02
(PID.TID 0000.0001) %MON pe_b_mean                    =   4.2713384466907E-08
(PID.TID 0000.0001) %MON ke_max                       =   3.5410718325636E-03
(PID.TID 0000.0001) %MON ke_mean                      =   1.5107620009643E-04
(PID.TID 0000.0001) %MON ke_vol                       =   7.5000000000000E+10
(PID.TID 0000.0001) %MON vort_r_min                   =  -2.8976632906164E-06
(PID.TID 0000.0001) %MON vort_r_max                   =   2.5163348943867E-06
(PID.TID 0000.0001) %MON vort_a_mean                  =   1.4000000000000E-04
(PID.TID 0000.0001) %MON vort_a_sd                    =   6.9264064912943E-07
(PID.TID 0000.0001) %MON vort_p_mean                  =   1.4000000000000E-04
(PID.TID 0000.0001) %MON vort_p_sd                    =   6.9264064912943E-07
(PID.TID 0000.0001) %MON surfExpan_theta_mean         =  -2.8487899941193E-10
(PID.TID 0000.0001) %MON surfExpan_salt_mean          =  -8.8817841970013E-24
(PID.TID 0000.0001) // =======================================================
(PID.TID 0000.0001) // End MONITOR dynamic field statistics
(PID.TID 0000.0001) // =======================================================
 cg2d: Sum(rhs),rhsMax =  -8.88178419700125E-16  1.22806874630109E-01
(PID.TID 0000.0001)                    cg2d_init_res =    9.24176968042206E-04
(PID.TID 0000.0001)                       cg2d_iters =     1
(PID.TID 0000.0001)                         cg2d_res =    4.48347019615222E-16
(PID.TID 0000.0001) // =======================================================
(PID.TID 0000.0001) // Begin MONITOR dynamic field statistics
(PID.TID 0000.0001) // =======================================================
(PID.TID 0000.0001) %MON time_tsnumber                =                     6
(PID.TID 0000.0001) %MON time_secondsf                =   7.2000000000000E+03
(PID.TID 0000.0001) %MON dynstat_eta_max              =   2.2633127603751E-03
(PID.TID 0000.0001) %MON dynstat_eta_min              =  -4.1703864114252E-03
(PID.TID 0000.0001) %MON dynstat_eta_mean             =   1.7384688059489E-18
(PID.TID 0000.0001) %MON dynstat_eta_sd               =   2.9524925843772E-03
(PID.TID 0000.0001) %MON dynstat_eta_del2             =   2.0851932057126E-03
(PID.TID 0000.0001) %MON dynstat_uvel_max             =   1.2513095993819E-01
(PID.TID 0000.0001) %MON dynstat_uvel_min             =  -7.7420722850008E-03
(PID.TID 0000.0001) %MON dynstat_uvel_mean            =   4.1108508193127E-03
(PID.TID 0000.0001) %MON dynstat_uvel_sd              =   1.8753540056349E-02
(PID.TID 0000.0001) %MON dynstat_uvel_del2            =   6.1852108248611E-03
(PID.TID 0000.0001) %MON dynstat_vvel_max             =   1.1773477487262E-03
(PID.TID 0000.0001) %MON dynstat_vvel_min             =  -3.3898668311337E-02
(PID.TID 0000.0001) %MON dynstat_vvel_mean            =  -2.2258100429234E-03
(PID.TID 0000.0001) %MON dynstat_vvel_sd              =   6.6880107390314E-03
(PID.TID 0000.0001) %MON dynstat_vvel_del2            =   1.4049218711879E-03
(PID.TID 0000.0001) %MON dynstat_wvel_max             =   1.9901043775159E-03
(PID.TID 0000.0001) %MON dynstat_wvel_min             =  -1.6978339033394E-03
(PID.TID 0000.0001) %MON dynstat_wvel_mean            =   9.5520264063126E-21
(PID.TID 0000.0001) %MON dynstat_wvel_sd              =   9.7504657373380E-04
(PID.TID 0000.0001) %MON dynstat_wvel_del2            =   5.5083259000029E-04
(PID.TID 0000.0001) %MON dynstat_theta_max            =   2.9347566907869E+00
(PID.TID 0000.0001) %MON dynstat_theta_min            =   4.5566125008978E-01
(PID.TID 0000.0001) %MON dynstat_theta_mean           =   1.6700887661271E+00
(PID.TID 0000.0001) %MON dynstat_theta_sd             =   7.2186906596038E-01
(PID.TID 0000.0001) %MON dynstat_theta_del2           =   2.5120204311268E-02
(PID.TID 0000.0001) %MON dynstat_salt_max             =   3.5000000000000E+01
(PID.TID 0000.0001) %MON dynstat_salt_min             =   3.5000000000000E+01
(PID.TID 0000.0001) %MON dynstat_salt_mean            =   3.5000000000000E+01
(PID.TID 0000.0001) %MON dynstat_salt_sd              =   2.7134298926014E-14
(PID.TID 0000.0001) %MON dynstat_salt_del2            =   1.0658141036402E-15
(PID.TID 0000.0001) %MON dynstat_sst_max              =   2.9347566907869E+00
(PID.TID 0000.0001) %MON dynstat_sst_min              =   2.3236716097629E+00
(PID.TID 0000.0001) %MON dynstat_sst_mean             =   2.7310616637789E+00
(PID.TID 0000.0001) %MON dynstat_sst_sd               =   2.8806826978264E-01
(PID.TID 0000.0001) %MON dynstat_sst_del2             =   2.0369502700798E-01
(PID.TID 0000.0001) %MON dynstat_sss_max              =   3.5000000000000E+01
(PID.TID 0000.0001) %MON dynstat_sss_min              =   3.5000000000000E+01
(PID.TID 0000.0001) %MON dynstat_sss_mean             =   3.5000000000000E+01
(PID.TID 0000.0001) %MON dynstat_sss_sd               =   1.3605857528721E-14
(PID.TID 0000.0001) %MON dynstat_sss_del2             =   9.4739031434680E-15
(PID.TID 0000.0001) %MON extforcing_qnet_max          =   2.0000000000000E+02
(PID.TID 0000.0001) %MON extforcing_qnet_min          =   0.0000000000000E+00
(PID.TID 0000.0001) %MON extforcing_qnet_mean         =   6.6666666666667E+01
(PID.TID 0000.0001) %MON extforcing_qnet_sd           =   9.4280904158206E+01
(PID.TID 0000.0001) %MON extforcing_qnet_del2         =   6.6666666666667E+01
(PID.TID 0000.0001) %MON extforcing_qsw_max           =   0.0000000000000E+00
(PID.TID 0000.0001) %MON extforcing_qsw_min           =   0.0000000000000E+00
(PID.TID 0000.0001) %MON extforcing_qsw_mean          =   0.0000000000000E+00
(PID.TID 0000.0001) %MON extforcing_qsw_sd            =   0.0000000000000E+00
(PID.TID 0000.0001) %MON extforcing_qsw_del2          =   0.0000000000000E+00
(PID.TID 0000.0001) %MON extforcing_empmr_max         =   0.0000000000000E+00
(PID.TID 0000.0001) %MON extforcing_empmr_min         =   0.0000000000000E+00
(PID.TID 0000.0001) %MON extforcing_empmr_mean        =   0.0000000000000E+00
(PID.TID 0000.0001) %MON extforcing_empmr_sd          =   0.0000000000000E+00
(PID.TID 0000.0001) %MON extforcing_empmr_del2        =   0.0000000000000E+00
(PID.TID 0000.0001) %MON extforcing_fu_max            =   1.0000000000000E+00
(PID.TID 0000.0001) %MON extforcing_fu_min            =   0.0000000000000E+00
(PID.TID 0000.0001) %MON extforcing_fu_mean           =   6.6666666666667E-01
(PID.TID 0000.0001) %MON extforcing_fu_sd             =   4.7140452079103E-01
(PID.TID 0000.0001) %MON extforcing_fu_del2           =   3.3333333333333E-01
(PID.TID 0000.0001) %MON extforcing_fv_max            =   0.0000000000000E+00
(PID.TID 0000.0001) %MON extforcing_fv_min            =   0.0000000000000E+00
(PID.TID 0000.0001) %MON extforcing_fv_mean           =   0.0000000000000E+00
(PID.TID 0000.0001) %MON extforcing_fv_sd             =   0.0000000000000E+00
(PID.TID 0000.0001) %MON extforcing_fv_del2           =   0.0000000000000E+00
(PID.TID 0000.0001) %MON advcfl_uvel_max              =   3.0031430385167E-02
(PID.TID 0000.0001) %MON advcfl_vvel_max              =   8.1356803947208E-03
(PID.TID 0000.0001) %MON advcfl_wvel_max              =   4.7762505060383E-02
(PID.TID 0000.0001) %MON advcfl_W_hf_max              =   4.7762505060383E-02
(PID.TID 0000.0001) %MON pe_b_mean                    =   4.2757927120235E-08
(PID.TID 0000.0001) %MON ke_max                       =   4.7388624371905E-03
(PID.TID 0000.0001) %MON ke_mean                      =   2.0913903854815E-04
(PID.TID 0000.0001) %MON ke_vol                       =   7.5000000000000E+10
(PID.TID 0000.0001) %MON vort_r_min                   =  -4.1955205497346E-06
(PID.TID 0000.0001) %MON vort_r_max                   =   3.5592536561091E-06
(PID.TID 0000.0001) %MON vort_a_mean                  =   1.4000000000000E-04
(PID.TID 0000.0001) %MON vort_a_sd                    =   1.0122535300150E-06
(PID.TID 0000.0001) %MON vort_p_mean                  =   1.4000000000000E-04
(PID.TID 0000.0001) %MON vort_p_sd                    =   1.0122535300150E-06
(PID.TID 0000.0001) %MON surfExpan_theta_mean         =   3.4992018504065E-10
(PID.TID 0000.0001) %MON surfExpan_salt_mean          =   1.2649200205791E-18
(PID.TID 0000.0001) // =======================================================
(PID.TID 0000.0001) // End MONITOR dynamic field statistics
(PID.TID 0000.0001) // =======================================================
 cg2d: Sum(rhs),rhsMax =  -2.22044604925031E-16  1.22882191842767E-01
(PID.TID 0000.0001)                    cg2d_init_res =    9.33826454376696E-04
(PID.TID 0000.0001)                       cg2d_iters =     1
(PID.TID 0000.0001)                         cg2d_res =    1.60067094439403E-16
(PID.TID 0000.0001) // =======================================================
(PID.TID 0000.0001) // Begin MONITOR dynamic field statistics
(PID.TID 0000.0001) // =======================================================
(PID.TID 0000.0001) %MON time_tsnumber                =                     7
(PID.TID 0000.0001) %MON time_secondsf                =   8.4000000000000E+03
(PID.TID 0000.0001) %MON dynstat_eta_max              =   2.2662305727156E-03
(PID.TID 0000.0001) %MON dynstat_eta_min              =  -4.1729441011406E-03
(PID.TID 0000.0001) %MON dynstat_eta_mean             =   2.2351741790771E-18
(PID.TID 0000.0001) %MON dynstat_eta_sd               =   2.9543651297379E-03
(PID.TID 0000.0001) %MON dynstat_eta_del2             =   2.0864720505703E-03
(PID.TID 0000.0001) %MON dynstat_uvel_max             =   1.3954343904896E-01
(PID.TID 0000.0001) %MON dynstat_uvel_min             =  -9.2795456158287E-03
(PID.TID 0000.0001) %MON dynstat_uvel_mean            =   4.4805792112027E-03
(PID.TID 0000.0001) %MON dynstat_uvel_sd              =   2.1040979475815E-02
(PID.TID 0000.0001) %MON dynstat_uvel_del2            =   7.2159237374774E-03
(PID.TID 0000.0001) %MON dynstat_vvel_max             =   1.6091334457616E-03
(PID.TID 0000.0001) %MON dynstat_vvel_min             =  -4.4237805490024E-02
(PID.TID 0000.0001) %MON dynstat_vvel_mean            =  -2.9582789199733E-03
(PID.TID 0000.0001) %MON dynstat_vvel_sd              =   8.7349976017169E-03
(PID.TID 0000.0001) %MON dynstat_vvel_del2            =   1.9423412996633E-03
(PID.TID 0000.0001) %MON dynstat_wvel_max             =   2.3034747188079E-03
(PID.TID 0000.0001) %MON dynstat_wvel_min             =  -1.9940830153664E-03
(PID.TID 0000.0001) %MON dynstat_wvel_mean            =  -2.3880066015781E-20
(PID.TID 0000.0001) %MON dynstat_wvel_sd              =   1.1412300597030E-03
(PID.TID 0000.0001) %MON dynstat_wvel_del2            =   6.4192038173700E-04
(PID.TID 0000.0001) %MON dynstat_theta_max            =   2.9347560645082E+00
(PID.TID 0000.0001) %MON dynstat_theta_min            =   4.5566187636843E-01
(PID.TID 0000.0001) %MON dynstat_theta_mean           =   1.6700687320752E+00
(PID.TID 0000.0001) %MON dynstat_theta_sd             =   7.2182960167408E-01
(PID.TID 0000.0001) %MON dynstat_theta_del2           =   2.5140238363146E-02
(PID.TID 0000.0001) %MON dynstat_salt_max             =   3.5000000000000E+01
(PID.TID 0000.0001) %MON dynstat_salt_min             =   3.5000000000000E+01
(PID.TID 0000.0001) %MON dynstat_salt_mean            =   3.5000000000000E+01
(PID.TID 0000.0001) %MON dynstat_salt_sd              =   3.3629020112469E-14
(PID.TID 0000.0001) %MON dynstat_salt_del2            =   2.0132044179870E-15
(PID.TID 0000.0001) %MON dynstat_sst_max              =   2.9347560645082E+00
(PID.TID 0000.0001) %MON dynstat_sst_min              =   2.3332282788322E+00
(PID.TID 0000.0001) %MON dynstat_sst_mean             =   2.7342468026162E+00
(PID.TID 0000.0001) %MON dynstat_sst_sd               =   2.8356291754910E-01
(PID.TID 0000.0001) %MON dynstat_sst_del2             =   2.0050926189201E-01
(PID.TID 0000.0001) %MON dynstat_sss_max              =   3.5000000000000E+01
(PID.TID 0000.0001) %MON dynstat_sss_min              =   3.5000000000000E+01
(PID.TID 0000.0001) %MON dynstat_sss_mean             =   3.5000000000000E+01
(PID.TID 0000.0001) %MON dynstat_sss_sd               =   1.6914300309506E-14
(PID.TID 0000.0001) %MON dynstat_sss_del2             =   1.1842378929335E-14
(PID.TID 0000.0001) %MON extforcing_qnet_max          =   2.0000000000000E+02
(PID.TID 0000.0001) %MON extforcing_qnet_min          =   0.0000000000000E+00
(PID.TID 0000.0001) %MON extforcing_qnet_mean         =   6.6666666666667E+01
(PID.TID 0000.0001) %MON extforcing_qnet_sd           =   9.4280904158206E+01
(PID.TID 0000.0001) %MON extforcing_qnet_del2         =   6.6666666666667E+01
(PID.TID 0000.0001) %MON extforcing_qsw_max           =   0.0000000000000E+00
(PID.TID 0000.0001) %MON extforcing_qsw_min           =   0.0000000000000E+00
(PID.TID 0000.0001) %MON extforcing_qsw_mean          =   0.0000000000000E+00
(PID.TID 0000.0001) %MON extforcing_qsw_sd            =   0.0000000000000E+00
(PID.TID 0000.0001) %MON extforcing_qsw_del2          =   0.0000000000000E+00
(PID.TID 0000.0001) %MON extforcing_empmr_max         =   0.0000000000000E+00
(PID.TID 0000.0001) %MON extforcing_empmr_min         =   0.0000000000000E+00
(PID.TID 0000.0001) %MON extforcing_empmr_mean        =   0.0000000000000E+00
(PID.TID 0000.0001) %MON extforcing_empmr_sd          =   0.0000000000000E+00
(PID.TID 0000.0001) %MON extforcing_empmr_del2        =   0.0000000000000E+00
(PID.TID 0000.0001) %MON extforcing_fu_max            =   1.0000000000000E+00
(PID.TID 0000.0001) %MON extforcing_fu_min            =   0.0000000000000E+00
(PID.TID 0000.0001) %MON extforcing_fu_mean           =   6.6666666666667E-01
(PID.TID 0000.0001) %MON extforcing_fu_sd             =   4.7140452079103E-01
(PID.TID 0000.0001) %MON extforcing_fu_del2           =   3.3333333333333E-01
(PID.TID 0000.0001) %MON extforcing_fv_max            =   0.0000000000000E+00
(PID.TID 0000.0001) %MON extforcing_fv_min            =   0.0000000000000E+00
(PID.TID 0000.0001) %MON extforcing_fv_mean           =   0.0000000000000E+00
(PID.TID 0000.0001) %MON extforcing_fv_sd             =   0.0000000000000E+00
(PID.TID 0000.0001) %MON extforcing_fv_del2           =   0.0000000000000E+00
(PID.TID 0000.0001) %MON advcfl_uvel_max              =   3.3490425371750E-02
(PID.TID 0000.0001) %MON advcfl_vvel_max              =   1.0617073317606E-02
(PID.TID 0000.0001) %MON advcfl_wvel_max              =   5.5283393251390E-02
(PID.TID 0000.0001) %MON advcfl_W_hf_max              =   5.5283393251390E-02
(PID.TID 0000.0001) %MON pe_b_mean                    =   4.2812180633674E-08
(PID.TID 0000.0001) %MON ke_max                       =   6.0467623956949E-03
(PID.TID 0000.0001) %MON ke_mean                      =   2.7392500231994E-04
(PID.TID 0000.0001) %MON ke_vol                       =   7.5000000000000E+10
(PID.TID 0000.0001) %MON vort_r_min                   =  -5.6838314965797E-06
(PID.TID 0000.0001) %MON vort_r_max                   =   4.7905038152670E-06
(PID.TID 0000.0001) %MON vort_a_mean                  =   1.4000000000000E-04
(PID.TID 0000.0001) %MON vort_a_sd                    =   1.3788789300167E-06
(PID.TID 0000.0001) %MON vort_p_mean                  =   1.4000000000000E-04
(PID.TID 0000.0001) %MON vort_p_sd                    =   1.3788789300167E-06
(PID.TID 0000.0001) %MON surfExpan_theta_mean         =   4.2736706417760E-10
(PID.TID 0000.0001) %MON surfExpan_salt_mean          =   6.3247777385792E-19
(PID.TID 0000.0001) // =======================================================
(PID.TID 0000.0001) // End MONITOR dynamic field statistics
(PID.TID 0000.0001) // =======================================================
 cg2d: Sum(rhs),rhsMax =   2.22044604925031E-16  1.22939113014649E-01
(PID.TID 0000.0001)                    cg2d_init_res =    6.19932745691941E-04
(PID.TID 0000.0001)                       cg2d_iters =     1
(PID.TID 0000.0001)                         cg2d_res =    9.60659779235039E-17
(PID.TID 0000.0001) // =======================================================
(PID.TID 0000.0001) // Begin MONITOR dynamic field statistics
(PID.TID 0000.0001) // =======================================================
(PID.TID 0000.0001) %MON time_tsnumber                =                     8
(PID.TID 0000.0001) %MON time_secondsf                =   9.6000000000000E+03
(PID.TID 0000.0001) %MON dynstat_eta_max              =   2.2679366115642E-03
(PID.TID 0000.0001) %MON dynstat_eta_min              =  -4.1748770815413E-03
(PID.TID 0000.0001) %MON dynstat_eta_mean             =   1.8626451492310E-18
(PID.TID 0000.0001) %MON dynstat_eta_sd               =   2.9557603125699E-03
(PID.TID 0000.0001) %MON dynstat_eta_del2             =   2.0874385407707E-03
(PID.TID 0000.0001) %MON dynstat_uvel_max             =   1.5354788897113E-01
(PID.TID 0000.0001) %MON dynstat_uvel_min             =  -1.5148110095355E-02
(PID.TID 0000.0001) %MON dynstat_uvel_mean            =   4.7209905249825E-03
(PID.TID 0000.0001) %MON dynstat_uvel_sd              =   2.3222149512917E-02
(PID.TID 0000.0001) %MON dynstat_uvel_del2            =   8.2051744359012E-03
(PID.TID 0000.0001) %MON dynstat_vvel_max             =   2.1023703541089E-03
(PID.TID 0000.0001) %MON dynstat_vvel_min             =  -5.5172060528093E-02
(PID.TID 0000.0001) %MON dynstat_vvel_mean            =  -3.7426945856501E-03
(PID.TID 0000.0001) %MON dynstat_vvel_sd              =   1.0949744200991E-02
(PID.TID 0000.0001) %MON dynstat_vvel_del2            =   2.5760538683836E-03
(PID.TID 0000.0001) %MON dynstat_wvel_max             =   2.6034132708538E-03
(PID.TID 0000.0001) %MON dynstat_wvel_min             =  -2.2777693041114E-03
(PID.TID 0000.0001) %MON dynstat_wvel_mean            =   7.9898720877802E-20
(PID.TID 0000.0001) %MON dynstat_wvel_sd              =   1.3015372579240E-03
(PID.TID 0000.0001) %MON dynstat_wvel_del2            =   7.2975946116215E-04
(PID.TID 0000.0001) %MON dynstat_theta_max            =   2.9347554382326E+00
(PID.TID 0000.0001) %MON dynstat_theta_min            =   4.5566250264407E-01
(PID.TID 0000.0001) %MON dynstat_theta_mean           =   1.6700486980233E+00
(PID.TID 0000.0001) %MON dynstat_theta_sd             =   7.2179876069438E-01
(PID.TID 0000.0001) %MON dynstat_theta_del2           =   2.5160272415024E-02
(PID.TID 0000.0001) %MON dynstat_salt_max             =   3.5000000000000E+01
(PID.TID 0000.0001) %MON dynstat_salt_min             =   3.5000000000000E+01
(PID.TID 0000.0001) %MON dynstat_salt_mean            =   3.5000000000000E+01
(PID.TID 0000.0001) %MON dynstat_salt_sd              =   2.1707439140811E-14
(PID.TID 0000.0001) %MON dynstat_salt_del2            =   2.6053233644537E-15
(PID.TID 0000.0001) %MON dynstat_sst_max              =   2.9347554382326E+00
(PID.TID 0000.0001) %MON dynstat_sst_min              =   2.3393623195430E+00
(PID.TID 0000.0001) %MON dynstat_sst_mean             =   2.7362910653361E+00
(PID.TID 0000.0001) %MON dynstat_sst_sd               =   2.8067100779814E-01
(PID.TID 0000.0001) %MON dynstat_sst_del2             =   1.9846437289653E-01
(PID.TID 0000.0001) %MON dynstat_sss_max              =   3.5000000000000E+01
(PID.TID 0000.0001) %MON dynstat_sss_min              =   3.5000000000000E+01
(PID.TID 0000.0001) %MON dynstat_sss_mean             =   3.5000000000000E+01
(PID.TID 0000.0001) %MON dynstat_sss_sd               =   1.6914300309506E-14
(PID.TID 0000.0001) %MON dynstat_sss_del2             =   1.1842378929335E-14
(PID.TID 0000.0001) %MON extforcing_qnet_max          =   2.0000000000000E+02
(PID.TID 0000.0001) %MON extforcing_qnet_min          =   0.0000000000000E+00
(PID.TID 0000.0001) %MON extforcing_qnet_mean         =   6.6666666666667E+01
(PID.TID 0000.0001) %MON extforcing_qnet_sd           =   9.4280904158206E+01
(PID.TID 0000.0001) %MON extforcing_qnet_del2         =   6.6666666666667E+01
(PID.TID 0000.0001) %MON extforcing_qsw_max           =   0.0000000000000E+00
(PID.TID 0000.0001) %MON extforcing_qsw_min           =   0.0000000000000E+00
(PID.TID 0000.0001) %MON extforcing_qsw_mean          =   0.0000000000000E+00
(PID.TID 0000.0001) %MON extforcing_qsw_sd            =   0.0000000000000E+00
(PID.TID 0000.0001) %MON extforcing_qsw_del2          =   0.0000000000000E+00
(PID.TID 0000.0001) %MON extforcing_empmr_max         =   0.0000000000000E+00
(PID.TID 0000.0001) %MON extforcing_empmr_min         =   0.0000000000000E+00
(PID.TID 0000.0001) %MON extforcing_empmr_mean        =   0.0000000000000E+00
(PID.TID 0000.0001) %MON extforcing_empmr_sd          =   0.0000000000000E+00
(PID.TID 0000.0001) %MON extforcing_empmr_del2        =   0.0000000000000E+00
(PID.TID 0000.0001) %MON extforcing_fu_max            =   1.0000000000000E+00
(PID.TID 0000.0001) %MON extforcing_fu_min            =   0.0000000000000E+00
(PID.TID 0000.0001) %MON extforcing_fu_mean           =   6.6666666666667E-01
(PID.TID 0000.0001) %MON extforcing_fu_sd             =   4.7140452079103E-01
(PID.TID 0000.0001) %MON extforcing_fu_del2           =   3.3333333333333E-01
(PID.TID 0000.0001) %MON extforcing_fv_max            =   0.0000000000000E+00
(PID.TID 0000.0001) %MON extforcing_fv_min            =   0.0000000000000E+00
(PID.TID 0000.0001) %MON extforcing_fv_mean           =   0.0000000000000E+00
(PID.TID 0000.0001) %MON extforcing_fv_sd             =   0.0000000000000E+00
(PID.TID 0000.0001) %MON extforcing_fv_del2           =   0.0000000000000E+00
(PID.TID 0000.0001) %MON advcfl_uvel_max              =   3.6851493353070E-02
(PID.TID 0000.0001) %MON advcfl_vvel_max              =   1.3241294526742E-02
(PID.TID 0000.0001) %MON advcfl_wvel_max              =   6.2481918500492E-02
(PID.TID 0000.0001) %MON advcfl_W_hf_max              =   6.2481918500492E-02
(PID.TID 0000.0001) %MON pe_b_mean                    =   4.2852625819406E-08
(PID.TID 0000.0001) %MON ke_max                       =   7.5664654655809E-03
(PID.TID 0000.0001) %MON ke_mean                      =   3.4773032018293E-04
(PID.TID 0000.0001) %MON ke_vol                       =   7.5000000000000E+10
(PID.TID 0000.0001) %MON vort_r_min                   =  -7.3362482033599E-06
(PID.TID 0000.0001) %MON vort_r_max                   =   6.2997921335421E-06
(PID.TID 0000.0001) %MON vort_a_mean                  =   1.4000000000000E-04
(PID.TID 0000.0001) %MON vort_a_sd                    =   1.7973737605178E-06
(PID.TID 0000.0001) %MON vort_p_mean                  =   1.4000000000000E-04
(PID.TID 0000.0001) %MON vort_p_sd                    =   1.7973737605178E-06
(PID.TID 0000.0001) %MON surfExpan_theta_mean         =   3.1968978602497E-10
(PID.TID 0000.0001) %MON surfExpan_salt_mean          =   3.7947274951951E-18
(PID.TID 0000.0001) // =======================================================
(PID.TID 0000.0001) // End MONITOR dynamic field statistics
(PID.TID 0000.0001) // =======================================================
 cg2d: Sum(rhs),rhsMax =  -3.33066907387547E-16  1.23032309773297E-01
(PID.TID 0000.0001)                    cg2d_init_res =    9.30481342272324E-04
(PID.TID 0000.0001)                       cg2d_iters =     1
(PID.TID 0000.0001)                         cg2d_res =    9.60855480724238E-17
(PID.TID 0000.0001) // =======================================================
(PID.TID 0000.0001) // Begin MONITOR dynamic field statistics
(PID.TID 0000.0001) // =======================================================
(PID.TID 0000.0001) %MON time_tsnumber                =                     9
(PID.TID 0000.0001) %MON time_secondsf                =   1.0800000000000E+04
(PID.TID 0000.0001) %MON dynstat_eta_max              =   2.2693082644881E-03
(PID.TID 0000.0001) %MON dynstat_eta_min              =  -4.1780419409763E-03
(PID.TID 0000.0001) %MON dynstat_eta_mean             =   1.9868214925130E-18
(PID.TID 0000.0001) %MON dynstat_eta_sd               =   2.9579868552554E-03
(PID.TID 0000.0001) %MON dynstat_eta_del2             =   2.0890209704882E-03
(PID.TID 0000.0001) %MON dynstat_uvel_max             =   1.6657615013273E-01
(PID.TID 0000.0001) %MON dynstat_uvel_min             =  -2.2377397917282E-02
(PID.TID 0000.0001) %MON dynstat_uvel_mean            =   4.8251691711390E-03
(PID.TID 0000.0001) %MON dynstat_uvel_sd              =   2.5288405806931E-02
(PID.TID 0000.0001) %MON dynstat_uvel_del2            =   9.1635929134261E-03
(PID.TID 0000.0001) %MON dynstat_vvel_max             =   2.6538906324223E-03
(PID.TID 0000.0001) %MON dynstat_vvel_min             =  -6.6566334935175E-02
(PID.TID 0000.0001) %MON dynstat_vvel_mean            =  -4.5564194549763E-03
(PID.TID 0000.0001) %MON dynstat_vvel_sd              =   1.3320532846427E-02
(PID.TID 0000.0001) %MON dynstat_vvel_del2            =   3.2842101047498E-03
(PID.TID 0000.0001) %MON dynstat_wvel_max             =   2.8943583506950E-03
(PID.TID 0000.0001) %MON dynstat_wvel_min             =  -2.5475637824497E-03
(PID.TID 0000.0001) %MON dynstat_wvel_mean            =   2.6168572342294E-20
(PID.TID 0000.0001) %MON dynstat_wvel_sd              =   1.4547715188534E-03
(PID.TID 0000.0001) %MON dynstat_wvel_del2            =   8.1356618933634E-04
(PID.TID 0000.0001) %MON dynstat_theta_max            =   2.9347548119599E+00
(PID.TID 0000.0001) %MON dynstat_theta_min            =   4.5566312891671E-01
(PID.TID 0000.0001) %MON dynstat_theta_mean           =   1.6700286639714E+00
(PID.TID 0000.0001) %MON dynstat_theta_sd             =   7.2177242884852E-01
(PID.TID 0000.0001) %MON dynstat_theta_del2           =   2.5180306466902E-02
(PID.TID 0000.0001) %MON dynstat_salt_max             =   3.5000000000000E+01
(PID.TID 0000.0001) %MON dynstat_salt_min             =   3.5000000000000E+01
(PID.TID 0000.0001) %MON dynstat_salt_mean            =   3.5000000000000E+01
(PID.TID 0000.0001) %MON dynstat_salt_sd              =   2.7823290633153E-14
(PID.TID 0000.0001) %MON dynstat_salt_del2            =   2.9605947323338E-15
(PID.TID 0000.0001) %MON dynstat_sst_max              =   2.9347548119599E+00
(PID.TID 0000.0001) %MON dynstat_sst_min              =   2.3435405268533E+00
(PID.TID 0000.0001) %MON dynstat_sst_mean             =   2.7376833835911E+00
(PID.TID 0000.0001) %MON dynstat_sst_sd               =   2.7870108675552E-01
(PID.TID 0000.0001) %MON dynstat_sst_del2             =   1.9707142836889E-01
(PID.TID 0000.0001) %MON dynstat_sss_max              =   3.5000000000000E+01
(PID.TID 0000.0001) %MON dynstat_sss_min              =   3.5000000000000E+01
(PID.TID 0000.0001) %MON dynstat_sss_mean             =   3.5000000000000E+01
(PID.TID 0000.0001) %MON dynstat_sss_sd               =   1.6914300309506E-14
(PID.TID 0000.0001) %MON dynstat_sss_del2             =   1.1842378929335E-14
(PID.TID 0000.0001) %MON extforcing_qnet_max          =   2.0000000000000E+02
(PID.TID 0000.0001) %MON extforcing_qnet_min          =   0.0000000000000E+00
(PID.TID 0000.0001) %MON extforcing_qnet_mean         =   6.6666666666667E+01
(PID.TID 0000.0001) %MON extforcing_qnet_sd           =   9.4280904158206E+01
(PID.TID 0000.0001) %MON extforcing_qnet_del2         =   6.6666666666667E+01
(PID.TID 0000.0001) %MON extforcing_qsw_max           =   0.0000000000000E+00
(PID.TID 0000.0001) %MON extforcing_qsw_min           =   0.0000000000000E+00
(PID.TID 0000.0001) %MON extforcing_qsw_mean          =   0.0000000000000E+00
(PID.TID 0000.0001) %MON extforcing_qsw_sd            =   0.0000000000000E+00
(PID.TID 0000.0001) %MON extforcing_qsw_del2          =   0.0000000000000E+00
(PID.TID 0000.0001) %MON extforcing_empmr_max         =   0.0000000000000E+00
(PID.TID 0000.0001) %MON extforcing_empmr_min         =   0.0000000000000E+00
(PID.TID 0000.0001) %MON extforcing_empmr_mean        =   0.0000000000000E+00
(PID.TID 0000.0001) %MON extforcing_empmr_sd          =   0.0000000000000E+00
(PID.TID 0000.0001) %MON extforcing_empmr_del2        =   0.0000000000000E+00
(PID.TID 0000.0001) %MON extforcing_fu_max            =   1.0000000000000E+00
(PID.TID 0000.0001) %MON extforcing_fu_min            =   0.0000000000000E+00
(PID.TID 0000.0001) %MON extforcing_fu_mean           =   6.6666666666667E-01
(PID.TID 0000.0001) %MON extforcing_fu_sd             =   4.7140452079103E-01
(PID.TID 0000.0001) %MON extforcing_fu_del2           =   3.3333333333333E-01
(PID.TID 0000.0001) %MON extforcing_fv_max            =   0.0000000000000E+00
(PID.TID 0000.0001) %MON extforcing_fv_min            =   0.0000000000000E+00
(PID.TID 0000.0001) %MON extforcing_fv_mean           =   0.0000000000000E+00
(PID.TID 0000.0001) %MON extforcing_fv_sd             =   0.0000000000000E+00
(PID.TID 0000.0001) %MON extforcing_fv_del2           =   0.0000000000000E+00
(PID.TID 0000.0001) %MON advcfl_uvel_max              =   3.9978276031855E-02
(PID.TID 0000.0001) %MON advcfl_vvel_max              =   1.5975920384442E-02
(PID.TID 0000.0001) %MON advcfl_wvel_max              =   6.9464600416680E-02
(PID.TID 0000.0001) %MON advcfl_W_hf_max              =   6.9464600416680E-02
(PID.TID 0000.0001) %MON pe_b_mean                    =   4.2917210986912E-08
(PID.TID 0000.0001) %MON ke_max                       =   9.2776289059984E-03
(PID.TID 0000.0001) %MON ke_mean                      =   4.3049163967428E-04
(PID.TID 0000.0001) %MON ke_vol                       =   7.5000000000000E+10
(PID.TID 0000.0001) %MON vort_r_min                   =  -9.1379057935499E-06
(PID.TID 0000.0001) %MON vort_r_max                   =   8.0941305100130E-06
(PID.TID 0000.0001) %MON vort_a_mean                  =   1.4000000000000E-04
(PID.TID 0000.0001) %MON vort_a_sd                    =   2.2694617632260E-06
(PID.TID 0000.0001) %MON vort_p_mean                  =   1.4000000000000E-04
(PID.TID 0000.0001) %MON vort_p_sd                    =   2.2694617632260E-06
(PID.TID 0000.0001) %MON surfExpan_theta_mean         =   5.1975280830500E-10
(PID.TID 0000.0001) %MON surfExpan_salt_mean          =   3.7947393375741E-18
(PID.TID 0000.0001) // =======================================================
(PID.TID 0000.0001) // End MONITOR dynamic field statistics
(PID.TID 0000.0001) // =======================================================
 cg2d: Sum(rhs),rhsMax =   0.00000000000000E+00  1.23124788471665E-01
(PID.TID 0000.0001)                    cg2d_init_res =    1.04574606928890E-03
(PID.TID 0000.0001)                       cg2d_iters =     1
(PID.TID 0000.0001)                         cg2d_res =    3.20651876025925E-17
(PID.TID 0000.0001) // =======================================================
(PID.TID 0000.0001) // Begin MONITOR dynamic field statistics
(PID.TID 0000.0001) // =======================================================
(PID.TID 0000.0001) %MON time_tsnumber                =                    10
(PID.TID 0000.0001) %MON time_secondsf                =   1.2000000000000E+04
(PID.TID 0000.0001) %MON dynstat_eta_max              =   2.2694080446064E-03
(PID.TID 0000.0001) %MON dynstat_eta_min              =  -4.1811824158739E-03
(PID.TID 0000.0001) %MON dynstat_eta_mean             =   1.7384688059489E-18
(PID.TID 0000.0001) %MON dynstat_eta_sd               =   2.9601452956666E-03
(PID.TID 0000.0001) %MON dynstat_eta_del2             =   2.0905912079369E-03
(PID.TID 0000.0001) %MON dynstat_uvel_max             =   1.7810033622144E-01
(PID.TID 0000.0001) %MON dynstat_uvel_min             =  -3.0964475859484E-02
(PID.TID 0000.0001) %MON dynstat_uvel_mean            =   4.7901308543301E-03
(PID.TID 0000.0001) %MON dynstat_uvel_sd              =   2.7199324746930E-02
(PID.TID 0000.0001) %MON dynstat_uvel_del2            =   1.0091886048144E-02
(PID.TID 0000.0001) %MON dynstat_vvel_max             =   3.2597228263792E-03
(PID.TID 0000.0001) %MON dynstat_vvel_min             =  -7.8161477870464E-02
(PID.TID 0000.0001) %MON dynstat_vvel_mean            =  -5.3759739244628E-03
(PID.TID 0000.0001) %MON dynstat_vvel_sd              =   1.5807120324770E-02
(PID.TID 0000.0001) %MON dynstat_vvel_del2            =   4.0624581962772E-03
(PID.TID 0000.0001) %MON dynstat_wvel_max             =   3.1679368556814E-03
(PID.TID 0000.0001) %MON dynstat_wvel_min             =  -2.8016901421959E-03
(PID.TID 0000.0001) %MON dynstat_wvel_mean            =  -7.3630203548660E-21
(PID.TID 0000.0001) %MON dynstat_wvel_sd              =   1.5992784962985E-03
(PID.TID 0000.0001) %MON dynstat_wvel_del2            =   8.9227968781266E-04
(PID.TID 0000.0001) %MON dynstat_theta_max            =   2.9347541856903E+00
(PID.TID 0000.0001) %MON dynstat_theta_min            =   4.5566375518635E-01
(PID.TID 0000.0001) %MON dynstat_theta_mean           =   1.6700086299196E+00
(PID.TID 0000.0001) %MON dynstat_theta_sd             =   7.2174857202364E-01
(PID.TID 0000.0001) %MON dynstat_theta_del2           =   2.5200340518780E-02
(PID.TID 0000.0001) %MON dynstat_salt_max             =   3.5000000000000E+01
(PID.TID 0000.0001) %MON dynstat_salt_min             =   3.5000000000000E+01
(PID.TID 0000.0001) %MON dynstat_salt_mean            =   3.5000000000000E+01
(PID.TID 0000.0001) %MON dynstat_salt_sd              =   3.4175062041542E-14
(PID.TID 0000.0001) %MON dynstat_salt_del2            =   2.8421709430404E-15
(PID.TID 0000.0001) %MON dynstat_sst_max              =   2.9347541856903E+00
(PID.TID 0000.0001) %MON dynstat_sst_min              =   2.3465449249394E+00
(PID.TID 0000.0001) %MON dynstat_sst_mean             =   2.7386844321067E+00
(PID.TID 0000.0001) %MON dynstat_sst_sd               =   2.7728450468914E-01
(PID.TID 0000.0001) %MON dynstat_sst_del2             =   1.9606975358364E-01
(PID.TID 0000.0001) %MON dynstat_sss_max              =   3.5000000000000E+01
(PID.TID 0000.0001) %MON dynstat_sss_min              =   3.5000000000000E+01
(PID.TID 0000.0001) %MON dynstat_sss_mean             =   3.5000000000000E+01
(PID.TID 0000.0001) %MON dynstat_sss_sd               =   1.7404671430535E-14
(PID.TID 0000.0001) %MON dynstat_sss_del2             =   1.1842378929335E-14
(PID.TID 0000.0001) %MON extforcing_qnet_max          =   2.0000000000000E+02
(PID.TID 0000.0001) %MON extforcing_qnet_min          =   0.0000000000000E+00
(PID.TID 0000.0001) %MON extforcing_qnet_mean         =   6.6666666666667E+01
(PID.TID 0000.0001) %MON extforcing_qnet_sd           =   9.4280904158206E+01
(PID.TID 0000.0001) %MON extforcing_qnet_del2         =   6.6666666666667E+01
(PID.TID 0000.0001) %MON extforcing_qsw_max           =   0.0000000000000E+00
(PID.TID 0000.0001) %MON extforcing_qsw_min           =   0.0000000000000E+00
(PID.TID 0000.0001) %MON extforcing_qsw_mean          =   0.0000000000000E+00
(PID.TID 0000.0001) %MON extforcing_qsw_sd            =   0.0000000000000E+00
(PID.TID 0000.0001) %MON extforcing_qsw_del2          =   0.0000000000000E+00
(PID.TID 0000.0001) %MON extforcing_empmr_max         =   0.0000000000000E+00
(PID.TID 0000.0001) %MON extforcing_empmr_min         =   0.0000000000000E+00
(PID.TID 0000.0001) %MON extforcing_empmr_mean        =   0.0000000000000E+00
(PID.TID 0000.0001) %MON extforcing_empmr_sd          =   0.0000000000000E+00
(PID.TID 0000.0001) %MON extforcing_empmr_del2        =   0.0000000000000E+00
(PID.TID 0000.0001) %MON extforcing_fu_max            =   1.0000000000000E+00
(PID.TID 0000.0001) %MON extforcing_fu_min            =   0.0000000000000E+00
(PID.TID 0000.0001) %MON extforcing_fu_mean           =   6.6666666666667E-01
(PID.TID 0000.0001) %MON extforcing_fu_sd             =   4.7140452079103E-01
(PID.TID 0000.0001) %MON extforcing_fu_del2           =   3.3333333333333E-01
(PID.TID 0000.0001) %MON extforcing_fv_max            =   0.0000000000000E+00
(PID.TID 0000.0001) %MON extforcing_fv_min            =   0.0000000000000E+00
(PID.TID 0000.0001) %MON extforcing_fv_mean           =   0.0000000000000E+00
(PID.TID 0000.0001) %MON extforcing_fv_sd             =   0.0000000000000E+00
(PID.TID 0000.0001) %MON extforcing_fv_del2           =   0.0000000000000E+00
(PID.TID 0000.0001) %MON advcfl_uvel_max              =   4.2744080693146E-02
(PID.TID 0000.0001) %MON advcfl_vvel_max              =   1.8758754688911E-02
(PID.TID 0000.0001) %MON advcfl_wvel_max              =   7.6030484536353E-02
(PID.TID 0000.0001) %MON advcfl_W_hf_max              =   7.6030484536353E-02
(PID.TID 0000.0001) %MON pe_b_mean                    =   4.2979867140998E-08
(PID.TID 0000.0001) %MON ke_max                       =   1.1224240443308E-02
(PID.TID 0000.0001) %MON ke_mean                      =   5.2075738444442E-04
(PID.TID 0000.0001) %MON ke_vol                       =   7.5000000000000E+10
(PID.TID 0000.0001) %MON vort_r_min                   =  -1.1060616581317E-05
(PID.TID 0000.0001) %MON vort_r_max                   =   1.0146125868132E-05
(PID.TID 0000.0001) %MON vort_a_mean                  =   1.4000000000000E-04
(PID.TID 0000.0001) %MON vort_a_sd                    =   2.7929373340522E-06
(PID.TID 0000.0001) %MON vort_p_mean                  =   1.4000000000000E-04
(PID.TID 0000.0001) %MON vort_p_sd                    =   2.7929373340522E-06
(PID.TID 0000.0001) %MON surfExpan_theta_mean         =   5.1312678343262E-10
(PID.TID 0000.0001) %MON surfExpan_salt_mean          =   7.5894435180857E-18
(PID.TID 0000.0001) // =======================================================
(PID.TID 0000.0001) // End MONITOR dynamic field statistics
(PID.TID 0000.0001) // =======================================================
 cg2d: Sum(rhs),rhsMax =  -2.22044604925031E-16  1.23196064358890E-01
(PID.TID 0000.0001)                    cg2d_init_res =    1.24840302156008E-03
(PID.TID 0000.0001)                       cg2d_iters =     1
(PID.TID 0000.0001)                         cg2d_res =    5.42101086242752E-20
(PID.TID 0000.0001) // =======================================================
(PID.TID 0000.0001) // Begin MONITOR dynamic field statistics
(PID.TID 0000.0001) // =======================================================
(PID.TID 0000.0001) %MON time_tsnumber                =                    11
(PID.TID 0000.0001) %MON time_secondsf                =   1.3200000000000E+04
(PID.TID 0000.0001) %MON dynstat_eta_max              =   2.2675777106805E-03
(PID.TID 0000.0001) %MON dynstat_eta_min              =  -4.1836028666217E-03
(PID.TID 0000.0001) %MON dynstat_eta_mean             =   1.8626451492310E-18
(PID.TID 0000.0001) %MON dynstat_eta_sd               =   2.9617333898569E-03
(PID.TID 0000.0001) %MON dynstat_eta_del2             =   2.0918014333109E-03
(PID.TID 0000.0001) %MON dynstat_uvel_max             =   1.8783779997661E-01
(PID.TID 0000.0001) %MON dynstat_uvel_min             =  -4.0851596801033E-02
(PID.TID 0000.0001) %MON dynstat_uvel_mean            =   4.6169078660783E-03
(PID.TID 0000.0001) %MON dynstat_uvel_sd              =   2.8935491893016E-02
(PID.TID 0000.0001) %MON dynstat_uvel_del2            =   1.0964792756975E-02
(PID.TID 0000.0001) %MON dynstat_vvel_max             =   3.9149462350073E-03
(PID.TID 0000.0001) %MON dynstat_vvel_min             =  -8.9665950117422E-02
(PID.TID 0000.0001) %MON dynstat_vvel_mean            =  -6.1777138239918E-03
(PID.TID 0000.0001) %MON dynstat_vvel_sd              =   1.8361718995080E-02
(PID.TID 0000.0001) %MON dynstat_vvel_del2            =   4.9064942703175E-03
(PID.TID 0000.0001) %MON dynstat_wvel_max             =   3.4208702251232E-03
(PID.TID 0000.0001) %MON dynstat_wvel_min             =  -3.0386971989084E-03
(PID.TID 0000.0001) %MON dynstat_wvel_mean            =  -2.0850282640029E-19
(PID.TID 0000.0001) %MON dynstat_wvel_sd              =   1.7335888369722E-03
(PID.TID 0000.0001) %MON dynstat_wvel_del2            =   9.6488032435326E-04
(PID.TID 0000.0001) %MON dynstat_theta_max            =   2.9347535594237E+00
(PID.TID 0000.0001) %MON dynstat_theta_min            =   4.5566438145297E-01
(PID.TID 0000.0001) %MON dynstat_theta_mean           =   1.6699885958677E+00
(PID.TID 0000.0001) %MON dynstat_theta_sd             =   7.2172614845347E-01
(PID.TID 0000.0001) %MON dynstat_theta_del2           =   2.5220374570658E-02
(PID.TID 0000.0001) %MON dynstat_salt_max             =   3.5000000000000E+01
(PID.TID 0000.0001) %MON dynstat_salt_min             =   3.5000000000000E+01
(PID.TID 0000.0001) %MON dynstat_salt_mean            =   3.5000000000000E+01
(PID.TID 0000.0001) %MON dynstat_salt_sd              =   4.0527935872977E-14
(PID.TID 0000.0001) %MON dynstat_salt_del2            =   3.1974423109205E-15
(PID.TID 0000.0001) %MON dynstat_sst_max              =   2.9347535594237E+00
(PID.TID 0000.0001) %MON dynstat_sst_min              =   2.3487828132470E+00
(PID.TID 0000.0001) %MON dynstat_sst_mean             =   2.7394299773648E+00
(PID.TID 0000.0001) %MON dynstat_sst_sd               =   2.7622925879896E-01
(PID.TID 0000.0001) %MON dynstat_sst_del2             =   1.9532358205888E-01
(PID.TID 0000.0001) %MON dynstat_sss_max              =   3.5000000000000E+01
(PID.TID 0000.0001) %MON dynstat_sss_min              =   3.5000000000000E+01
(PID.TID 0000.0001) %MON dynstat_sss_mean             =   3.5000000000000E+01
(PID.TID 0000.0001) %MON dynstat_sss_sd               =   2.0097183471152E-14
(PID.TID 0000.0001) %MON dynstat_sss_del2             =   1.4210854715202E-14
(PID.TID 0000.0001) %MON extforcing_qnet_max          =   2.0000000000000E+02
(PID.TID 0000.0001) %MON extforcing_qnet_min          =   0.0000000000000E+00
(PID.TID 0000.0001) %MON extforcing_qnet_mean         =   6.6666666666667E+01
(PID.TID 0000.0001) %MON extforcing_qnet_sd           =   9.4280904158206E+01
(PID.TID 0000.0001) %MON extforcing_qnet_del2         =   6.6666666666667E+01
(PID.TID 0000.0001) %MON extforcing_qsw_max           =   0.0000000000000E+00
(PID.TID 0000.0001) %MON extforcing_qsw_min           =   0.0000000000000E+00
(PID.TID 0000.0001) %MON extforcing_qsw_mean          =   0.0000000000000E+00
(PID.TID 0000.0001) %MON extforcing_qsw_sd            =   0.0000000000000E+00
(PID.TID 0000.0001) %MON extforcing_qsw_del2          =   0.0000000000000E+00
(PID.TID 0000.0001) %MON extforcing_empmr_max         =   0.0000000000000E+00
(PID.TID 0000.0001) %MON extforcing_empmr_min         =   0.0000000000000E+00
(PID.TID 0000.0001) %MON extforcing_empmr_mean        =   0.0000000000000E+00
(PID.TID 0000.0001) %MON extforcing_empmr_sd          =   0.0000000000000E+00
(PID.TID 0000.0001) %MON extforcing_empmr_del2        =   0.0000000000000E+00
(PID.TID 0000.0001) %MON extforcing_fu_max            =   1.0000000000000E+00
(PID.TID 0000.0001) %MON extforcing_fu_min            =   0.0000000000000E+00
(PID.TID 0000.0001) %MON extforcing_fu_mean           =   6.6666666666667E-01
(PID.TID 0000.0001) %MON extforcing_fu_sd             =   4.7140452079103E-01
(PID.TID 0000.0001) %MON extforcing_fu_del2           =   3.3333333333333E-01
(PID.TID 0000.0001) %MON extforcing_fv_max            =   0.0000000000000E+00
(PID.TID 0000.0001) %MON extforcing_fv_min            =   0.0000000000000E+00
(PID.TID 0000.0001) %MON extforcing_fv_mean           =   0.0000000000000E+00
(PID.TID 0000.0001) %MON extforcing_fv_sd             =   0.0000000000000E+00
(PID.TID 0000.0001) %MON extforcing_fv_del2           =   0.0000000000000E+00
(PID.TID 0000.0001) %MON advcfl_uvel_max              =   4.5081071994387E-02
(PID.TID 0000.0001) %MON advcfl_vvel_max              =   2.1519828028181E-02
(PID.TID 0000.0001) %MON advcfl_wvel_max              =   8.2100885402956E-02
(PID.TID 0000.0001) %MON advcfl_W_hf_max              =   8.2100885402956E-02
(PID.TID 0000.0001) %MON pe_b_mean                    =   4.3025996219071E-08
(PID.TID 0000.0001) %MON ke_max                       =   1.3257964320542E-02
(PID.TID 0000.0001) %MON ke_mean                      =   6.1694770094005E-04
(PID.TID 0000.0001) %MON ke_vol                       =   7.5000000000000E+10
(PID.TID 0000.0001) %MON vort_r_min                   =  -1.3074056740672E-05
(PID.TID 0000.0001) %MON vort_r_max                   =   1.2427928767375E-05
(PID.TID 0000.0001) %MON vort_a_mean                  =   1.4000000000000E-04
(PID.TID 0000.0001) %MON vort_a_sd                    =   3.3641477269483E-06
(PID.TID 0000.0001) %MON vort_p_mean                  =   1.4000000000000E-04
(PID.TID 0000.0001) %MON vort_p_sd                    =   3.3641477269483E-06
(PID.TID 0000.0001) %MON surfExpan_theta_mean         =   3.9397592431847E-10
(PID.TID 0000.0001) %MON surfExpan_salt_mean          =  -1.6443702695786E-17
(PID.TID 0000.0001) // =======================================================
(PID.TID 0000.0001) // End MONITOR dynamic field statistics
(PID.TID 0000.0001) // =======================================================
 cg2d: Sum(rhs),rhsMax =  -3.33066907387547E-16  1.23232392146332E-01
(PID.TID 0000.0001)                    cg2d_init_res =    1.66253884992517E-03
(PID.TID 0000.0001)                       cg2d_iters =     1
(PID.TID 0000.0001)                         cg2d_res =    1.92045964483932E-16
(PID.TID 0000.0001) // =======================================================
(PID.TID 0000.0001) // Begin MONITOR dynamic field statistics
(PID.TID 0000.0001) // =======================================================
(PID.TID 0000.0001) %MON time_tsnumber                =                    12
(PID.TID 0000.0001) %MON time_secondsf                =   1.4400000000000E+04
(PID.TID 0000.0001) %MON dynstat_eta_max              =   2.2633922812591E-03
(PID.TID 0000.0001) %MON dynstat_eta_min              =  -4.1848365183335E-03
(PID.TID 0000.0001) %MON dynstat_eta_mean             =   2.9802322387695E-18
(PID.TID 0000.0001) %MON dynstat_eta_sd               =   2.9624173271293E-03
(PID.TID 0000.0001) %MON dynstat_eta_del2             =   2.0924182591668E-03
(PID.TID 0000.0001) %MON dynstat_uvel_max             =   1.9566501867503E-01
(PID.TID 0000.0001) %MON dynstat_uvel_min             =  -5.1932465346553E-02
(PID.TID 0000.0001) %MON dynstat_uvel_mean            =   4.3105188583256E-03
(PID.TID 0000.0001) %MON dynstat_uvel_sd              =   3.0495164009223E-02
(PID.TID 0000.0001) %MON dynstat_uvel_del2            =   1.1775157985417E-02
(PID.TID 0000.0001) %MON dynstat_vvel_max             =   4.6135982614434E-03
(PID.TID 0000.0001) %MON dynstat_vvel_min             =  -1.0079026249781E-01
(PID.TID 0000.0001) %MON dynstat_vvel_mean            =  -6.9385125525202E-03
(PID.TID 0000.0001) %MON dynstat_vvel_sd              =   2.0937310809513E-02
(PID.TID 0000.0001) %MON dynstat_vvel_del2            =   5.8179972593012E-03
(PID.TID 0000.0001) %MON dynstat_wvel_max             =   3.6558258421939E-03
(PID.TID 0000.0001) %MON dynstat_wvel_min             =  -3.2576976315179E-03
(PID.TID 0000.0001) %MON dynstat_wvel_mean            =   3.9153358238375E-20
(PID.TID 0000.0001) %MON dynstat_wvel_sd              =   1.8565149649499E-03
(PID.TID 0000.0001) %MON dynstat_wvel_del2            =   1.0304420958011E-03
(PID.TID 0000.0001) %MON dynstat_theta_max            =   2.9347529331601E+00
(PID.TID 0000.0001) %MON dynstat_theta_min            =   4.5566500771660E-01
(PID.TID 0000.0001) %MON dynstat_theta_mean           =   1.6699685618158E+00
(PID.TID 0000.0001) %MON dynstat_theta_sd             =   7.2170459981244E-01
(PID.TID 0000.0001) %MON dynstat_theta_del2           =   2.5240408622536E-02
(PID.TID 0000.0001) %MON dynstat_salt_max             =   3.5000000000000E+01
(PID.TID 0000.0001) %MON dynstat_salt_min             =   3.5000000000000E+01
(PID.TID 0000.0001) %MON dynstat_salt_mean            =   3.5000000000000E+01
(PID.TID 0000.0001) %MON dynstat_salt_sd              =   4.6890437351682E-14
(PID.TID 0000.0001) %MON dynstat_salt_del2            =   3.9079850466806E-15
(PID.TID 0000.0001) %MON dynstat_sst_max              =   2.9347529331601E+00
(PID.TID 0000.0001) %MON dynstat_sst_min              =   2.3504881624634E+00
(PID.TID 0000.0001) %MON dynstat_sst_mean             =   2.7399980095945E+00
(PID.TID 0000.0001) %MON dynstat_sst_sd               =   2.7542505424535E-01
(PID.TID 0000.0001) %MON dynstat_sst_del2             =   1.9475492356556E-01
(PID.TID 0000.0001) %MON dynstat_sss_max              =   3.5000000000000E+01
(PID.TID 0000.0001) %MON dynstat_sss_min              =   3.5000000000000E+01
(PID.TID 0000.0001) %MON dynstat_sss_mean             =   3.5000000000000E+01
(PID.TID 0000.0001) %MON dynstat_sss_sd               =   2.0097183471152E-14
(PID.TID 0000.0001) %MON dynstat_sss_del2             =   1.4210854715202E-14
(PID.TID 0000.0001) %MON extforcing_qnet_max          =   2.0000000000000E+02
(PID.TID 0000.0001) %MON extforcing_qnet_min          =   0.0000000000000E+00
(PID.TID 0000.0001) %MON extforcing_qnet_mean         =   6.6666666666667E+01
(PID.TID 0000.0001) %MON extforcing_qnet_sd           =   9.4280904158206E+01
(PID.TID 0000.0001) %MON extforcing_qnet_del2         =   6.6666666666667E+01
(PID.TID 0000.0001) %MON extforcing_qsw_max           =   0.0000000000000E+00
(PID.TID 0000.0001) %MON extforcing_qsw_min           =   0.0000000000000E+00
(PID.TID 0000.0001) %MON extforcing_qsw_mean          =   0.0000000000000E+00
(PID.TID 0000.0001) %MON extforcing_qsw_sd            =   0.0000000000000E+00
(PID.TID 0000.0001) %MON extforcing_qsw_del2          =   0.0000000000000E+00
(PID.TID 0000.0001) %MON extforcing_empmr_max         =   0.0000000000000E+00
(PID.TID 0000.0001) %MON extforcing_empmr_min         =   0.0000000000000E+00
(PID.TID 0000.0001) %MON extforcing_empmr_mean        =   0.0000000000000E+00
(PID.TID 0000.0001) %MON extforcing_empmr_sd          =   0.0000000000000E+00
(PID.TID 0000.0001) %MON extforcing_empmr_del2        =   0.0000000000000E+00
(PID.TID 0000.0001) %MON extforcing_fu_max            =   1.0000000000000E+00
(PID.TID 0000.0001) %MON extforcing_fu_min            =   0.0000000000000E+00
(PID.TID 0000.0001) %MON extforcing_fu_mean           =   6.6666666666667E-01
(PID.TID 0000.0001) %MON extforcing_fu_sd             =   4.7140452079103E-01
(PID.TID 0000.0001) %MON extforcing_fu_del2           =   3.3333333333333E-01
(PID.TID 0000.0001) %MON extforcing_fv_max            =   0.0000000000000E+00
(PID.TID 0000.0001) %MON extforcing_fv_min            =   0.0000000000000E+00
(PID.TID 0000.0001) %MON extforcing_fv_mean           =   0.0000000000000E+00
(PID.TID 0000.0001) %MON extforcing_fv_sd             =   0.0000000000000E+00
(PID.TID 0000.0001) %MON extforcing_fv_del2           =   0.0000000000000E+00
(PID.TID 0000.0001) %MON advcfl_uvel_max              =   4.6959604482007E-02
(PID.TID 0000.0001) %MON advcfl_vvel_max              =   2.4189662999475E-02
(PID.TID 0000.0001) %MON advcfl_wvel_max              =   8.7739820212653E-02
(PID.TID 0000.0001) %MON advcfl_W_hf_max              =   8.7739820212653E-02
(PID.TID 0000.0001) %MON pe_b_mean                    =   4.3045870040472E-08
(PID.TID 0000.0001) %MON ke_max                       =   1.5324783629707E-02
(PID.TID 0000.0001) %MON ke_mean                      =   7.1752477057651E-04
(PID.TID 0000.0001) %MON ke_vol                       =   7.5000000000000E+10
(PID.TID 0000.0001) %MON vort_r_min                   =  -1.5148713183052E-05
(PID.TID 0000.0001) %MON vort_r_max                   =   1.4912908342134E-05
(PID.TID 0000.0001) %MON vort_a_mean                  =   1.4000000000000E-04
(PID.TID 0000.0001) %MON vort_a_sd                    =   3.9790678680079E-06
(PID.TID 0000.0001) %MON vort_p_mean                  =   1.4000000000000E-04
(PID.TID 0000.0001) %MON vort_p_sd                    =   3.9790678680079E-06
(PID.TID 0000.0001) %MON surfExpan_theta_mean         =   2.0021645400605E-10
(PID.TID 0000.0001) %MON surfExpan_salt_mean          =  -1.2648904146317E-18
(PID.TID 0000.0001) // =======================================================
(PID.TID 0000.0001) // End MONITOR dynamic field statistics
(PID.TID 0000.0001) // =======================================================
 cg2d: Sum(rhs),rhsMax =  -7.77156117237610E-16  1.23223495570872E-01
(PID.TID 0000.0001)                    cg2d_init_res =    2.25219766477908E-03
(PID.TID 0000.0001)                       cg2d_iters =     1
(PID.TID 0000.0001)                         cg2d_res =    3.84224783341574E-16
(PID.TID 0000.0001) // =======================================================
(PID.TID 0000.0001) // Begin MONITOR dynamic field statistics
(PID.TID 0000.0001) // =======================================================
(PID.TID 0000.0001) %MON time_tsnumber                =                    13
(PID.TID 0000.0001) %MON time_secondsf                =   1.5600000000000E+04
(PID.TID 0000.0001) %MON dynstat_eta_max              =   2.2565823043618E-03
(PID.TID 0000.0001) %MON dynstat_eta_min              =  -4.1845344004145E-03
(PID.TID 0000.0001) %MON dynstat_eta_mean             =   4.9670537312826E-18
(PID.TID 0000.0001) %MON dynstat_eta_sd               =   2.9619526852672E-03
(PID.TID 0000.0001) %MON dynstat_eta_del2             =   2.0922672002072E-03
(PID.TID 0000.0001) %MON dynstat_uvel_max             =   2.0157133152548E-01
(PID.TID 0000.0001) %MON dynstat_uvel_min             =  -6.4057641772215E-02
(PID.TID 0000.0001) %MON dynstat_uvel_mean            =   3.8798234099399E-03
(PID.TID 0000.0001) %MON dynstat_uvel_sd              =   3.1889174791358E-02
(PID.TID 0000.0001) %MON dynstat_uvel_del2            =   1.2527811419269E-02
(PID.TID 0000.0001) %MON dynstat_vvel_max             =   5.3486605133501E-03
(PID.TID 0000.0001) %MON dynstat_vvel_min             =  -1.1285048981546E-01
(PID.TID 0000.0001) %MON dynstat_vvel_mean            =  -7.6364281922551E-03
(PID.TID 0000.0001) %MON dynstat_vvel_sd              =   2.3489749904477E-02
(PID.TID 0000.0001) %MON dynstat_vvel_del2            =   6.7835750049014E-03
(PID.TID 0000.0001) %MON dynstat_wvel_max             =   3.8716893402889E-03
(PID.TID 0000.0001) %MON dynstat_wvel_min             =  -3.4585925758248E-03
(PID.TID 0000.0001) %MON dynstat_wvel_mean            =  -8.0047971290401E-20
(PID.TID 0000.0001) %MON dynstat_wvel_sd              =   1.9671387998699E-03
(PID.TID 0000.0001) %MON dynstat_wvel_del2            =   1.0881406080418E-03
(PID.TID 0000.0001) %MON dynstat_theta_max            =   2.9347523068994E+00
(PID.TID 0000.0001) %MON dynstat_theta_min            =   4.5566563397721E-01
(PID.TID 0000.0001) %MON dynstat_theta_mean           =   1.6699485277639E+00
(PID.TID 0000.0001) %MON dynstat_theta_sd             =   7.2168361059726E-01
(PID.TID 0000.0001) %MON dynstat_theta_del2           =   2.5260442674414E-02
(PID.TID 0000.0001) %MON dynstat_salt_max             =   3.5000000000000E+01
(PID.TID 0000.0001) %MON dynstat_salt_min             =   3.5000000000000E+01
(PID.TID 0000.0001) %MON dynstat_salt_mean            =   3.5000000000000E+01
(PID.TID 0000.0001) %MON dynstat_salt_sd              =   5.3456241385572E-14
(PID.TID 0000.0001) %MON dynstat_salt_del2            =   4.1448326252673E-15
(PID.TID 0000.0001) %MON dynstat_sst_max              =   2.9347523068994E+00
(PID.TID 0000.0001) %MON dynstat_sst_min              =   2.3518064835867E+00
(PID.TID 0000.0001) %MON dynstat_sst_mean             =   2.7404370324619E+00
(PID.TID 0000.0001) %MON dynstat_sst_sd               =   2.7480329648588E-01
(PID.TID 0000.0001) %MON dynstat_sst_del2             =   1.9431527443758E-01
(PID.TID 0000.0001) %MON dynstat_sss_max              =   3.5000000000000E+01
(PID.TID 0000.0001) %MON dynstat_sss_min              =   3.5000000000000E+01
(PID.TID 0000.0001) %MON dynstat_sss_mean             =   3.5000000000000E+01
(PID.TID 0000.0001) %MON dynstat_sss_sd               =   2.3920432895755E-14
(PID.TID 0000.0001) %MON dynstat_sss_del2             =   1.6579330501069E-14
(PID.TID 0000.0001) %MON extforcing_qnet_max          =   2.0000000000000E+02
(PID.TID 0000.0001) %MON extforcing_qnet_min          =   0.0000000000000E+00
(PID.TID 0000.0001) %MON extforcing_qnet_mean         =   6.6666666666667E+01
(PID.TID 0000.0001) %MON extforcing_qnet_sd           =   9.4280904158206E+01
(PID.TID 0000.0001) %MON extforcing_qnet_del2         =   6.6666666666667E+01
(PID.TID 0000.0001) %MON extforcing_qsw_max           =   0.0000000000000E+00
(PID.TID 0000.0001) %MON extforcing_qsw_min           =   0.0000000000000E+00
(PID.TID 0000.0001) %MON extforcing_qsw_mean          =   0.0000000000000E+00
(PID.TID 0000.0001) %MON extforcing_qsw_sd            =   0.0000000000000E+00
(PID.TID 0000.0001) %MON extforcing_qsw_del2          =   0.0000000000000E+00
(PID.TID 0000.0001) %MON extforcing_empmr_max         =   0.0000000000000E+00
(PID.TID 0000.0001) %MON extforcing_empmr_min         =   0.0000000000000E+00
(PID.TID 0000.0001) %MON extforcing_empmr_mean        =   0.0000000000000E+00
(PID.TID 0000.0001) %MON extforcing_empmr_sd          =   0.0000000000000E+00
(PID.TID 0000.0001) %MON extforcing_empmr_del2        =   0.0000000000000E+00
(PID.TID 0000.0001) %MON extforcing_fu_max            =   1.0000000000000E+00
(PID.TID 0000.0001) %MON extforcing_fu_min            =   0.0000000000000E+00
(PID.TID 0000.0001) %MON extforcing_fu_mean           =   6.6666666666667E-01
(PID.TID 0000.0001) %MON extforcing_fu_sd             =   4.7140452079103E-01
(PID.TID 0000.0001) %MON extforcing_fu_del2           =   3.3333333333333E-01
(PID.TID 0000.0001) %MON extforcing_fv_max            =   0.0000000000000E+00
(PID.TID 0000.0001) %MON extforcing_fv_min            =   0.0000000000000E+00
(PID.TID 0000.0001) %MON extforcing_fv_mean           =   0.0000000000000E+00
(PID.TID 0000.0001) %MON extforcing_fv_sd             =   0.0000000000000E+00
(PID.TID 0000.0001) %MON extforcing_fv_del2           =   0.0000000000000E+00
(PID.TID 0000.0001) %MON advcfl_uvel_max              =   4.8377119566115E-02
(PID.TID 0000.0001) %MON advcfl_vvel_max              =   2.7084117555710E-02
(PID.TID 0000.0001) %MON advcfl_wvel_max              =   9.2920544166933E-02
(PID.TID 0000.0001) %MON advcfl_W_hf_max              =   9.2920544166933E-02
(PID.TID 0000.0001) %MON pe_b_mean                    =   4.3032367996381E-08
(PID.TID 0000.0001) %MON ke_max                       =   1.7373262280393E-02
(PID.TID 0000.0001) %MON ke_mean                      =   8.2102794233822E-04
(PID.TID 0000.0001) %MON ke_vol                       =   7.5000000000000E+10
(PID.TID 0000.0001) %MON vort_r_min                   =  -1.7257796970387E-05
(PID.TID 0000.0001) %MON vort_r_max                   =   1.7575404754085E-05
(PID.TID 0000.0001) %MON vort_a_mean                  =   1.4000000000000E-04
(PID.TID 0000.0001) %MON vort_a_sd                    =   4.6333474850220E-06
(PID.TID 0000.0001) %MON vort_p_mean                  =   1.4000000000000E-04
(PID.TID 0000.0001) %MON vort_p_sd                    =   4.6333474850220E-06
(PID.TID 0000.0001) %MON surfExpan_theta_mean         =  -4.8921770976012E-11
(PID.TID 0000.0001) %MON surfExpan_salt_mean          =   2.5297926716424E-18
(PID.TID 0000.0001) // =======================================================
(PID.TID 0000.0001) // End MONITOR dynamic field statistics
(PID.TID 0000.0001) // =======================================================
 cg2d: Sum(rhs),rhsMax =  -1.11022302462516E-16  1.23162698596824E-01
(PID.TID 0000.0001)                    cg2d_init_res =    2.94244433380126E-03
(PID.TID 0000.0001)                       cg2d_iters =     1
(PID.TID 0000.0001)                         cg2d_res =    1.92171157313993E-16
(PID.TID 0000.0001) // =======================================================
(PID.TID 0000.0001) // Begin MONITOR dynamic field statistics
(PID.TID 0000.0001) // =======================================================
(PID.TID 0000.0001) %MON time_tsnumber                =                    14
(PID.TID 0000.0001) %MON time_secondsf                =   1.6800000000000E+04
(PID.TID 0000.0001) %MON dynstat_eta_max              =   2.2470335318580E-03
(PID.TID 0000.0001) %MON dynstat_eta_min              =  -4.1824698020344E-03
(PID.TID 0000.0001) %MON dynstat_eta_mean             =   5.8362881342570E-18
(PID.TID 0000.0001) %MON dynstat_eta_sd               =   2.9601873191933E-03
(PID.TID 0000.0001) %MON dynstat_eta_del2             =   2.0912349010172E-03
(PID.TID 0000.0001) %MON dynstat_uvel_max             =   2.0562759362707E-01
(PID.TID 0000.0001) %MON dynstat_uvel_min             =  -7.7040360850815E-02
(PID.TID 0000.0001) %MON dynstat_uvel_mean            =   3.3372658407938E-03
(PID.TID 0000.0001) %MON dynstat_uvel_sd              =   3.3136762138473E-02
(PID.TID 0000.0001) %MON dynstat_uvel_del2            =   1.3243350921588E-02
(PID.TID 0000.0001) %MON dynstat_vvel_max             =   6.1120883147521E-03
(PID.TID 0000.0001) %MON dynstat_vvel_min             =  -1.2589930918832E-01
(PID.TID 0000.0001) %MON dynstat_vvel_mean            =  -8.2513363239480E-03
(PID.TID 0000.0001) %MON dynstat_vvel_sd              =   2.5979293405927E-02
(PID.TID 0000.0001) %MON dynstat_vvel_del2            =   7.7926331999553E-03
(PID.TID 0000.0001) %MON dynstat_wvel_max             =   4.0622840055950E-03
(PID.TID 0000.0001) %MON dynstat_wvel_min             =  -3.6520567036077E-03
(PID.TID 0000.0001) %MON dynstat_wvel_mean            =  -1.8156312692624E-19
(PID.TID 0000.0001) %MON dynstat_wvel_sd              =   2.0648042934621E-03
(PID.TID 0000.0001) %MON dynstat_wvel_del2            =   1.1372621417249E-03
(PID.TID 0000.0001) %MON dynstat_theta_max            =   2.9347516806418E+00
(PID.TID 0000.0001) %MON dynstat_theta_min            =   4.5566626023482E-01
(PID.TID 0000.0001) %MON dynstat_theta_mean           =   1.6699284937120E+00
(PID.TID 0000.0001) %MON dynstat_theta_sd             =   7.2166299342485E-01
(PID.TID 0000.0001) %MON dynstat_theta_del2           =   2.5280476726292E-02
(PID.TID 0000.0001) %MON dynstat_salt_max             =   3.5000000000000E+01
(PID.TID 0000.0001) %MON dynstat_salt_min             =   3.5000000000000E+01
(PID.TID 0000.0001) %MON dynstat_salt_mean            =   3.5000000000000E+01
(PID.TID 0000.0001) %MON dynstat_salt_sd              =   6.0039810063806E-14
(PID.TID 0000.0001) %MON dynstat_salt_del2            =   4.5001039931473E-15
(PID.TID 0000.0001) %MON dynstat_sst_max              =   2.9347516806418E+00
(PID.TID 0000.0001) %MON dynstat_sst_min              =   2.3528346552596E+00
(PID.TID 0000.0001) %MON dynstat_sst_mean             =   2.7407793388478E+00
(PID.TID 0000.0001) %MON dynstat_sst_sd               =   2.7431831649046E-01
(PID.TID 0000.0001) %MON dynstat_sst_del2             =   1.9397234179408E-01
(PID.TID 0000.0001) %MON dynstat_sss_max              =   3.5000000000000E+01
(PID.TID 0000.0001) %MON dynstat_sss_min              =   3.5000000000000E+01
(PID.TID 0000.0001) %MON dynstat_sss_mean             =   3.5000000000000E+01
(PID.TID 0000.0001) %MON dynstat_sss_sd               =   2.6900713814372E-14
(PID.TID 0000.0001) %MON dynstat_sss_del2             =   1.8947806286936E-14
(PID.TID 0000.0001) %MON extforcing_qnet_max          =   2.0000000000000E+02
(PID.TID 0000.0001) %MON extforcing_qnet_min          =   0.0000000000000E+00
(PID.TID 0000.0001) %MON extforcing_qnet_mean         =   6.6666666666667E+01
(PID.TID 0000.0001) %MON extforcing_qnet_sd           =   9.4280904158206E+01
(PID.TID 0000.0001) %MON extforcing_qnet_del2         =   6.6666666666667E+01
(PID.TID 0000.0001) %MON extforcing_qsw_max           =   0.0000000000000E+00
(PID.TID 0000.0001) %MON extforcing_qsw_min           =   0.0000000000000E+00
(PID.TID 0000.0001) %MON extforcing_qsw_mean          =   0.0000000000000E+00
(PID.TID 0000.0001) %MON extforcing_qsw_sd            =   0.0000000000000E+00
(PID.TID 0000.0001) %MON extforcing_qsw_del2          =   0.0000000000000E+00
(PID.TID 0000.0001) %MON extforcing_empmr_max         =   0.0000000000000E+00
(PID.TID 0000.0001) %MON extforcing_empmr_min         =   0.0000000000000E+00
(PID.TID 0000.0001) %MON extforcing_empmr_mean        =   0.0000000000000E+00
(PID.TID 0000.0001) %MON extforcing_empmr_sd          =   0.0000000000000E+00
(PID.TID 0000.0001) %MON extforcing_empmr_del2        =   0.0000000000000E+00
(PID.TID 0000.0001) %MON extforcing_fu_max            =   1.0000000000000E+00
(PID.TID 0000.0001) %MON extforcing_fu_min            =   0.0000000000000E+00
(PID.TID 0000.0001) %MON extforcing_fu_mean           =   6.6666666666667E-01
(PID.TID 0000.0001) %MON extforcing_fu_sd             =   4.7140452079103E-01
(PID.TID 0000.0001) %MON extforcing_fu_del2           =   3.3333333333333E-01
(PID.TID 0000.0001) %MON extforcing_fv_max            =   0.0000000000000E+00
(PID.TID 0000.0001) %MON extforcing_fv_min            =   0.0000000000000E+00
(PID.TID 0000.0001) %MON extforcing_fv_mean           =   0.0000000000000E+00
(PID.TID 0000.0001) %MON extforcing_fv_sd             =   0.0000000000000E+00
(PID.TID 0000.0001) %MON extforcing_fv_del2           =   0.0000000000000E+00
(PID.TID 0000.0001) %MON advcfl_uvel_max              =   4.9350622470498E-02
(PID.TID 0000.0001) %MON advcfl_vvel_max              =   3.0215834205197E-02
(PID.TID 0000.0001) %MON advcfl_wvel_max              =   9.7494816134280E-02
(PID.TID 0000.0001) %MON advcfl_W_hf_max              =   9.7494816134280E-02
(PID.TID 0000.0001) %MON pe_b_mean                    =   4.2981087471916E-08
(PID.TID 0000.0001) %MON ke_max                       =   1.9355675083997E-02
(PID.TID 0000.0001) %MON ke_mean                      =   9.2609529265801E-04
(PID.TID 0000.0001) %MON ke_vol                       =   7.5000000000000E+10
(PID.TID 0000.0001) %MON vort_r_min                   =  -1.9378778435866E-05
(PID.TID 0000.0001) %MON vort_r_max                   =   2.0390572135963E-05
(PID.TID 0000.0001) %MON vort_a_mean                  =   1.4000000000000E-04
(PID.TID 0000.0001) %MON vort_a_sd                    =   5.3223037645210E-06
(PID.TID 0000.0001) %MON vort_p_mean                  =   1.4000000000000E-04
(PID.TID 0000.0001) %MON vort_p_sd                    =   5.3223037645210E-06
(PID.TID 0000.0001) %MON surfExpan_theta_mean         =  -3.3372915326315E-10
(PID.TID 0000.0001) %MON surfExpan_salt_mean          =  -2.0238471639307E-17
(PID.TID 0000.0001) // =======================================================
(PID.TID 0000.0001) // End MONITOR dynamic field statistics
(PID.TID 0000.0001) // =======================================================
 cg2d: Sum(rhs),rhsMax =  -3.33066907387547E-16  1.23047072452872E-01
(PID.TID 0000.0001)                    cg2d_init_res =    3.66640874313944E-03
(PID.TID 0000.0001)                       cg2d_iters =     1
(PID.TID 0000.0001)                         cg2d_res =    1.92484485450618E-16
(PID.TID 0000.0001) // =======================================================
(PID.TID 0000.0001) // Begin MONITOR dynamic field statistics
(PID.TID 0000.0001) // =======================================================
(PID.TID 0000.0001) %MON time_tsnumber                =                    15
(PID.TID 0000.0001) %MON time_secondsf                =   1.8000000000000E+04
(PID.TID 0000.0001) %MON dynstat_eta_max              =   2.2347847530779E-03
(PID.TID 0000.0001) %MON dynstat_eta_min              =  -4.1785432653401E-03
(PID.TID 0000.0001) %MON dynstat_eta_mean             =   6.4571698506673E-18
(PID.TID 0000.0001) %MON dynstat_eta_sd               =   2.9570640770253E-03
(PID.TID 0000.0001) %MON dynstat_eta_del2             =   2.0892716326701E-03
(PID.TID 0000.0001) %MON dynstat_uvel_max             =   2.0796372194415E-01
(PID.TID 0000.0001) %MON dynstat_uvel_min             =  -9.0663205711764E-02
(PID.TID 0000.0001) %MON dynstat_uvel_mean            =   2.6985156557269E-03
(PID.TID 0000.0001) %MON dynstat_uvel_sd              =   3.4261876013441E-02
(PID.TID 0000.0001) %MON dynstat_uvel_del2            =   1.3890754690168E-02
(PID.TID 0000.0001) %MON dynstat_vvel_max             =   9.4102662887961E-03
(PID.TID 0000.0001) %MON dynstat_vvel_min             =  -1.3852028217446E-01
(PID.TID 0000.0001) %MON dynstat_vvel_mean            =  -8.7655103166218E-03
(PID.TID 0000.0001) %MON dynstat_vvel_sd              =   2.8371961866009E-02
(PID.TID 0000.0001) %MON dynstat_vvel_del2            =   8.8377127375180E-03
(PID.TID 0000.0001) %MON dynstat_wvel_max             =   4.2251626720107E-03
(PID.TID 0000.0001) %MON dynstat_wvel_min             =  -3.8270545545094E-03
(PID.TID 0000.0001) %MON dynstat_wvel_mean            =  -1.4952403835507E-19
(PID.TID 0000.0001) %MON dynstat_wvel_sd              =   2.1491109560485E-03
(PID.TID 0000.0001) %MON dynstat_wvel_del2            =   1.1772113267926E-03
(PID.TID 0000.0001) %MON dynstat_theta_max            =   2.9347510543872E+00
(PID.TID 0000.0001) %MON dynstat_theta_min            =   4.5566688648943E-01
(PID.TID 0000.0001) %MON dynstat_theta_mean           =   1.6699084596602E+00
(PID.TID 0000.0001) %MON dynstat_theta_sd             =   7.2164263210925E-01
(PID.TID 0000.0001) %MON dynstat_theta_del2           =   2.5300510778170E-02
(PID.TID 0000.0001) %MON dynstat_salt_max             =   3.5000000000000E+01
(PID.TID 0000.0001) %MON dynstat_salt_min             =   3.5000000000000E+01
(PID.TID 0000.0001) %MON dynstat_salt_mean            =   3.5000000000000E+01
(PID.TID 0000.0001) %MON dynstat_salt_sd              =   3.2882599462678E-14
(PID.TID 0000.0001) %MON dynstat_salt_del2            =   5.2106467289074E-15
(PID.TID 0000.0001) %MON dynstat_sst_max              =   2.9347510543872E+00
(PID.TID 0000.0001) %MON dynstat_sst_min              =   2.3536407470467E+00
(PID.TID 0000.0001) %MON dynstat_sst_mean             =   2.7410476186071E+00
(PID.TID 0000.0001) %MON dynstat_sst_sd               =   2.7393802595858E-01
(PID.TID 0000.0001) %MON dynstat_sst_del2             =   1.9370343578017E-01
(PID.TID 0000.0001) %MON dynstat_sss_max              =   3.5000000000000E+01
(PID.TID 0000.0001) %MON dynstat_sss_min              =   3.5000000000000E+01
(PID.TID 0000.0001) %MON dynstat_sss_mean             =   3.5000000000000E+01
(PID.TID 0000.0001) %MON dynstat_sss_sd               =   3.0971839802452E-14
(PID.TID 0000.0001) %MON dynstat_sss_del2             =   2.1316282072803E-14
(PID.TID 0000.0001) %MON extforcing_qnet_max          =   2.0000000000000E+02
(PID.TID 0000.0001) %MON extforcing_qnet_min          =   0.0000000000000E+00
(PID.TID 0000.0001) %MON extforcing_qnet_mean         =   6.6666666666667E+01
(PID.TID 0000.0001) %MON extforcing_qnet_sd           =   9.4280904158206E+01
(PID.TID 0000.0001) %MON extforcing_qnet_del2         =   6.6666666666667E+01
(PID.TID 0000.0001) %MON extforcing_qsw_max           =   0.0000000000000E+00
(PID.TID 0000.0001) %MON extforcing_qsw_min           =   0.0000000000000E+00
(PID.TID 0000.0001) %MON extforcing_qsw_mean          =   0.0000000000000E+00
(PID.TID 0000.0001) %MON extforcing_qsw_sd            =   0.0000000000000E+00
(PID.TID 0000.0001) %MON extforcing_qsw_del2          =   0.0000000000000E+00
(PID.TID 0000.0001) %MON extforcing_empmr_max         =   0.0000000000000E+00
(PID.TID 0000.0001) %MON extforcing_empmr_min         =   0.0000000000000E+00
(PID.TID 0000.0001) %MON extforcing_empmr_mean        =   0.0000000000000E+00
(PID.TID 0000.0001) %MON extforcing_empmr_sd          =   0.0000000000000E+00
(PID.TID 0000.0001) %MON extforcing_empmr_del2        =   0.0000000000000E+00
(PID.TID 0000.0001) %MON extforcing_fu_max            =   1.0000000000000E+00
(PID.TID 0000.0001) %MON extforcing_fu_min            =   0.0000000000000E+00
(PID.TID 0000.0001) %MON extforcing_fu_mean           =   6.6666666666667E-01
(PID.TID 0000.0001) %MON extforcing_fu_sd             =   4.7140452079103E-01
(PID.TID 0000.0001) %MON extforcing_fu_del2           =   3.3333333333333E-01
(PID.TID 0000.0001) %MON extforcing_fv_max            =   0.0000000000000E+00
(PID.TID 0000.0001) %MON extforcing_fv_min            =   0.0000000000000E+00
(PID.TID 0000.0001) %MON extforcing_fv_mean           =   0.0000000000000E+00
(PID.TID 0000.0001) %MON extforcing_fv_sd             =   0.0000000000000E+00
(PID.TID 0000.0001) %MON extforcing_fv_del2           =   0.0000000000000E+00
(PID.TID 0000.0001) %MON advcfl_uvel_max              =   4.9911293266595E-02
(PID.TID 0000.0001) %MON advcfl_vvel_max              =   3.3244867721871E-02
(PID.TID 0000.0001) %MON advcfl_wvel_max              =   1.0140390412826E-01
(PID.TID 0000.0001) %MON advcfl_W_hf_max              =   1.0140390412826E-01
(PID.TID 0000.0001) %MON pe_b_mean                    =   4.2890438122383E-08
(PID.TID 0000.0001) %MON ke_max                       =   2.1229097130457E-02
(PID.TID 0000.0001) %MON ke_mean                      =   1.0314802629708E-03
(PID.TID 0000.0001) %MON ke_vol                       =   7.5000000000000E+10
(PID.TID 0000.0001) %MON vort_r_min                   =  -2.1494437667951E-05
(PID.TID 0000.0001) %MON vort_r_max                   =   2.3334363726188E-05
(PID.TID 0000.0001) %MON vort_a_mean                  =   1.4000000000000E-04
(PID.TID 0000.0001) %MON vort_a_sd                    =   6.0409472347941E-06
(PID.TID 0000.0001) %MON vort_p_mean                  =   1.4000000000000E-04
(PID.TID 0000.0001) %MON vort_p_sd                    =   6.0409472347941E-06
(PID.TID 0000.0001) %MON surfExpan_theta_mean         =  -6.3381970813699E-10
(PID.TID 0000.0001) %MON surfExpan_salt_mean          =  -1.5178898138402E-17
(PID.TID 0000.0001) // =======================================================
(PID.TID 0000.0001) // End MONITOR dynamic field statistics
(PID.TID 0000.0001) // =======================================================
 cg2d: Sum(rhs),rhsMax =   2.22044604925031E-16  1.22877467042400E-01
(PID.TID 0000.0001)                    cg2d_init_res =    4.36882545477420E-03
(PID.TID 0000.0001)                       cg2d_iters =     1
(PID.TID 0000.0001)                         cg2d_res =    1.59996504765507E-16
(PID.TID 0000.0001) // =======================================================
(PID.TID 0000.0001) // Begin MONITOR dynamic field statistics
(PID.TID 0000.0001) // =======================================================
(PID.TID 0000.0001) %MON time_tsnumber                =                    16
(PID.TID 0000.0001) %MON time_secondsf                =   1.9200000000000E+04
(PID.TID 0000.0001) %MON dynstat_eta_max              =   2.2200184174900E-03
(PID.TID 0000.0001) %MON dynstat_eta_min              =  -4.1727836521160E-03
(PID.TID 0000.0001) %MON dynstat_eta_mean             =   5.8362881342570E-18
(PID.TID 0000.0001) %MON dynstat_eta_sd               =   2.9526201495691E-03
(PID.TID 0000.0001) %MON dynstat_eta_del2             =   2.0863918260580E-03
(PID.TID 0000.0001) %MON dynstat_uvel_max             =   2.0875197382593E-01
(PID.TID 0000.0001) %MON dynstat_uvel_min             =  -1.0468523151622E-01
(PID.TID 0000.0001) %MON dynstat_uvel_mean            =   1.9820149984583E-03
(PID.TID 0000.0001) %MON dynstat_uvel_sd              =   3.5289837280611E-02
(PID.TID 0000.0001) %MON dynstat_uvel_del2            =   1.4467670018992E-02
(PID.TID 0000.0001) %MON dynstat_vvel_max             =   1.3575532462521E-02
(PID.TID 0000.0001) %MON dynstat_vvel_min             =  -1.5049671821205E-01
(PID.TID 0000.0001) %MON dynstat_vvel_mean            =  -9.1641323548930E-03
(PID.TID 0000.0001) %MON dynstat_vvel_sd              =   3.0640742958895E-02
(PID.TID 0000.0001) %MON dynstat_vvel_del2            =   9.9117871718149E-03
(PID.TID 0000.0001) %MON dynstat_wvel_max             =   4.3582997593008E-03
(PID.TID 0000.0001) %MON dynstat_wvel_min             =  -3.9842241791286E-03
(PID.TID 0000.0001) %MON dynstat_wvel_mean            =  -7.8679842508247E-20
(PID.TID 0000.0001) %MON dynstat_wvel_sd              =   2.2199058601898E-03
(PID.TID 0000.0001) %MON dynstat_wvel_del2            =   1.2075161829509E-03
(PID.TID 0000.0001) %MON dynstat_theta_max            =   2.9347504281356E+00
(PID.TID 0000.0001) %MON dynstat_theta_min            =   4.5566751274102E-01
(PID.TID 0000.0001) %MON dynstat_theta_mean           =   1.6698884256083E+00
(PID.TID 0000.0001) %MON dynstat_theta_sd             =   7.2162245200874E-01
(PID.TID 0000.0001) %MON dynstat_theta_del2           =   2.5320544830048E-02
(PID.TID 0000.0001) %MON dynstat_salt_max             =   3.5000000000000E+01
(PID.TID 0000.0001) %MON dynstat_salt_min             =   3.5000000000000E+01
(PID.TID 0000.0001) %MON dynstat_salt_mean            =   3.5000000000000E+01
(PID.TID 0000.0001) %MON dynstat_salt_sd              =   3.2431690370603E-14
(PID.TID 0000.0001) %MON dynstat_salt_del2            =   5.9211894646675E-15
(PID.TID 0000.0001) %MON dynstat_sst_max              =   2.9347504281356E+00
(PID.TID 0000.0001) %MON dynstat_sst_min              =   2.3542744497168E+00
(PID.TID 0000.0001) %MON dynstat_sst_mean             =   2.7412584353294E+00
(PID.TID 0000.0001) %MON dynstat_sst_sd               =   2.7363900043724E-01
(PID.TID 0000.0001) %MON dynstat_sst_del2             =   1.9349199280628E-01
(PID.TID 0000.0001) %MON dynstat_sss_max              =   3.5000000000000E+01
(PID.TID 0000.0001) %MON dynstat_sss_min              =   3.5000000000000E+01
(PID.TID 0000.0001) %MON dynstat_sss_mean             =   3.5000000000000E+01
(PID.TID 0000.0001) %MON dynstat_sss_sd               =   3.3578939637754E-14
(PID.TID 0000.0001) %MON dynstat_sss_del2             =   2.3684757858670E-14
(PID.TID 0000.0001) %MON extforcing_qnet_max          =   2.0000000000000E+02
(PID.TID 0000.0001) %MON extforcing_qnet_min          =   0.0000000000000E+00
(PID.TID 0000.0001) %MON extforcing_qnet_mean         =   6.6666666666667E+01
(PID.TID 0000.0001) %MON extforcing_qnet_sd           =   9.4280904158206E+01
(PID.TID 0000.0001) %MON extforcing_qnet_del2         =   6.6666666666667E+01
(PID.TID 0000.0001) %MON extforcing_qsw_max           =   0.0000000000000E+00
(PID.TID 0000.0001) %MON extforcing_qsw_min           =   0.0000000000000E+00
(PID.TID 0000.0001) %MON extforcing_qsw_mean          =   0.0000000000000E+00
(PID.TID 0000.0001) %MON extforcing_qsw_sd            =   0.0000000000000E+00
(PID.TID 0000.0001) %MON extforcing_qsw_del2          =   0.0000000000000E+00
(PID.TID 0000.0001) %MON extforcing_empmr_max         =   0.0000000000000E+00
(PID.TID 0000.0001) %MON extforcing_empmr_min         =   0.0000000000000E+00
(PID.TID 0000.0001) %MON extforcing_empmr_mean        =   0.0000000000000E+00
(PID.TID 0000.0001) %MON extforcing_empmr_sd          =   0.0000000000000E+00
(PID.TID 0000.0001) %MON extforcing_empmr_del2        =   0.0000000000000E+00
(PID.TID 0000.0001) %MON extforcing_fu_max            =   1.0000000000000E+00
(PID.TID 0000.0001) %MON extforcing_fu_min            =   0.0000000000000E+00
(PID.TID 0000.0001) %MON extforcing_fu_mean           =   6.6666666666667E-01
(PID.TID 0000.0001) %MON extforcing_fu_sd             =   4.7140452079103E-01
(PID.TID 0000.0001) %MON extforcing_fu_del2           =   3.3333333333333E-01
(PID.TID 0000.0001) %MON extforcing_fv_max            =   0.0000000000000E+00
(PID.TID 0000.0001) %MON extforcing_fv_min            =   0.0000000000000E+00
(PID.TID 0000.0001) %MON extforcing_fv_mean           =   0.0000000000000E+00
(PID.TID 0000.0001) %MON extforcing_fv_sd             =   0.0000000000000E+00
(PID.TID 0000.0001) %MON extforcing_fv_del2           =   0.0000000000000E+00
(PID.TID 0000.0001) %MON advcfl_uvel_max              =   5.0100473718224E-02
(PID.TID 0000.0001) %MON advcfl_vvel_max              =   3.6119212370892E-02
(PID.TID 0000.0001) %MON advcfl_wvel_max              =   1.0459919422322E-01
(PID.TID 0000.0001) %MON advcfl_W_hf_max              =   1.0459919422322E-01
(PID.TID 0000.0001) %MON pe_b_mean                    =   4.2761621992182E-08
(PID.TID 0000.0001) %MON ke_max                       =   2.2956424430521E-02
(PID.TID 0000.0001) %MON ke_mean                      =   1.1360687248186E-03
(PID.TID 0000.0001) %MON ke_vol                       =   7.5000000000000E+10
(PID.TID 0000.0001) %MON vort_r_min                   =  -2.3593463212848E-05
(PID.TID 0000.0001) %MON vort_r_max                   =   2.6383719192629E-05
(PID.TID 0000.0001) %MON vort_a_mean                  =   1.4000000000000E-04
(PID.TID 0000.0001) %MON vort_a_sd                    =   6.7840466288689E-06
(PID.TID 0000.0001) %MON vort_p_mean                  =   1.4000000000000E-04
(PID.TID 0000.0001) %MON vort_p_sd                    =   6.7840466288689E-06
(PID.TID 0000.0001) %MON surfExpan_theta_mean         =  -9.2869920124603E-10
(PID.TID 0000.0001) %MON surfExpan_salt_mean          =  -1.0119336479875E-17
(PID.TID 0000.0001) // =======================================================
(PID.TID 0000.0001) // End MONITOR dynamic field statistics
(PID.TID 0000.0001) // =======================================================
 cg2d: Sum(rhs),rhsMax =  -4.44089209850063E-16  1.22658363756087E-01
(PID.TID 0000.0001)                    cg2d_init_res =    5.00327303271248E-03
(PID.TID 0000.0001)                       cg2d_iters =     1
(PID.TID 0000.0001)                         cg2d_res =    4.16141595809815E-16
(PID.TID 0000.0001) // =======================================================
(PID.TID 0000.0001) // Begin MONITOR dynamic field statistics
(PID.TID 0000.0001) // =======================================================
(PID.TID 0000.0001) %MON time_tsnumber                =                    17
(PID.TID 0000.0001) %MON time_secondsf                =   2.0400000000000E+04
(PID.TID 0000.0001) %MON dynstat_eta_max              =   2.2030452694063E-03
(PID.TID 0000.0001) %MON dynstat_eta_min              =  -4.1653431454612E-03
(PID.TID 0000.0001) %MON dynstat_eta_mean             =   6.9538752237956E-18
(PID.TID 0000.0001) %MON dynstat_eta_sd               =   2.9469817855372E-03
(PID.TID 0000.0001) %MON dynstat_eta_del2             =   2.0826715727306E-03
(PID.TID 0000.0001) %MON dynstat_uvel_max             =   2.0819369238755E-01
(PID.TID 0000.0001) %MON dynstat_uvel_min             =  -1.1884930653650E-01
(PID.TID 0000.0001) %MON dynstat_uvel_mean            =   1.2084461866097E-03
(PID.TID 0000.0001) %MON dynstat_uvel_sd              =   3.6244329906400E-02
(PID.TID 0000.0001) %MON dynstat_uvel_del2            =   1.4972495968961E-02
(PID.TID 0000.0001) %MON dynstat_vvel_max             =   1.8435696254578E-02
(PID.TID 0000.0001) %MON dynstat_vvel_min             =  -1.6163759705634E-01
(PID.TID 0000.0001) %MON dynstat_vvel_mean            =  -9.4357204709517E-03
(PID.TID 0000.0001) %MON dynstat_vvel_sd              =   3.2766566912778E-02
(PID.TID 0000.0001) %MON dynstat_vvel_del2            =   1.1008160466026E-02
(PID.TID 0000.0001) %MON dynstat_wvel_max             =   4.4601035706267E-03
(PID.TID 0000.0001) %MON dynstat_wvel_min             =  -4.1242293123143E-03
(PID.TID 0000.0001) %MON dynstat_wvel_mean            =   6.3381675216887E-20
(PID.TID 0000.0001) %MON dynstat_wvel_sd              =   2.2772720612891E-03
(PID.TID 0000.0001) %MON dynstat_wvel_del2            =   1.2390315671091E-03
(PID.TID 0000.0001) %MON dynstat_theta_max            =   2.9347498018870E+00
(PID.TID 0000.0001) %MON dynstat_theta_min            =   4.5566813898962E-01
(PID.TID 0000.0001) %MON dynstat_theta_mean           =   1.6698683915564E+00
(PID.TID 0000.0001) %MON dynstat_theta_sd             =   7.2160240375522E-01
(PID.TID 0000.0001) %MON dynstat_theta_del2           =   2.5340578881926E-02
(PID.TID 0000.0001) %MON dynstat_salt_max             =   3.5000000000000E+01
(PID.TID 0000.0001) %MON dynstat_salt_min             =   3.5000000000000E+01
(PID.TID 0000.0001) %MON dynstat_salt_mean            =   3.5000000000000E+01
(PID.TID 0000.0001) %MON dynstat_salt_sd              =   3.4990171833002E-14
(PID.TID 0000.0001) %MON dynstat_salt_del2            =   6.6317322004276E-15
(PID.TID 0000.0001) %MON dynstat_sst_max              =   2.9347498018870E+00
(PID.TID 0000.0001) %MON dynstat_sst_min              =   2.3547729274238E+00
(PID.TID 0000.0001) %MON dynstat_sst_mean             =   2.7414241770660E+00
(PID.TID 0000.0001) %MON dynstat_sst_sd               =   2.7340372057621E-01
(PID.TID 0000.0001) %MON dynstat_sst_del2             =   1.9332562482107E-01
(PID.TID 0000.0001) %MON dynstat_sss_max              =   3.5000000000000E+01
(PID.TID 0000.0001) %MON dynstat_sss_min              =   3.5000000000000E+01
(PID.TID 0000.0001) %MON dynstat_sss_mean             =   3.5000000000000E+01
(PID.TID 0000.0001) %MON dynstat_sss_sd               =   3.7148091160470E-14
(PID.TID 0000.0001) %MON dynstat_sss_del2             =   2.6053233644537E-14
(PID.TID 0000.0001) %MON extforcing_qnet_max          =   2.0000000000000E+02
(PID.TID 0000.0001) %MON extforcing_qnet_min          =   0.0000000000000E+00
(PID.TID 0000.0001) %MON extforcing_qnet_mean         =   6.6666666666667E+01
(PID.TID 0000.0001) %MON extforcing_qnet_sd           =   9.4280904158206E+01
(PID.TID 0000.0001) %MON extforcing_qnet_del2         =   6.6666666666667E+01
(PID.TID 0000.0001) %MON extforcing_qsw_max           =   0.0000000000000E+00
(PID.TID 0000.0001) %MON extforcing_qsw_min           =   0.0000000000000E+00
(PID.TID 0000.0001) %MON extforcing_qsw_mean          =   0.0000000000000E+00
(PID.TID 0000.0001) %MON extforcing_qsw_sd            =   0.0000000000000E+00
(PID.TID 0000.0001) %MON extforcing_qsw_del2          =   0.0000000000000E+00
(PID.TID 0000.0001) %MON extforcing_empmr_max         =   0.0000000000000E+00
(PID.TID 0000.0001) %MON extforcing_empmr_min         =   0.0000000000000E+00
(PID.TID 0000.0001) %MON extforcing_empmr_mean        =   0.0000000000000E+00
(PID.TID 0000.0001) %MON extforcing_empmr_sd          =   0.0000000000000E+00
(PID.TID 0000.0001) %MON extforcing_empmr_del2        =   0.0000000000000E+00
(PID.TID 0000.0001) %MON extforcing_fu_max            =   1.0000000000000E+00
(PID.TID 0000.0001) %MON extforcing_fu_min            =   0.0000000000000E+00
(PID.TID 0000.0001) %MON extforcing_fu_mean           =   6.6666666666667E-01
(PID.TID 0000.0001) %MON extforcing_fu_sd             =   4.7140452079103E-01
(PID.TID 0000.0001) %MON extforcing_fu_del2           =   3.3333333333333E-01
(PID.TID 0000.0001) %MON extforcing_fv_max            =   0.0000000000000E+00
(PID.TID 0000.0001) %MON extforcing_fv_min            =   0.0000000000000E+00
(PID.TID 0000.0001) %MON extforcing_fv_mean           =   0.0000000000000E+00
(PID.TID 0000.0001) %MON extforcing_fv_sd             =   0.0000000000000E+00
(PID.TID 0000.0001) %MON extforcing_fv_del2           =   0.0000000000000E+00
(PID.TID 0000.0001) %MON advcfl_uvel_max              =   4.9966486173012E-02
(PID.TID 0000.0001) %MON advcfl_vvel_max              =   3.8793023293522E-02
(PID.TID 0000.0001) %MON advcfl_wvel_max              =   1.0704248569504E-01
(PID.TID 0000.0001) %MON advcfl_W_hf_max              =   1.0704248569504E-01
(PID.TID 0000.0001) %MON pe_b_mean                    =   4.2598461565232E-08
(PID.TID 0000.0001) %MON ke_max                       =   2.4507207458142E-02
(PID.TID 0000.0001) %MON ke_mean                      =   1.2388962603027E-03
(PID.TID 0000.0001) %MON ke_vol                       =   7.5000000000000E+10
(PID.TID 0000.0001) %MON vort_r_min                   =  -2.5670608271485E-05
(PID.TID 0000.0001) %MON vort_r_max                   =   2.9516885217440E-05
(PID.TID 0000.0001) %MON vort_a_mean                  =   1.4000000000000E-04
(PID.TID 0000.0001) %MON vort_a_sd                    =   7.5462199350300E-06
(PID.TID 0000.0001) %MON vort_p_mean                  =   1.4000000000000E-04
(PID.TID 0000.0001) %MON vort_p_sd                    =   7.5462199350300E-06
(PID.TID 0000.0001) %MON surfExpan_theta_mean         =  -1.1987004996699E-09
(PID.TID 0000.0001) %MON surfExpan_salt_mean          =  -1.5178992877433E-17
(PID.TID 0000.0001) // =======================================================
(PID.TID 0000.0001) // End MONITOR dynamic field statistics
(PID.TID 0000.0001) // =======================================================
 cg2d: Sum(rhs),rhsMax =   1.11022302462516E-16  1.22397499113462E-01
(PID.TID 0000.0001)                    cg2d_init_res =    5.53114030694227E-03
(PID.TID 0000.0001)                       cg2d_iters =     1
(PID.TID 0000.0001)                         cg2d_res =    9.59062469097516E-17
(PID.TID 0000.0001) // =======================================================
(PID.TID 0000.0001) // Begin MONITOR dynamic field statistics
(PID.TID 0000.0001) // =======================================================
(PID.TID 0000.0001) %MON time_tsnumber                =                    18
(PID.TID 0000.0001) %MON time_secondsf                =   2.1600000000000E+04
(PID.TID 0000.0001) %MON dynstat_eta_max              =   2.1842836177041E-03
(PID.TID 0000.0001) %MON dynstat_eta_min              =  -4.1564844690711E-03
(PID.TID 0000.0001) %MON dynstat_eta_mean             =   6.8296988805135E-18
(PID.TID 0000.0001) %MON dynstat_eta_sd               =   2.9403533949925E-03
(PID.TID 0000.0001) %MON dynstat_eta_del2             =   2.0782422345355E-03
(PID.TID 0000.0001) %MON dynstat_uvel_max             =   2.0650801487633E-01
(PID.TID 0000.0001) %MON dynstat_uvel_min             =  -1.3288953590632E-01
(PID.TID 0000.0001) %MON dynstat_uvel_mean            =   4.0013470137987E-04
(PID.TID 0000.0001) %MON dynstat_uvel_sd              =   3.7144841476226E-02
(PID.TID 0000.0001) %MON dynstat_uvel_del2            =   1.5404118156976E-02
(PID.TID 0000.0001) %MON dynstat_vvel_max             =   2.3997788096001E-02
(PID.TID 0000.0001) %MON dynstat_vvel_min             =  -1.7178254406979E-01
(PID.TID 0000.0001) %MON dynstat_vvel_mean            =  -9.5724592745747E-03
(PID.TID 0000.0001) %MON dynstat_vvel_sd              =   3.4738938202318E-02
(PID.TID 0000.0001) %MON dynstat_vvel_del2            =   1.2120504856592E-02
(PID.TID 0000.0001) %MON dynstat_wvel_max             =   4.5294174803506E-03
(PID.TID 0000.0001) %MON dynstat_wvel_min             =  -4.2476400681766E-03
(PID.TID 0000.0001) %MON dynstat_wvel_mean            =  -1.0653991952666E-19
(PID.TID 0000.0001) %MON dynstat_wvel_sd              =   2.3215124561431E-03
(PID.TID 0000.0001) %MON dynstat_wvel_del2            =   1.2734524128759E-03
(PID.TID 0000.0001) %MON dynstat_theta_max            =   2.9347491756415E+00
(PID.TID 0000.0001) %MON dynstat_theta_min            =   4.5566876523520E-01
(PID.TID 0000.0001) %MON dynstat_theta_mean           =   1.6698483575045E+00
(PID.TID 0000.0001) %MON dynstat_theta_sd             =   7.2158245388384E-01
(PID.TID 0000.0001) %MON dynstat_theta_del2           =   2.5360612933804E-02
(PID.TID 0000.0001) %MON dynstat_salt_max             =   3.5000000000000E+01
(PID.TID 0000.0001) %MON dynstat_salt_min             =   3.5000000000000E+01
(PID.TID 0000.0001) %MON dynstat_salt_mean            =   3.5000000000000E+01
(PID.TID 0000.0001) %MON dynstat_salt_sd              =   3.5158106430158E-14
(PID.TID 0000.0001) %MON dynstat_salt_del2            =   7.2238511468944E-15
(PID.TID 0000.0001) %MON dynstat_sst_max              =   2.9347491756415E+00
(PID.TID 0000.0001) %MON dynstat_sst_min              =   2.3551643640849E+00
(PID.TID 0000.0001) %MON dynstat_sst_mean             =   2.7415542384559E+00
(PID.TID 0000.0001) %MON dynstat_sst_sd               =   2.7321890034957E-01
(PID.TID 0000.0001) %MON dynstat_sst_del2             =   1.9319493718551E-01
(PID.TID 0000.0001) %MON dynstat_sss_max              =   3.5000000000000E+01
(PID.TID 0000.0001) %MON dynstat_sss_min              =   3.5000000000000E+01
(PID.TID 0000.0001) %MON dynstat_sss_mean             =   3.5000000000000E+01
(PID.TID 0000.0001) %MON dynstat_sss_sd               =   4.0194366942305E-14
(PID.TID 0000.0001) %MON dynstat_sss_del2             =   2.8421709430404E-14
(PID.TID 0000.0001) %MON extforcing_qnet_max          =   2.0000000000000E+02
(PID.TID 0000.0001) %MON extforcing_qnet_min          =   0.0000000000000E+00
(PID.TID 0000.0001) %MON extforcing_qnet_mean         =   6.6666666666667E+01
(PID.TID 0000.0001) %MON extforcing_qnet_sd           =   9.4280904158206E+01
(PID.TID 0000.0001) %MON extforcing_qnet_del2         =   6.6666666666667E+01
(PID.TID 0000.0001) %MON extforcing_qsw_max           =   0.0000000000000E+00
(PID.TID 0000.0001) %MON extforcing_qsw_min           =   0.0000000000000E+00
(PID.TID 0000.0001) %MON extforcing_qsw_mean          =   0.0000000000000E+00
(PID.TID 0000.0001) %MON extforcing_qsw_sd            =   0.0000000000000E+00
(PID.TID 0000.0001) %MON extforcing_qsw_del2          =   0.0000000000000E+00
(PID.TID 0000.0001) %MON extforcing_empmr_max         =   0.0000000000000E+00
(PID.TID 0000.0001) %MON extforcing_empmr_min         =   0.0000000000000E+00
(PID.TID 0000.0001) %MON extforcing_empmr_mean        =   0.0000000000000E+00
(PID.TID 0000.0001) %MON extforcing_empmr_sd          =   0.0000000000000E+00
(PID.TID 0000.0001) %MON extforcing_empmr_del2        =   0.0000000000000E+00
(PID.TID 0000.0001) %MON extforcing_fu_max            =   1.0000000000000E+00
(PID.TID 0000.0001) %MON extforcing_fu_min            =   0.0000000000000E+00
(PID.TID 0000.0001) %MON extforcing_fu_mean           =   6.6666666666667E-01
(PID.TID 0000.0001) %MON extforcing_fu_sd             =   4.7140452079103E-01
(PID.TID 0000.0001) %MON extforcing_fu_del2           =   3.3333333333333E-01
(PID.TID 0000.0001) %MON extforcing_fv_max            =   0.0000000000000E+00
(PID.TID 0000.0001) %MON extforcing_fv_min            =   0.0000000000000E+00
(PID.TID 0000.0001) %MON extforcing_fv_mean           =   0.0000000000000E+00
(PID.TID 0000.0001) %MON extforcing_fv_sd             =   0.0000000000000E+00
(PID.TID 0000.0001) %MON extforcing_fv_del2           =   0.0000000000000E+00
(PID.TID 0000.0001) %MON advcfl_uvel_max              =   4.9561923570318E-02
(PID.TID 0000.0001) %MON advcfl_vvel_max              =   4.1227810576751E-02
(PID.TID 0000.0001) %MON advcfl_wvel_max              =   1.0870601952841E-01
(PID.TID 0000.0001) %MON advcfl_W_hf_max              =   1.0870601952841E-01
(PID.TID 0000.0001) %MON pe_b_mean                    =   4.2407051018914E-08
(PID.TID 0000.0001) %MON ke_max                       =   2.5858163692072E-02
(PID.TID 0000.0001) %MON ke_mean                      =   1.3391625800305E-03
(PID.TID 0000.0001) %MON ke_vol                       =   7.5000000000000E+10
(PID.TID 0000.0001) %MON vort_r_min                   =  -2.7726415433884E-05
(PID.TID 0000.0001) %MON vort_r_max                   =   3.2713734335035E-05
(PID.TID 0000.0001) %MON vort_a_mean                  =   1.4000000000000E-04
(PID.TID 0000.0001) %MON vort_a_sd                    =   8.3220347338486E-06
(PID.TID 0000.0001) %MON vort_p_mean                  =   1.4000000000000E-04
(PID.TID 0000.0001) %MON vort_p_sd                    =   8.3220347338486E-06
(PID.TID 0000.0001) %MON surfExpan_theta_mean         =  -1.4262095239961E-09
(PID.TID 0000.0001) %MON surfExpan_salt_mean          =  -1.0119431218906E-17
(PID.TID 0000.0001) // =======================================================
(PID.TID 0000.0001) // End MONITOR dynamic field statistics
(PID.TID 0000.0001) // =======================================================
 cg2d: Sum(rhs),rhsMax =  -4.44089209850063E-16  1.22105254060653E-01
(PID.TID 0000.0001)                    cg2d_init_res =    5.92192792636434E-03
(PID.TID 0000.0001)                       cg2d_iters =     1
(PID.TID 0000.0001)                         cg2d_res =    1.91796804598462E-16
(PID.TID 0000.0001) // =======================================================
(PID.TID 0000.0001) // Begin MONITOR dynamic field statistics
(PID.TID 0000.0001) // =======================================================
(PID.TID 0000.0001) %MON time_tsnumber                =                    19
(PID.TID 0000.0001) %MON time_secondsf                =   2.2800000000000E+04
(PID.TID 0000.0001) %MON dynstat_eta_max              =   2.1642343640390E-03
(PID.TID 0000.0001) %MON dynstat_eta_min              =  -4.1465601484603E-03
(PID.TID 0000.0001) %MON dynstat_eta_mean             =   7.8231096267700E-18
(PID.TID 0000.0001) %MON dynstat_eta_sd               =   2.9330011343826E-03
(PID.TID 0000.0001) %MON dynstat_eta_del2             =   2.0732800742302E-03
(PID.TID 0000.0001) %MON dynstat_uvel_max             =   2.0392172263163E-01
(PID.TID 0000.0001) %MON dynstat_uvel_min             =  -1.4653867579147E-01
(PID.TID 0000.0001) %MON dynstat_uvel_mean            =  -4.1959513506074E-04
(PID.TID 0000.0001) %MON dynstat_uvel_sd              =   3.8004756494807E-02
(PID.TID 0000.0001) %MON dynstat_uvel_del2            =   1.5761659326613E-02
(PID.TID 0000.0001) %MON dynstat_vvel_max             =   3.0254745114277E-02
(PID.TID 0000.0001) %MON dynstat_vvel_min             =  -1.8080617875658E-01
(PID.TID 0000.0001) %MON dynstat_vvel_mean            =  -9.5704248544818E-03
(PID.TID 0000.0001) %MON dynstat_vvel_sd              =   3.6556114759109E-02
(PID.TID 0000.0001) %MON dynstat_vvel_del2            =   1.3242828562917E-02
(PID.TID 0000.0001) %MON dynstat_wvel_max             =   4.5655134647850E-03
(PID.TID 0000.0001) %MON dynstat_wvel_min             =  -4.3548332499461E-03
(PID.TID 0000.0001) %MON dynstat_wvel_mean            =   6.7660187044714E-21
(PID.TID 0000.0001) %MON dynstat_wvel_sd              =   2.3531289743050E-03
(PID.TID 0000.0001) %MON dynstat_wvel_del2            =   1.3020609001342E-03
(PID.TID 0000.0001) %MON dynstat_theta_max            =   2.9347485493989E+00
(PID.TID 0000.0001) %MON dynstat_theta_min            =   4.5566939147778E-01
(PID.TID 0000.0001) %MON dynstat_theta_mean           =   1.6698283234527E+00
(PID.TID 0000.0001) %MON dynstat_theta_sd             =   7.2156257921985E-01
(PID.TID 0000.0001) %MON dynstat_theta_del2           =   2.5380646985682E-02
(PID.TID 0000.0001) %MON dynstat_salt_max             =   3.5000000000000E+01
(PID.TID 0000.0001) %MON dynstat_salt_min             =   3.5000000000000E+01
(PID.TID 0000.0001) %MON dynstat_salt_mean            =   3.5000000000000E+01
(PID.TID 0000.0001) %MON dynstat_salt_sd              =   3.6703733641272E-14
(PID.TID 0000.0001) %MON dynstat_salt_del2            =   7.8159700933611E-15
(PID.TID 0000.0001) %MON dynstat_sst_max              =   2.9347485493989E+00
(PID.TID 0000.0001) %MON dynstat_sst_min              =   2.3554702914749E+00
(PID.TID 0000.0001) %MON dynstat_sst_mean             =   2.7416557967575E+00
(PID.TID 0000.0001) %MON dynstat_sst_sd               =   2.7307438958132E-01
(PID.TID 0000.0001) %MON dynstat_sst_del2             =   1.9309275264133E-01
(PID.TID 0000.0001) %MON dynstat_sss_max              =   3.5000000000000E+01
(PID.TID 0000.0001) %MON dynstat_sss_min              =   3.5000000000000E+01
(PID.TID 0000.0001) %MON dynstat_sss_mean             =   3.5000000000000E+01
(PID.TID 0000.0001) %MON dynstat_sss_sd               =   4.3800795900274E-14
(PID.TID 0000.0001) %MON dynstat_sss_del2             =   3.0790185216271E-14
(PID.TID 0000.0001) %MON extforcing_qnet_max          =   2.0000000000000E+02
(PID.TID 0000.0001) %MON extforcing_qnet_min          =   0.0000000000000E+00
(PID.TID 0000.0001) %MON extforcing_qnet_mean         =   6.6666666666667E+01
(PID.TID 0000.0001) %MON extforcing_qnet_sd           =   9.4280904158206E+01
(PID.TID 0000.0001) %MON extforcing_qnet_del2         =   6.6666666666667E+01
(PID.TID 0000.0001) %MON extforcing_qsw_max           =   0.0000000000000E+00
(PID.TID 0000.0001) %MON extforcing_qsw_min           =   0.0000000000000E+00
(PID.TID 0000.0001) %MON extforcing_qsw_mean          =   0.0000000000000E+00
(PID.TID 0000.0001) %MON extforcing_qsw_sd            =   0.0000000000000E+00
(PID.TID 0000.0001) %MON extforcing_qsw_del2          =   0.0000000000000E+00
(PID.TID 0000.0001) %MON extforcing_empmr_max         =   0.0000000000000E+00
(PID.TID 0000.0001) %MON extforcing_empmr_min         =   0.0000000000000E+00
(PID.TID 0000.0001) %MON extforcing_empmr_mean        =   0.0000000000000E+00
(PID.TID 0000.0001) %MON extforcing_empmr_sd          =   0.0000000000000E+00
(PID.TID 0000.0001) %MON extforcing_empmr_del2        =   0.0000000000000E+00
(PID.TID 0000.0001) %MON extforcing_fu_max            =   1.0000000000000E+00
(PID.TID 0000.0001) %MON extforcing_fu_min            =   0.0000000000000E+00
(PID.TID 0000.0001) %MON extforcing_fu_mean           =   6.6666666666667E-01
(PID.TID 0000.0001) %MON extforcing_fu_sd             =   4.7140452079103E-01
(PID.TID 0000.0001) %MON extforcing_fu_del2           =   3.3333333333333E-01
(PID.TID 0000.0001) %MON extforcing_fv_max            =   0.0000000000000E+00
(PID.TID 0000.0001) %MON extforcing_fv_min            =   0.0000000000000E+00
(PID.TID 0000.0001) %MON extforcing_fv_mean           =   0.0000000000000E+00
(PID.TID 0000.0001) %MON extforcing_fv_sd             =   0.0000000000000E+00
(PID.TID 0000.0001) %MON extforcing_fv_del2           =   0.0000000000000E+00
(PID.TID 0000.0001) %MON advcfl_uvel_max              =   4.8941213431591E-02
(PID.TID 0000.0001) %MON advcfl_vvel_max              =   4.3393482901578E-02
(PID.TID 0000.0001) %MON advcfl_wvel_max              =   1.0957232315484E-01
(PID.TID 0000.0001) %MON advcfl_W_hf_max              =   1.0957232315484E-01
(PID.TID 0000.0001) %MON pe_b_mean                    =   4.2195241184289E-08
(PID.TID 0000.0001) %MON ke_max                       =   2.6993285662634E-02
(PID.TID 0000.0001) %MON ke_mean                      =   1.4362400672417E-03
(PID.TID 0000.0001) %MON ke_vol                       =   7.5000000000000E+10
(PID.TID 0000.0001) %MON vort_r_min                   =  -2.9766537359694E-05
(PID.TID 0000.0001) %MON vort_r_max                   =   3.5955956286943E-05
(PID.TID 0000.0001) %MON vort_a_mean                  =   1.4000000000000E-04
(PID.TID 0000.0001) %MON vort_a_sd                    =   9.1061066690549E-06
(PID.TID 0000.0001) %MON vort_p_mean                  =   1.4000000000000E-04
(PID.TID 0000.0001) %MON vort_p_sd                    =   9.1061066690549E-06
(PID.TID 0000.0001) %MON surfExpan_theta_mean         =  -1.5969286536178E-09
(PID.TID 0000.0001) %MON surfExpan_salt_mean          =   5.0593484957062E-18
(PID.TID 0000.0001) // =======================================================
(PID.TID 0000.0001) // End MONITOR dynamic field statistics
(PID.TID 0000.0001) // =======================================================
 cg2d: Sum(rhs),rhsMax =   0.00000000000000E+00  1.21793843215831E-01
(PID.TID 0000.0001)                    cg2d_init_res =    6.15402847484262E-03
(PID.TID 0000.0001)                       cg2d_iters =     1
(PID.TID 0000.0001)                         cg2d_res =    3.18009638202906E-17
(PID.TID 0000.0001) // =======================================================
(PID.TID 0000.0001) // Begin MONITOR dynamic field statistics
(PID.TID 0000.0001) // =======================================================
(PID.TID 0000.0001) %MON time_tsnumber                =                    20
(PID.TID 0000.0001) %MON time_secondsf                =   2.4000000000000E+04
(PID.TID 0000.0001) %MON dynstat_eta_max              =   2.1434531946079E-03
(PID.TID 0000.0001) %MON dynstat_eta_min              =  -4.1359849786294E-03
(PID.TID 0000.0001) %MON dynstat_eta_mean             =   8.0714623133341E-18
(PID.TID 0000.0001) %MON dynstat_eta_sd               =   2.9252319709303E-03
(PID.TID 0000.0001) %MON dynstat_eta_del2             =   2.0679924893147E-03
(PID.TID 0000.0001) %MON dynstat_uvel_max             =   2.0065993553701E-01
(PID.TID 0000.0001) %MON dynstat_uvel_min             =  -1.5953545475068E-01
(PID.TID 0000.0001) %MON dynstat_uvel_mean            =  -1.2270931989813E-03
(PID.TID 0000.0001) %MON dynstat_uvel_sd              =   3.8830304986627E-02
(PID.TID 0000.0001) %MON dynstat_uvel_del2            =   1.6044274947181E-02
(PID.TID 0000.0001) %MON dynstat_vvel_max             =   3.7183325500543E-02
(PID.TID 0000.0001) %MON dynstat_vvel_min             =  -1.8862130697533E-01
(PID.TID 0000.0001) %MON dynstat_vvel_mean            =  -9.4296973788880E-03
(PID.TID 0000.0001) %MON dynstat_vvel_sd              =   3.8224757998769E-02
(PID.TID 0000.0001) %MON dynstat_vvel_del2            =   1.4369384142490E-02
(PID.TID 0000.0001) %MON dynstat_wvel_max             =   4.5680795463984E-03
(PID.TID 0000.0001) %MON dynstat_wvel_min             =  -4.4459194455633E-03
(PID.TID 0000.0001) %MON dynstat_wvel_mean            =  -4.0297611401631E-20
(PID.TID 0000.0001) %MON dynstat_wvel_sd              =   2.3727974960989E-03
(PID.TID 0000.0001) %MON dynstat_wvel_del2            =   1.3255421970688E-03
(PID.TID 0000.0001) %MON dynstat_theta_max            =   2.9347479231593E+00
(PID.TID 0000.0001) %MON dynstat_theta_min            =   4.5567001771736E-01
(PID.TID 0000.0001) %MON dynstat_theta_mean           =   1.6698082894008E+00
(PID.TID 0000.0001) %MON dynstat_theta_sd             =   7.2154276341373E-01
(PID.TID 0000.0001) %MON dynstat_theta_del2           =   2.5400681037560E-02
(PID.TID 0000.0001) %MON dynstat_salt_max             =   3.5000000000000E+01
(PID.TID 0000.0001) %MON dynstat_salt_min             =   3.5000000000000E+01
(PID.TID 0000.0001) %MON dynstat_salt_mean            =   3.5000000000000E+01
(PID.TID 0000.0001) %MON dynstat_salt_sd              =   3.9741725097264E-14
(PID.TID 0000.0001) %MON dynstat_salt_del2            =   8.6449366184146E-15
(PID.TID 0000.0001) %MON dynstat_sst_max              =   2.9347479231593E+00
(PID.TID 0000.0001) %MON dynstat_sst_min              =   2.3557072239034E+00
(PID.TID 0000.0001) %MON dynstat_sst_mean             =   2.7417343567407E+00
(PID.TID 0000.0001) %MON dynstat_sst_sd               =   2.7296240335124E-01
(PID.TID 0000.0001) %MON dynstat_sst_del2             =   1.9301356641864E-01
(PID.TID 0000.0001) %MON dynstat_sss_max              =   3.5000000000000E+01
(PID.TID 0000.0001) %MON dynstat_sss_min              =   3.5000000000000E+01
(PID.TID 0000.0001) %MON dynstat_sss_mean             =   3.5000000000000E+01
(PID.TID 0000.0001) %MON dynstat_sss_sd               =   4.6953203047903E-14
(PID.TID 0000.0001) %MON dynstat_sss_del2             =   3.3158661002138E-14
(PID.TID 0000.0001) %MON extforcing_qnet_max          =   2.0000000000000E+02
(PID.TID 0000.0001) %MON extforcing_qnet_min          =   0.0000000000000E+00
(PID.TID 0000.0001) %MON extforcing_qnet_mean         =   6.6666666666667E+01
(PID.TID 0000.0001) %MON extforcing_qnet_sd           =   9.4280904158206E+01
(PID.TID 0000.0001) %MON extforcing_qnet_del2         =   6.6666666666667E+01
(PID.TID 0000.0001) %MON extforcing_qsw_max           =   0.0000000000000E+00
(PID.TID 0000.0001) %MON extforcing_qsw_min           =   0.0000000000000E+00
(PID.TID 0000.0001) %MON extforcing_qsw_mean          =   0.0000000000000E+00
(PID.TID 0000.0001) %MON extforcing_qsw_sd            =   0.0000000000000E+00
(PID.TID 0000.0001) %MON extforcing_qsw_del2          =   0.0000000000000E+00
(PID.TID 0000.0001) %MON extforcing_empmr_max         =   0.0000000000000E+00
(PID.TID 0000.0001) %MON extforcing_empmr_min         =   0.0000000000000E+00
(PID.TID 0000.0001) %MON extforcing_empmr_mean        =   0.0000000000000E+00
(PID.TID 0000.0001) %MON extforcing_empmr_sd          =   0.0000000000000E+00
(PID.TID 0000.0001) %MON extforcing_empmr_del2        =   0.0000000000000E+00
(PID.TID 0000.0001) %MON extforcing_fu_max            =   1.0000000000000E+00
(PID.TID 0000.0001) %MON extforcing_fu_min            =   0.0000000000000E+00
(PID.TID 0000.0001) %MON extforcing_fu_mean           =   6.6666666666667E-01
(PID.TID 0000.0001) %MON extforcing_fu_sd             =   4.7140452079103E-01
(PID.TID 0000.0001) %MON extforcing_fu_del2           =   3.3333333333333E-01
(PID.TID 0000.0001) %MON extforcing_fv_max            =   0.0000000000000E+00
(PID.TID 0000.0001) %MON extforcing_fv_min            =   0.0000000000000E+00
(PID.TID 0000.0001) %MON extforcing_fv_mean           =   0.0000000000000E+00
(PID.TID 0000.0001) %MON extforcing_fv_sd             =   0.0000000000000E+00
(PID.TID 0000.0001) %MON extforcing_fv_del2           =   0.0000000000000E+00
(PID.TID 0000.0001) %MON advcfl_uvel_max              =   4.8158384528882E-02
(PID.TID 0000.0001) %MON advcfl_vvel_max              =   4.5269113674080E-02
(PID.TID 0000.0001) %MON advcfl_wvel_max              =   1.0963390911356E-01
(PID.TID 0000.0001) %MON advcfl_W_hf_max              =   1.0963390911356E-01
(PID.TID 0000.0001) %MON pe_b_mean                    =   4.1971997120808E-08
(PID.TID 0000.0001) %MON ke_max                       =   2.7903539875262E-02
(PID.TID 0000.0001) %MON ke_mean                      =   1.5296748298977E-03
(PID.TID 0000.0001) %MON ke_vol                       =   7.5000000000000E+10
(PID.TID 0000.0001) %MON vort_r_min                   =  -3.1800704382800E-05
(PID.TID 0000.0001) %MON vort_r_max                   =   3.9227048869662E-05
(PID.TID 0000.0001) %MON vort_a_mean                  =   1.4000000000000E-04
(PID.TID 0000.0001) %MON vort_a_sd                    =   9.8931914557522E-06
(PID.TID 0000.0001) %MON vort_p_mean                  =   1.4000000000000E-04
(PID.TID 0000.0001) %MON vort_p_sd                    =   9.8931914557522E-06
(PID.TID 0000.0001) %MON surfExpan_theta_mean         =  -1.7009593704241E-09
(PID.TID 0000.0001) %MON surfExpan_salt_mean          =  -2.8421709430404E-22
(PID.TID 0000.0001) // =======================================================
(PID.TID 0000.0001) // End MONITOR dynamic field statistics
(PID.TID 0000.0001) // =======================================================
(PID.TID 0000.0001) %CHECKPOINT        20 ckptA
(PID.TID 0000.0001)   Seconds in section "ALL                    [THE_MODEL_MAIN]":
(PID.TID 0000.0001)           User time:  0.275958009
(PID.TID 0000.0001)         System time:  0.0229969993
(PID.TID 0000.0001)     Wall clock time:  0.331678867
(PID.TID 0000.0001)          No. starts: 1
(PID.TID 0000.0001)           No. stops: 1
(PID.TID 0000.0001)   Seconds in section "INITIALISE_FIXED       [THE_MODEL_MAIN]":
(PID.TID 0000.0001)           User time:  0.0359949993
(PID.TID 0000.0001)         System time:  0.0089990003
(PID.TID 0000.0001)     Wall clock time:  0.059953928
(PID.TID 0000.0001)          No. starts: 1
(PID.TID 0000.0001)           No. stops: 1
(PID.TID 0000.0001)   Seconds in section "THE_MAIN_LOOP          [THE_MODEL_MAIN]":
(PID.TID 0000.0001)           User time:  0.23996301
(PID.TID 0000.0001)         System time:  0.013997999
(PID.TID 0000.0001)     Wall clock time:  0.27157712
(PID.TID 0000.0001)          No. starts: 1
(PID.TID 0000.0001)           No. stops: 1
(PID.TID 0000.0001)   Seconds in section "INITIALISE_VARIA    [THE_MAIN_LOOP]":
(PID.TID 0000.0001)           User time:  0.0169970021
(PID.TID 0000.0001)         System time:  0.00599899981
(PID.TID 0000.0001)     Wall clock time:  0.0403740406
(PID.TID 0000.0001)          No. starts: 1
(PID.TID 0000.0001)           No. stops: 1
(PID.TID 0000.0001)   Seconds in section "MAIN LOOP           [THE_MAIN_LOOP]":
(PID.TID 0000.0001)           User time:  0.222966008
(PID.TID 0000.0001)         System time:  0.00799899921
(PID.TID 0000.0001)     Wall clock time:  0.231064081
(PID.TID 0000.0001)          No. starts: 1
(PID.TID 0000.0001)           No. stops: 1
(PID.TID 0000.0001)   Seconds in section "FORWARD_STEP        [THE_MAIN_LOOP]":
(PID.TID 0000.0001)           User time:  0.222966008
(PID.TID 0000.0001)         System time:  0.00799899921
(PID.TID 0000.0001)     Wall clock time:  0.230233908
(PID.TID 0000.0001)          No. starts: 20
(PID.TID 0000.0001)           No. stops: 20
(PID.TID 0000.0001)   Seconds in section "LOAD_FIELDS_DRIVER  [FORWARD_STEP]":
(PID.TID 0000.0001)           User time:  0.00199900568
(PID.TID 0000.0001)         System time:  0.
(PID.TID 0000.0001)     Wall clock time:  0.00243234634
(PID.TID 0000.0001)          No. starts: 20
(PID.TID 0000.0001)           No. stops: 20
(PID.TID 0000.0001)   Seconds in section "EXTERNAL_FLDS_LOAD [LOAD_FLDS_DRIVER]":
(PID.TID 0000.0001)           User time:  0.
(PID.TID 0000.0001)         System time:  0.
(PID.TID 0000.0001)     Wall clock time:  0.00080037117
(PID.TID 0000.0001)          No. starts: 20
(PID.TID 0000.0001)           No. stops: 20
(PID.TID 0000.0001)   Seconds in section "DO_ATMOSPHERIC_PHYS [FORWARD_STEP]":
(PID.TID 0000.0001)           User time:  0.000999987125
(PID.TID 0000.0001)         System time:  0.
(PID.TID 0000.0001)     Wall clock time:  0.000796079636
(PID.TID 0000.0001)          No. starts: 20
(PID.TID 0000.0001)           No. stops: 20
(PID.TID 0000.0001)   Seconds in section "DO_OCEANIC_PHYS     [FORWARD_STEP]":
(PID.TID 0000.0001)           User time:  0.0329950042
(PID.TID 0000.0001)         System time:  0.
(PID.TID 0000.0001)     Wall clock time:  0.0315232277
(PID.TID 0000.0001)          No. starts: 20
(PID.TID 0000.0001)           No. stops: 20
(PID.TID 0000.0001)   Seconds in section "THERMODYNAMICS      [FORWARD_STEP]":
(PID.TID 0000.0001)           User time:  0.0279980116
(PID.TID 0000.0001)         System time:  0.
(PID.TID 0000.0001)     Wall clock time:  0.0288300514
(PID.TID 0000.0001)          No. starts: 20
(PID.TID 0000.0001)           No. stops: 20
(PID.TID 0000.0001)   Seconds in section "DYNAMICS            [FORWARD_STEP]":
(PID.TID 0000.0001)           User time:  0.0589879528
(PID.TID 0000.0001)         System time:  0.
(PID.TID 0000.0001)     Wall clock time:  0.0577936172
(PID.TID 0000.0001)          No. starts: 20
(PID.TID 0000.0001)           No. stops: 20
(PID.TID 0000.0001)   Seconds in section "SOLVE_FOR_PRESSURE  [FORWARD_STEP]":
(PID.TID 0000.0001)           User time:  0.00499902666
(PID.TID 0000.0001)         System time:  0.
(PID.TID 0000.0001)     Wall clock time:  0.00530123711
(PID.TID 0000.0001)          No. starts: 20
(PID.TID 0000.0001)           No. stops: 20
(PID.TID 0000.0001)   Seconds in section "MOM_CORRECTION_STEP [FORWARD_STEP]":
(PID.TID 0000.0001)           User time:  0.00500001013
(PID.TID 0000.0001)         System time:  0.
(PID.TID 0000.0001)     Wall clock time:  0.00372886658
(PID.TID 0000.0001)          No. starts: 20
(PID.TID 0000.0001)           No. stops: 20
(PID.TID 0000.0001)   Seconds in section "TRC_CORRECTION_STEP [FORWARD_STEP]":
(PID.TID 0000.0001)           User time:  0.00200000405
(PID.TID 0000.0001)         System time:  0.
(PID.TID 0000.0001)     Wall clock time:  0.00199103355
(PID.TID 0000.0001)          No. starts: 20
(PID.TID 0000.0001)           No. stops: 20
(PID.TID 0000.0001)   Seconds in section "BLOCKING_EXCHANGES  [FORWARD_STEP]":
(PID.TID 0000.0001)           User time:  0.0159989968
(PID.TID 0000.0001)         System time:  0.
(PID.TID 0000.0001)     Wall clock time:  0.0152728558
(PID.TID 0000.0001)          No. starts: 20
(PID.TID 0000.0001)           No. stops: 20
(PID.TID 0000.0001)   Seconds in section "DO_STATEVARS_TAVE   [FORWARD_STEP]":
(PID.TID 0000.0001)           User time:  0.00299900025
(PID.TID 0000.0001)         System time:  0.
(PID.TID 0000.0001)     Wall clock time:  0.00289654732
(PID.TID 0000.0001)          No. starts: 20
(PID.TID 0000.0001)           No. stops: 20
(PID.TID 0000.0001)   Seconds in section "MONITOR             [FORWARD_STEP]":
(PID.TID 0000.0001)           User time:  0.0549900308
(PID.TID 0000.0001)         System time:  0.00299900025
(PID.TID 0000.0001)     Wall clock time:  0.0577309132
(PID.TID 0000.0001)          No. starts: 20
(PID.TID 0000.0001)           No. stops: 20
(PID.TID 0000.0001)   Seconds in section "DO_THE_MODEL_IO     [FORWARD_STEP]":
(PID.TID 0000.0001)           User time:  0.00399897993
(PID.TID 0000.0001)         System time:  0.00299999863
(PID.TID 0000.0001)     Wall clock time:  0.00628852844
(PID.TID 0000.0001)          No. starts: 20
(PID.TID 0000.0001)           No. stops: 20
(PID.TID 0000.0001)   Seconds in section "DO_WRITE_PICKUP     [FORWARD_STEP]":
(PID.TID 0000.0001)           User time:  0.00299999863
(PID.TID 0000.0001)         System time:  0.00200000033
(PID.TID 0000.0001)     Wall clock time:  0.00446081161
(PID.TID 0000.0001)          No. starts: 20
(PID.TID 0000.0001)           No. stops: 20
(PID.TID 0000.0001) // ======================================================
(PID.TID 0000.0001) // Tile <-> Tile communication statistics
(PID.TID 0000.0001) // ======================================================
(PID.TID 0000.0001) // o Tile number: 000001
(PID.TID 0000.0001) //         No. X exchanges =              0
(PID.TID 0000.0001) //            Max. X spins =              0
(PID.TID 0000.0001) //            Min. X spins =     1000000000
(PID.TID 0000.0001) //          Total. X spins =              0
(PID.TID 0000.0001) //            Avg. X spins =       0.00E+00
(PID.TID 0000.0001) //         No. Y exchanges =              0
(PID.TID 0000.0001) //            Max. Y spins =              0
(PID.TID 0000.0001) //            Min. Y spins =     1000000000
(PID.TID 0000.0001) //          Total. Y spins =              0
(PID.TID 0000.0001) //            Avg. Y spins =       0.00E+00
(PID.TID 0000.0001) // o Thread number: 000001
(PID.TID 0000.0001) //            No. barriers =          11952
(PID.TID 0000.0001) //      Max. barrier spins =              1
(PID.TID 0000.0001) //      Min. barrier spins =              1
(PID.TID 0000.0001) //     Total barrier spins =          11952
(PID.TID 0000.0001) //      Avg. barrier spins =       1.00E+00
