(PID.TID 0000.0001) 
(PID.TID 0000.0001) // ======================================================
(PID.TID 0000.0001) //                      MITgcm UV
(PID.TID 0000.0001) //                      =========
(PID.TID 0000.0001) // ======================================================
(PID.TID 0000.0001) // execution environment starting up...
(PID.TID 0000.0001) 
(PID.TID 0000.0001) // MITgcmUV version:  checkpoint58n_post
(PID.TID 0000.0001) // Build user:        jmc
(PID.TID 0000.0001) // Build host:        faulks
(PID.TID 0000.0001) // Build date:        Wed Aug 23 11:57:01 EDT 2006
(PID.TID 0000.0001) 
(PID.TID 0000.0001) // =======================================================
(PID.TID 0000.0001) // Execution Environment parameter file "eedata"
(PID.TID 0000.0001) // =======================================================
(PID.TID 0000.0001) ># Example "eedata" file
(PID.TID 0000.0001) ># Lines beginning "#" are comments
(PID.TID 0000.0001) ># nTx - No. threads per process in X
(PID.TID 0000.0001) ># nTy - No. threads per process in Y
(PID.TID 0000.0001) > &EEPARMS
(PID.TID 0000.0001) > &
(PID.TID 0000.0001) ># Note: Some systems use & as the
(PID.TID 0000.0001) ># namelist terminator. Other systems
(PID.TID 0000.0001) ># use a / character (as shown here).
(PID.TID 0000.0001) 
(PID.TID 0000.0001) // =======================================================
(PID.TID 0000.0001) // Computational Grid Specification ( see files "SIZE.h" )
(PID.TID 0000.0001) //                                  ( and "eedata"       )
(PID.TID 0000.0001) // =======================================================
(PID.TID 0000.0001)      nPx =    1 ; /* No. processes in X */
(PID.TID 0000.0001)      nPy =    1 ; /* No. processes in Y */
(PID.TID 0000.0001)      nSx =    1 ; /* No. tiles in X per process */
(PID.TID 0000.0001)      nSy =    1 ; /* No. tiles in Y per process */
(PID.TID 0000.0001)      sNx =    3 ; /* Tile size in X */
(PID.TID 0000.0001)      sNy =    1 ; /* Tile size in Y */
(PID.TID 0000.0001)      OLx =    3 ; /* Tile overlap distance in X */
(PID.TID 0000.0001)      OLy =    3 ; /* Tile overlap distance in Y */
(PID.TID 0000.0001)      nTx =    1 ; /* No. threads in X per process */
(PID.TID 0000.0001)      nTy =    1 ; /* No. threads in Y per process */
(PID.TID 0000.0001)       Nr =   20 ; /* No. levels in the vertical   */
(PID.TID 0000.0001)       nX =    3 ; /* Total domain size in X ( = nPx*nSx*sNx ) */
(PID.TID 0000.0001)       nY =    1 ; /* Total domain size in Y ( = nPy*nSy*sNy ) */
(PID.TID 0000.0001)   nTiles =    1 ; /* Total no. tiles per process ( = nSx*nSy ) */
(PID.TID 0000.0001)   nProcs =    1 ; /* Total no. processes ( = nPx*nPy ) */
(PID.TID 0000.0001) nThreads =    1 ; /* Total no. threads per process ( = nTx*nTy ) */
(PID.TID 0000.0001) usingMPI =    F ; /* Flag used to control whether MPI is in use */
(PID.TID 0000.0001)                   /*  note: To execute a program with MPI calls */
(PID.TID 0000.0001)                   /*  it must be launched appropriately e.g     */
(PID.TID 0000.0001)                   /*  "mpirun -np 64 ......"                    */
(PID.TID 0000.0001) useCoupler=   F ; /* Flag used to control communications with */
(PID.TID 0000.0001)                   /*  other model components, through a coupler */
(PID.TID 0000.0001) 
(PID.TID 0000.0001) // ======================================================
(PID.TID 0000.0001) // Mapping of tiles to threads
(PID.TID 0000.0001) // ======================================================
(PID.TID 0000.0001) // -o- Thread   1, tiles (   1:   1,   1:   1)
(PID.TID 0000.0001) 
(PID.TID 0000.0001) // ======================================================
(PID.TID 0000.0001) // Tile <-> Tile connectvity table
(PID.TID 0000.0001) // ======================================================
(PID.TID 0000.0001) // Tile number: 000001 (process no. = 000001)
(PID.TID 0000.0001) //        WEST: Tile = 000001, Process = 000001, Comm = put
(PID.TID 0000.0001) //                bi = 000001, bj = 000001
(PID.TID 0000.0001) //        EAST: Tile = 000001, Process = 000001, Comm = put
(PID.TID 0000.0001) //                bi = 000001, bj = 000001
(PID.TID 0000.0001) //       SOUTH: Tile = 000001, Process = 000001, Comm = put
(PID.TID 0000.0001) //                bi = 000001, bj = 000001
(PID.TID 0000.0001) //       NORTH: Tile = 000001, Process = 000001, Comm = put
(PID.TID 0000.0001) //                bi = 000001, bj = 000001
(PID.TID 0000.0001) 
(PID.TID 0000.0001) // =======================================================
(PID.TID 0000.0001) // Model parameter file "data"
(PID.TID 0000.0001) // =======================================================
(PID.TID 0000.0001) ># ====================
(PID.TID 0000.0001) ># | Model parameters |
(PID.TID 0000.0001) ># ====================
(PID.TID 0000.0001) >#
(PID.TID 0000.0001) ># Continuous equation parameters
(PID.TID 0000.0001) > &PARM01
(PID.TID 0000.0001) > tRef=20*1.,
(PID.TID 0000.0001) > sRef=20*35.,
(PID.TID 0000.0001) > viscA4=0.0E4,
(PID.TID 0000.0001) > viscAh=0.E-2,
(PID.TID 0000.0001) > viscAz=1.E-4,
(PID.TID 0000.0001) > no_slip_sides=.TRUE.,
(PID.TID 0000.0001) > no_slip_bottom=.TRUE.,
(PID.TID 0000.0001) > diffK4T=0.E4,
(PID.TID 0000.0001) > diffKhT=0.E-2,
(PID.TID 0000.0001) > diffKzT=1.E-5,
(PID.TID 0000.0001) > diffK4S=0.E4,
(PID.TID 0000.0001) > diffKhS=0.E-2,
(PID.TID 0000.0001) > diffKzS=1.E-5,
(PID.TID 0000.0001) > f0=1.4e-4,
(PID.TID 0000.0001) > beta=0.E-11,
(PID.TID 0000.0001) > tAlpha=2.E-4,
(PID.TID 0000.0001) > sBeta =0.E-4,
(PID.TID 0000.0001) > rigidLid=.FALSE.,
(PID.TID 0000.0001) > implicitFreeSurface=.TRUE.,
(PID.TID 0000.0001) >#ivdc_kappa=10.,
(PID.TID 0000.0001) > implicitDiffusion=.TRUE.,
(PID.TID 0000.0001) > implicitViscosity=.TRUE.,
(PID.TID 0000.0001) > eosType='LINEAR',
(PID.TID 0000.0001) >#eosType='MDJWF',
(PID.TID 0000.0001) > hFacMin=0.05,
(PID.TID 0000.0001) > readBinaryPrec=64,
(PID.TID 0000.0001) > bottomDragLinear=0.E-4,
(PID.TID 0000.0001) > debugLevel=1,
(PID.TID 0000.0001) > tempAdvection=.false.,
(PID.TID 0000.0001) > tempAdvScheme=33,
(PID.TID 0000.0001) > &
(PID.TID 0000.0001) >
(PID.TID 0000.0001) ># Elliptic solver parameters
(PID.TID 0000.0001) > &PARM02
(PID.TID 0000.0001) > cg2dMaxIters=300,
(PID.TID 0000.0001) > cg2dTargetResidual=1.E-13,
(PID.TID 0000.0001) > &
(PID.TID 0000.0001) >
(PID.TID 0000.0001) ># Time stepping parameters
(PID.TID 0000.0001) > &PARM03
(PID.TID 0000.0001) > niter0=0,
(PID.TID 0000.0001) > nTimeSteps=20,
(PID.TID 0000.0001) >#nTimeSteps=720,
(PID.TID 0000.0001) >#nTimeSteps=8640,
(PID.TID 0000.0001) > deltaT=1200.0,
(PID.TID 0000.0001) >#cAdjFreq=-1.,
(PID.TID 0000.0001) > abEps=0.01,
(PID.TID 0000.0001) > pChkptFreq=0.0,
(PID.TID 0000.0001) > chkptFreq=0.0,
(PID.TID 0000.0001) > taveFreq=86400.0,
(PID.TID 0000.0001) > dumpFreq=86400.0,
(PID.TID 0000.0001) >#dumpFreq=1.0,
(PID.TID 0000.0001) > monitorFreq=86400.,
(PID.TID 0000.0001) > monitorFreq=1.,
(PID.TID 0000.0001) > &
(PID.TID 0000.0001) >
(PID.TID 0000.0001) ># Gridding parameters
(PID.TID 0000.0001) > &PARM04
(PID.TID 0000.0001) > usingCartesianGrid=.TRUE.,
(PID.TID 0000.0001) > usingSphericalPolarGrid=.FALSE.,
(PID.TID 0000.0001) > dXspacing=5000,
(PID.TID 0000.0001) > dYspacing=5000.,
(PID.TID 0000.0001) > delZ=20*50,
(PID.TID 0000.0001) > &
(PID.TID 0000.0001) >
(PID.TID 0000.0001) ># Input datasets
(PID.TID 0000.0001) > &PARM05
(PID.TID 0000.0001) > hydrogThetaFile='T.init',
(PID.TID 0000.0001) >#hydrogThetaFile='Tinstable.init',
(PID.TID 0000.0001) > hydrogThetaFile='Tstable2.init',
(PID.TID 0000.0001) > surfQfile='Qnet.forcing',
(PID.TID 0000.0001) > zonalWindFile='taux.forcing',
(PID.TID 0000.0001) > &
(PID.TID 0000.0001) 
(PID.TID 0000.0001) S/R INI_PARMS ; starts to read PARM01
(PID.TID 0000.0001) S/R INI_PARMS ; read PARM01 : OK
(PID.TID 0000.0001) S/R INI_PARMS ; starts to read PARM02
(PID.TID 0000.0001) S/R INI_PARMS ; read PARM02 : OK
(PID.TID 0000.0001) S/R INI_PARMS ; starts to read PARM03
(PID.TID 0000.0001) S/R INI_PARMS ; read PARM03 : OK
(PID.TID 0000.0001) S/R INI_PARMS ; starts to read PARM04
(PID.TID 0000.0001) S/R INI_PARMS ; read PARM04 : OK
(PID.TID 0000.0001) S/R INI_PARMS ; starts to read PARM05
(PID.TID 0000.0001) S/R INI_PARMS ; read PARM05 : OK
(PID.TID 0000.0001)  PACKAGES_BOOT: opening data.pkg
(PID.TID 0000.0001)  OPEN_COPY_DATA_FILE: opening file data.pkg
(PID.TID 0000.0001) // =======================================================
(PID.TID 0000.0001) // Parameter file "data.pkg"
(PID.TID 0000.0001) // =======================================================
(PID.TID 0000.0001) ># Packages
(PID.TID 0000.0001) > &PACKAGES
(PID.TID 0000.0001) > useOPPS=.TRUE.,
(PID.TID 0000.0001) > &
(PID.TID 0000.0001) 
(PID.TID 0000.0001)  PACKAGES_BOOT: finished reading data.pkg
(PID.TID 0000.0001)  OPPS_READPARMS: opening data.opps
(PID.TID 0000.0001)  OPEN_COPY_DATA_FILE: opening file data.opps
(PID.TID 0000.0001) // =======================================================
(PID.TID 0000.0001) // Parameter file "data.opps"
(PID.TID 0000.0001) // =======================================================
(PID.TID 0000.0001) ># =========================================
(PID.TID 0000.0001) ># | Parameters for OPPS convection scheme |
(PID.TID 0000.0001) ># =========================================
(PID.TID 0000.0001) > &OPPS_PARM01
(PID.TID 0000.0001) >#OPPSdebugLevel=1,
(PID.TID 0000.0001) >#VERTICAL_VELOCITY=0.03,
(PID.TID 0000.0001) > OPPSwriteState=.true.,
(PID.TID 0000.0001) > &
(PID.TID 0000.0001) 
(PID.TID 0000.0001)  OPPS_READPARMS: finished reading data.opps
(PID.TID 0000.0001) SET_PARMS: done
(PID.TID 0000.0001) Enter INI_VERTICAL_GRID: setInterFDr=    T ; setCenterDr=    F
(PID.TID 0000.0001) %MON XC_max                       =   1.2500000000000E+04
(PID.TID 0000.0001) %MON XC_min                       =   2.5000000000000E+03
(PID.TID 0000.0001) %MON XC_mean                      =   7.5000000000000E+03
(PID.TID 0000.0001) %MON XC_sd                        =   4.0824829046386E+03
(PID.TID 0000.0001) %MON XG_max                       =   1.0000000000000E+04
(PID.TID 0000.0001) %MON XG_min                       =   5.0000000000000E+03
(PID.TID 0000.0001) %MON XG_mean                      =   7.5000000000000E+03
(PID.TID 0000.0001) %MON XG_sd                        =   2.5000000000000E+03
(PID.TID 0000.0001) %MON DXC_max                      =   5.0000000000000E+03
(PID.TID 0000.0001) %MON DXC_min                      =   5.0000000000000E+03
(PID.TID 0000.0001) %MON DXC_mean                     =   5.0000000000000E+03
(PID.TID 0000.0001) %MON DXC_sd                       =   0.0000000000000E+00
(PID.TID 0000.0001) %MON DXF_max                      =   5.0000000000000E+03
(PID.TID 0000.0001) %MON DXF_min                      =   5.0000000000000E+03
(PID.TID 0000.0001) %MON DXF_mean                     =   5.0000000000000E+03
(PID.TID 0000.0001) %MON DXF_sd                       =   0.0000000000000E+00
(PID.TID 0000.0001) %MON DXG_max                      =   5.0000000000000E+03
(PID.TID 0000.0001) %MON DXG_min                      =   5.0000000000000E+03
(PID.TID 0000.0001) %MON DXG_mean                     =   5.0000000000000E+03
(PID.TID 0000.0001) %MON DXG_sd                       =   0.0000000000000E+00
(PID.TID 0000.0001) %MON DXV_max                      =   5.0000000000000E+03
(PID.TID 0000.0001) %MON DXV_min                      =   5.0000000000000E+03
(PID.TID 0000.0001) %MON DXV_mean                     =   5.0000000000000E+03
(PID.TID 0000.0001) %MON DXV_sd                       =   0.0000000000000E+00
(PID.TID 0000.0001) %MON YC_max                       =   2.5000000000000E+03
(PID.TID 0000.0001) %MON YC_min                       =   2.5000000000000E+03
(PID.TID 0000.0001) %MON YC_mean                      =   2.5000000000000E+03
(PID.TID 0000.0001) %MON YC_sd                        =   0.0000000000000E+00
(PID.TID 0000.0001) %MON YG_max                       =   0.0000000000000E+00
(PID.TID 0000.0001) %MON YG_min                       =   0.0000000000000E+00
(PID.TID 0000.0001) %MON YG_mean                      =   0.0000000000000E+00
(PID.TID 0000.0001) %MON YG_sd                        =   0.0000000000000E+00
(PID.TID 0000.0001) %MON DYC_max                      =   5.0000000000000E+03
(PID.TID 0000.0001) %MON DYC_min                      =   5.0000000000000E+03
(PID.TID 0000.0001) %MON DYC_mean                     =   5.0000000000000E+03
(PID.TID 0000.0001) %MON DYC_sd                       =   0.0000000000000E+00
(PID.TID 0000.0001) %MON DYF_max                      =   5.0000000000000E+03
(PID.TID 0000.0001) %MON DYF_min                      =   5.0000000000000E+03
(PID.TID 0000.0001) %MON DYF_mean                     =   5.0000000000000E+03
(PID.TID 0000.0001) %MON DYF_sd                       =   0.0000000000000E+00
(PID.TID 0000.0001) %MON DYG_max                      =   5.0000000000000E+03
(PID.TID 0000.0001) %MON DYG_min                      =   5.0000000000000E+03
(PID.TID 0000.0001) %MON DYG_mean                     =   5.0000000000000E+03
(PID.TID 0000.0001) %MON DYG_sd                       =   0.0000000000000E+00
(PID.TID 0000.0001) %MON DYU_max                      =   5.0000000000000E+03
(PID.TID 0000.0001) %MON DYU_min                      =   5.0000000000000E+03
(PID.TID 0000.0001) %MON DYU_mean                     =   5.0000000000000E+03
(PID.TID 0000.0001) %MON DYU_sd                       =   0.0000000000000E+00
(PID.TID 0000.0001) %MON RA_max                       =   2.5000000000000E+07
(PID.TID 0000.0001) %MON RA_min                       =   2.5000000000000E+07
(PID.TID 0000.0001) %MON RA_mean                      =   2.5000000000000E+07
(PID.TID 0000.0001) %MON RA_sd                        =   0.0000000000000E+00
(PID.TID 0000.0001) %MON RAW_max                      =   2.5000000000000E+07
(PID.TID 0000.0001) %MON RAW_min                      =   2.5000000000000E+07
(PID.TID 0000.0001) %MON RAW_mean                     =   2.5000000000000E+07
(PID.TID 0000.0001) %MON RAW_sd                       =   0.0000000000000E+00
(PID.TID 0000.0001) %MON RAS_max                      =   2.5000000000000E+07
(PID.TID 0000.0001) %MON RAS_min                      =   2.5000000000000E+07
(PID.TID 0000.0001) %MON RAS_mean                     =   2.5000000000000E+07
(PID.TID 0000.0001) %MON RAS_sd                       =   0.0000000000000E+00
(PID.TID 0000.0001) %MON RAZ_max                      =   2.5000000000000E+07
(PID.TID 0000.0001) %MON RAZ_min                      =   2.5000000000000E+07
(PID.TID 0000.0001) %MON RAZ_mean                     =   2.5000000000000E+07
(PID.TID 0000.0001) %MON RAZ_sd                       =   0.0000000000000E+00
(PID.TID 0000.0001) %MON AngleCS_max                  =   1.0000000000000E+00
(PID.TID 0000.0001) %MON AngleCS_min                  =   1.0000000000000E+00
(PID.TID 0000.0001) %MON AngleCS_mean                 =   1.0000000000000E+00
(PID.TID 0000.0001) %MON AngleCS_sd                   =   0.0000000000000E+00
(PID.TID 0000.0001) %MON AngleSN_max                  =   0.0000000000000E+00
(PID.TID 0000.0001) %MON AngleSN_min                  =   0.0000000000000E+00
(PID.TID 0000.0001) %MON AngleSN_mean                 =   0.0000000000000E+00
(PID.TID 0000.0001) %MON AngleSN_sd                   =   0.0000000000000E+00
(PID.TID 0000.0001) // =======================================================
(PID.TID 0000.0001) // Field Model R_low (ini_masks_etc) at iteration          1
(PID.TID 0000.0001) // CMIN =         -1.000000000000000E+03
(PID.TID 0000.0001) // CMAX =         -1.000000000000000E+03
(PID.TID 0000.0001) // CINT =          0.000000000000000E+00
(PID.TID 0000.0001) // SYMBOLS (CMIN->CMAX): -abcdefghijklmnopqrstuvwxyz+
(PID.TID 0000.0001) //                  0.0: .
(PID.TID 0000.0001) // RANGE I (Lo:Hi:Step):(  -2:   6:   1)
(PID.TID 0000.0001) // RANGE J (Lo:Hi:Step):(   4:  -2:  -1)
(PID.TID 0000.0001) // RANGE K (Lo:Hi:Step):(   1:   1:   1)
(PID.TID 0000.0001) // =======================================================
(PID.TID 0000.0001) // =======================================================
(PID.TID 0000.0001) // END OF FIELD                                          =
(PID.TID 0000.0001) // =======================================================
(PID.TID 0000.0001) 
(PID.TID 0000.0001) // =======================================================
(PID.TID 0000.0001) // Field Model Ro_surf (ini_masks_etc) at iteration          1
(PID.TID 0000.0001) // CMIN =          1.000000000000000E+32
(PID.TID 0000.0001) // CMAX =         -1.000000000000000E+32
(PID.TID 0000.0001) // CINT =          0.000000000000000E+00
(PID.TID 0000.0001) // SYMBOLS (CMIN->CMAX): -abcdefghijklmnopqrstuvwxyz+
(PID.TID 0000.0001) //                  0.0: .
(PID.TID 0000.0001) // RANGE I (Lo:Hi:Step):(  -2:   6:   1)
(PID.TID 0000.0001) // RANGE J (Lo:Hi:Step):(   4:  -2:  -1)
(PID.TID 0000.0001) // RANGE K (Lo:Hi:Step):(   1:   1:   1)
(PID.TID 0000.0001) // =======================================================
(PID.TID 0000.0001) // =======================================================
(PID.TID 0000.0001) // END OF FIELD                                          =
(PID.TID 0000.0001) // =======================================================
(PID.TID 0000.0001) 
(PID.TID 0000.0001) // =======================================================
(PID.TID 0000.0001) // Field hFacC at iteration          1
(PID.TID 0000.0001) // CMIN =          1.000000000000000E+00
(PID.TID 0000.0001) // CMAX =          1.000000000000000E+00
(PID.TID 0000.0001) // CINT =          0.000000000000000E+00
(PID.TID 0000.0001) // SYMBOLS (CMIN->CMAX): -abcdefghijklmnopqrstuvwxyz+
(PID.TID 0000.0001) //                  0.0: .
(PID.TID 0000.0001) // RANGE I (Lo:Hi:Step):(  -2:   6:   1)
(PID.TID 0000.0001) // RANGE J (Lo:Hi:Step):(   4:  -2:  -1)
(PID.TID 0000.0001) // RANGE K (Lo:Hi:Step):(   1:   1:   1)
(PID.TID 0000.0001) // =======================================================
(PID.TID 0000.0001) // =======================================================
(PID.TID 0000.0001) // END OF FIELD                                          =
(PID.TID 0000.0001) // =======================================================
(PID.TID 0000.0001) 
(PID.TID 0000.0001) // =======================================================
(PID.TID 0000.0001) // Field hFacW at iteration          1
(PID.TID 0000.0001) // CMIN =          1.000000000000000E+00
(PID.TID 0000.0001) // CMAX =          1.000000000000000E+00
(PID.TID 0000.0001) // CINT =          0.000000000000000E+00
(PID.TID 0000.0001) // SYMBOLS (CMIN->CMAX): -abcdefghijklmnopqrstuvwxyz+
(PID.TID 0000.0001) //                  0.0: .
(PID.TID 0000.0001) // RANGE I (Lo:Hi:Step):(  -2:   6:   1)
(PID.TID 0000.0001) // RANGE J (Lo:Hi:Step):(   4:  -2:  -1)
(PID.TID 0000.0001) // RANGE K (Lo:Hi:Step):(   1:   1:   1)
(PID.TID 0000.0001) // =======================================================
(PID.TID 0000.0001) // =======================================================
(PID.TID 0000.0001) // END OF FIELD                                          =
(PID.TID 0000.0001) // =======================================================
(PID.TID 0000.0001) 
(PID.TID 0000.0001) // =======================================================
(PID.TID 0000.0001) // Field hFacS at iteration          1
(PID.TID 0000.0001) // CMIN =          1.000000000000000E+00
(PID.TID 0000.0001) // CMAX =          1.000000000000000E+00
(PID.TID 0000.0001) // CINT =          0.000000000000000E+00
(PID.TID 0000.0001) // SYMBOLS (CMIN->CMAX): -abcdefghijklmnopqrstuvwxyz+
(PID.TID 0000.0001) //                  0.0: .
(PID.TID 0000.0001) // RANGE I (Lo:Hi:Step):(  -2:   6:   1)
(PID.TID 0000.0001) // RANGE J (Lo:Hi:Step):(   4:  -2:  -1)
(PID.TID 0000.0001) // RANGE K (Lo:Hi:Step):(   1:   1:   1)
(PID.TID 0000.0001) // =======================================================
(PID.TID 0000.0001) // =======================================================
(PID.TID 0000.0001) // END OF FIELD                                          =
(PID.TID 0000.0001) // =======================================================
(PID.TID 0000.0001) 
(PID.TID 0000.0001) 
(PID.TID 0000.0001) // ===================================
(PID.TID 0000.0001) // GAD parameters :
(PID.TID 0000.0001) // ===================================
(PID.TID 0000.0001) tempAdvScheme =   /* Temp. Horiz.Advection scheme selector */
(PID.TID 0000.0001)                      33
(PID.TID 0000.0001)     ;
(PID.TID 0000.0001) tempVertAdvScheme =   /* Temp. Vert. Advection scheme selector */
(PID.TID 0000.0001)                      33
(PID.TID 0000.0001)     ;
(PID.TID 0000.0001) tempMultiDimAdvec =   /* use Muti-Dim Advec method for Temp */
(PID.TID 0000.0001)                   F
(PID.TID 0000.0001)     ;
(PID.TID 0000.0001) AdamsBashforthGt =   /* apply Adams-Bashforth extrapolation on Gt */
(PID.TID 0000.0001)                   F
(PID.TID 0000.0001)     ;
(PID.TID 0000.0001) AdamsBashforth_T =   /* apply Adams-Bashforth extrapolation on Temp */
(PID.TID 0000.0001)                   F
(PID.TID 0000.0001)     ;
(PID.TID 0000.0001) saltAdvScheme =   /* Salt. Horiz.advection scheme selector */
(PID.TID 0000.0001)                       2
(PID.TID 0000.0001)     ;
(PID.TID 0000.0001) saltVertAdvScheme =   /* Salt. Vert. Advection scheme selector */
(PID.TID 0000.0001)                       2
(PID.TID 0000.0001)     ;
(PID.TID 0000.0001) saltMultiDimAdvec =   /* use Muti-Dim Advec method for Salt */
(PID.TID 0000.0001)                   F
(PID.TID 0000.0001)     ;
(PID.TID 0000.0001) AdamsBashforthGs =   /* apply Adams-Bashforth extrapolation on Gs */
(PID.TID 0000.0001)                   T
(PID.TID 0000.0001)     ;
(PID.TID 0000.0001) AdamsBashforth_S =   /* apply Adams-Bashforth extrapolation on Salt */
(PID.TID 0000.0001)                   F
(PID.TID 0000.0001)     ;
(PID.TID 0000.0001) // ===================================
(PID.TID 0000.0001) OPPS_CHECK: #define ALLOW_OPPS
(PID.TID 0000.0001) %MON fCori_max                    =   1.4000000000000E-04
(PID.TID 0000.0001) %MON fCori_min                    =   1.4000000000000E-04
(PID.TID 0000.0001) %MON fCori_mean                   =   1.4000000000000E-04
(PID.TID 0000.0001) %MON fCori_sd                     =   0.0000000000000E+00
(PID.TID 0000.0001) %MON fCoriG_max                   =   1.4000000000000E-04
(PID.TID 0000.0001) %MON fCoriG_min                   =   1.4000000000000E-04
(PID.TID 0000.0001) %MON fCoriG_mean                  =   1.4000000000000E-04
(PID.TID 0000.0001) %MON fCoriG_sd                    =   0.0000000000000E+00
(PID.TID 0000.0001) %MON fCoriCos_max                 =   0.0000000000000E+00
(PID.TID 0000.0001) %MON fCoriCos_min                 =   0.0000000000000E+00
(PID.TID 0000.0001) %MON fCoriCos_mean                =   0.0000000000000E+00
(PID.TID 0000.0001) %MON fCoriCos_sd                  =   0.0000000000000E+00
(PID.TID 0000.0001) INI_CG2D: CG2D normalisation factor =  1.0000000000000000E-03
(PID.TID 0000.0001) 
(PID.TID 0000.0001) CONFIG_CHECK: OK
(PID.TID 0000.0001) // =======================================================
(PID.TID 0000.0001) // Model configuration
(PID.TID 0000.0001) // =======================================================
(PID.TID 0000.0001) //
(PID.TID 0000.0001) // "Physical" paramters ( PARM01 in namelist )
(PID.TID 0000.0001) //
(PID.TID 0000.0001) buoyancyRelation = OCEANIC
(PID.TID 0000.0001) fluidIsAir  =  /* fluid major constituent is Air */
(PID.TID 0000.0001)                   F
(PID.TID 0000.0001)     ;
(PID.TID 0000.0001) fluidIsWater=  /* fluid major constituent is Water */
(PID.TID 0000.0001)                   T
(PID.TID 0000.0001)     ;
(PID.TID 0000.0001) usingPCoords =  /* use p (or p*) vertical coordinate */
(PID.TID 0000.0001)                   F
(PID.TID 0000.0001)     ;
(PID.TID 0000.0001) usingZCoords =  /* use z (or z*) vertical coordinate */
(PID.TID 0000.0001)                   T
(PID.TID 0000.0001)     ;
(PID.TID 0000.0001) tRef =   /* Reference temperature profile ( oC or K ) */
(PID.TID 0000.0001)    20 @  1.000000000000000E+00              /* K =  1: 20 */
(PID.TID 0000.0001)     ;
(PID.TID 0000.0001) sRef =   /* Reference salinity profile ( psu ) */
(PID.TID 0000.0001)    20 @  3.500000000000000E+01              /* K =  1: 20 */
(PID.TID 0000.0001)     ;
(PID.TID 0000.0001) viscAh =   /* Lateral eddy viscosity ( m^2/s ) */
(PID.TID 0000.0001)                 0.000000000000000E+00
(PID.TID 0000.0001)     ;
(PID.TID 0000.0001) viscAhMax =   /* Maximum lateral eddy viscosity ( m^2/s ) */
(PID.TID 0000.0001)                 1.000000000000000E+21
(PID.TID 0000.0001)     ;
(PID.TID 0000.0001) viscAhGrid =   /* Grid dependent lateral eddy viscosity ( non-dim. ) */
(PID.TID 0000.0001)                 0.000000000000000E+00
(PID.TID 0000.0001)     ;
(PID.TID 0000.0001) useFullLeith =   /* Use Full Form of Leith Viscosity on/off flag*/
(PID.TID 0000.0001)                   F
(PID.TID 0000.0001)     ;
(PID.TID 0000.0001) useStrainTensionVisc =   /* Use StrainTension Form of Viscous Operator on/off flag*/
(PID.TID 0000.0001)                   F
(PID.TID 0000.0001)     ;
(PID.TID 0000.0001) useAreaViscLength =   /* Use area for visc length instead of geom. mean*/
(PID.TID 0000.0001)                   F
(PID.TID 0000.0001)     ;
(PID.TID 0000.0001) viscC2leith = /* Leith harmonic visc. factor (on grad(vort),non-dim.) */
(PID.TID 0000.0001)                 0.000000000000000E+00
(PID.TID 0000.0001)     ;
(PID.TID 0000.0001) viscC2leithD = /* Leith harmonic viscosity factor (on grad(div),non-dim.) */
(PID.TID 0000.0001)                 0.000000000000000E+00
(PID.TID 0000.0001)     ;
(PID.TID 0000.0001) viscC2smag =   /* Smagorinsky harmonic viscosity factor (non-dim.) */
(PID.TID 0000.0001)                 0.000000000000000E+00
(PID.TID 0000.0001)     ;
(PID.TID 0000.0001) viscA4 =   /* Lateral biharmonic viscosity ( m^4/s ) */
(PID.TID 0000.0001)                 0.000000000000000E+00
(PID.TID 0000.0001)     ;
(PID.TID 0000.0001) viscA4Max =   /* Maximum biharmonic viscosity ( m^2/s ) */
(PID.TID 0000.0001)                 1.000000000000000E+21
(PID.TID 0000.0001)     ;
(PID.TID 0000.0001) viscA4Grid =   /* Grid dependent biharmonic viscosity ( non-dim. ) */
(PID.TID 0000.0001)                 0.000000000000000E+00
(PID.TID 0000.0001)     ;
(PID.TID 0000.0001) viscC4leith = /* Leith biharm viscosity factor (on grad(vort), non-dim.) */
(PID.TID 0000.0001)                 0.000000000000000E+00
(PID.TID 0000.0001)     ;
(PID.TID 0000.0001) viscC4leithD = /* Leith biharm viscosity factor (on grad(div), non-dim.) */
(PID.TID 0000.0001)                 0.000000000000000E+00
(PID.TID 0000.0001)     ;
(PID.TID 0000.0001) viscC4Smag = /* Smagorinsky biharm viscosity factor (non-dim) */
(PID.TID 0000.0001)                 0.000000000000000E+00
(PID.TID 0000.0001)     ;
(PID.TID 0000.0001) no_slip_sides =  /* Viscous BCs: No-slip sides */
(PID.TID 0000.0001)                   T
(PID.TID 0000.0001)     ;
(PID.TID 0000.0001) sideDragFactor = /* side-drag scaling factor (non-dim) */
(PID.TID 0000.0001)                 2.000000000000000E+00
(PID.TID 0000.0001)     ;
(PID.TID 0000.0001) viscAr =   /* Vertical eddy viscosity ( units of r^2/s ) */
(PID.TID 0000.0001)                 1.000000000000000E-04
(PID.TID 0000.0001)     ;
(PID.TID 0000.0001) no_slip_bottom =  /* Viscous BCs: No-slip bottom */
(PID.TID 0000.0001)                   T
(PID.TID 0000.0001)     ;
(PID.TID 0000.0001) bottomDragLinear = /* linear bottom-drag coefficient ( 1/s ) */
(PID.TID 0000.0001)                 0.000000000000000E+00
(PID.TID 0000.0001)     ;
(PID.TID 0000.0001) bottomDragQuadratic = /* quadratic bottom-drag coeff. ( 1/m ) */
(PID.TID 0000.0001)                 0.000000000000000E+00
(PID.TID 0000.0001)     ;
(PID.TID 0000.0001) diffKhT =   /* Laplacian diffusion of heat laterally ( m^2/s ) */
(PID.TID 0000.0001)                 0.000000000000000E+00
(PID.TID 0000.0001)     ;
(PID.TID 0000.0001) diffK4T =   /* Bihaarmonic diffusion of heat laterally ( m^4/s ) */
(PID.TID 0000.0001)                 0.000000000000000E+00
(PID.TID 0000.0001)     ;
(PID.TID 0000.0001) diffKhS =   /* Laplacian diffusion of salt laterally ( m^2/s ) */
(PID.TID 0000.0001)                 0.000000000000000E+00
(PID.TID 0000.0001)     ;
(PID.TID 0000.0001) diffK4S =   /* Bihaarmonic diffusion of salt laterally ( m^4/s ) */
(PID.TID 0000.0001)                 0.000000000000000E+00
(PID.TID 0000.0001)     ;
(PID.TID 0000.0001) diffKrNrT = /* vertical profile of vertical diffusion of Temp ( m^2/s )*/
(PID.TID 0000.0001)    20 @  1.000000000000000E-05              /* K =  1: 20 */
(PID.TID 0000.0001)     ;
(PID.TID 0000.0001) diffKrNrS = /* vertical profile of vertical diffusion of Salt ( m^2/s )*/
(PID.TID 0000.0001)    20 @  1.000000000000000E-05              /* K =  1: 20 */
(PID.TID 0000.0001)     ;
(PID.TID 0000.0001) diffKrBL79surf =   /* Surface diffusion for Bryan and Lewis 1979 ( m^2/s ) */
(PID.TID 0000.0001)                 0.000000000000000E+00
(PID.TID 0000.0001)     ;
(PID.TID 0000.0001) diffKrBL79deep =   /* Deep diffusion for Bryan and Lewis 1979 ( m^2/s ) */
(PID.TID 0000.0001)                 0.000000000000000E+00
(PID.TID 0000.0001)     ;
(PID.TID 0000.0001) diffKrBL79scl =   /* Depth scale for Bryan and Lewis 1979 ( m ) */
(PID.TID 0000.0001)                 2.000000000000000E+02
(PID.TID 0000.0001)     ;
(PID.TID 0000.0001) diffKrBL79Ho =   /* Turning depth for Bryan and Lewis 1979 ( m ) */
(PID.TID 0000.0001)                -2.000000000000000E+03
(PID.TID 0000.0001)     ;
(PID.TID 0000.0001) Equation of State : eosType = LINEAR ;
(PID.TID 0000.0001) tAlpha =   /* Linear EOS thermal expansion coefficient ( 1/oC ) */
(PID.TID 0000.0001)                 2.000000000000000E-04
(PID.TID 0000.0001)     ;
(PID.TID 0000.0001) sBeta =   /* Linear EOS haline contraction coefficient ( 1/psu ) */
(PID.TID 0000.0001)                 0.000000000000000E+00
(PID.TID 0000.0001)     ;
(PID.TID 0000.0001) rhonil =   /* Reference density ( kg/m^3 ) */
(PID.TID 0000.0001)                 9.998000000000000E+02
(PID.TID 0000.0001)     ;
(PID.TID 0000.0001) rhoConst =   /* Reference density ( kg/m^3 ) */
(PID.TID 0000.0001)                 9.998000000000000E+02
(PID.TID 0000.0001)     ;
(PID.TID 0000.0001) rhoFacC = /* normalized Reference density @ cell-Center (-) */
(PID.TID 0000.0001)    20 @  1.000000000000000E+00              /* K =  1: 20 */
(PID.TID 0000.0001)     ;
(PID.TID 0000.0001) rhoFacF = /* normalized Reference density @ W-Interface (-) */
(PID.TID 0000.0001)    21 @  1.000000000000000E+00              /* K =  1: 21 */
(PID.TID 0000.0001)     ;
(PID.TID 0000.0001) rhoConstFresh =   /* Reference density ( kg/m^3 ) */
(PID.TID 0000.0001)                 9.998000000000000E+02
(PID.TID 0000.0001)     ;
(PID.TID 0000.0001) gravity =   /* Gravitational acceleration ( m/s^2 ) */
(PID.TID 0000.0001)                 9.810000000000000E+00
(PID.TID 0000.0001)     ;
(PID.TID 0000.0001) gBaro =   /* Barotropic gravity ( m/s^2 ) */
(PID.TID 0000.0001)                 9.810000000000000E+00
(PID.TID 0000.0001)     ;
(PID.TID 0000.0001) rotationPeriod =   /* Rotation Period ( s ) */
(PID.TID 0000.0001)                 8.616400000000000E+04
(PID.TID 0000.0001)     ;
(PID.TID 0000.0001) omega =   /* Angular velocity ( rad/s ) */
(PID.TID 0000.0001)                 7.292123516990375E-05
(PID.TID 0000.0001)     ;
(PID.TID 0000.0001) f0 =   /* Reference coriolis parameter ( 1/s ) */
(PID.TID 0000.0001)                 1.400000000000000E-04
(PID.TID 0000.0001)     ;
(PID.TID 0000.0001) beta =   /* Beta ( 1/(m.s) ) */
(PID.TID 0000.0001)                 0.000000000000000E+00
(PID.TID 0000.0001)     ;
(PID.TID 0000.0001) freeSurfFac =   /* Implicit free surface factor */
(PID.TID 0000.0001)                 1.000000000000000E+00
(PID.TID 0000.0001)     ;
(PID.TID 0000.0001) implicitFreeSurface =   /* Implicit free surface on/off flag */
(PID.TID 0000.0001)                   T
(PID.TID 0000.0001)     ;
(PID.TID 0000.0001) rigidLid =   /* Rigid lid on/off flag */
(PID.TID 0000.0001)                   F
(PID.TID 0000.0001)     ;
(PID.TID 0000.0001) implicSurfPress =   /* Surface Pressure implicit factor (0-1)*/
(PID.TID 0000.0001)                 1.000000000000000E+00
(PID.TID 0000.0001)     ;
(PID.TID 0000.0001) implicDiv2Dflow =   /* Barot. Flow Div. implicit factor (0-1)*/
(PID.TID 0000.0001)                 1.000000000000000E+00
(PID.TID 0000.0001)     ;
(PID.TID 0000.0001) exactConserv =   /* Exact Volume Conservation on/off flag*/
(PID.TID 0000.0001)                   F
(PID.TID 0000.0001)     ;
(PID.TID 0000.0001) uniformLin_PhiSurf =   /* use uniform Bo_surf on/off flag*/
(PID.TID 0000.0001)                   T
(PID.TID 0000.0001)     ;
(PID.TID 0000.0001) nonlinFreeSurf =   /* Non-linear Free Surf. options (-1,0,1,2,3)*/
(PID.TID 0000.0001)                       0
(PID.TID 0000.0001)     ;
(PID.TID 0000.0001)      -1,0= Off ; 1,2,3= On, 2=+rescale gU,gV, 3=+update cg2d solv.
(PID.TID 0000.0001) hFacInf =   /* lower threshold for hFac (nonlinFreeSurf only)*/
(PID.TID 0000.0001)                 2.000000000000000E-01
(PID.TID 0000.0001)     ;
(PID.TID 0000.0001) hFacSup =   /* upper threshold for hFac (nonlinFreeSurf only)*/
(PID.TID 0000.0001)                 2.000000000000000E+00
(PID.TID 0000.0001)     ;
(PID.TID 0000.0001) select_rStar =   /* r* Coordinate options (not yet implemented)*/
(PID.TID 0000.0001)                       0
(PID.TID 0000.0001)     ;
(PID.TID 0000.0001) useRealFreshWaterFlux =   /* Real Fresh Water Flux on/off flag*/
(PID.TID 0000.0001)                   F
(PID.TID 0000.0001)     ;
(PID.TID 0000.0001) convertFW2Salt = /* convert F.W. Flux to Salt Flux (-1=use local S)(ppt)*/
(PID.TID 0000.0001)                 3.500000000000000E+01
(PID.TID 0000.0001)     ;
(PID.TID 0000.0001) use3Dsolver = /* use 3-D pressure solver on/off flag */
(PID.TID 0000.0001)                   F
(PID.TID 0000.0001)     ;
(PID.TID 0000.0001) nonHydrostatic =  /* Non-Hydrostatic on/off flag */
(PID.TID 0000.0001)                   F
(PID.TID 0000.0001)     ;
(PID.TID 0000.0001) nh_Am2 = /* Non-Hydrostatic terms scaling factor */
(PID.TID 0000.0001)                 1.000000000000000E+00
(PID.TID 0000.0001)     ;
(PID.TID 0000.0001) quasiHydrostatic = /* Quasi-Hydrostatic on/off flag */
(PID.TID 0000.0001)                   F
(PID.TID 0000.0001)     ;
(PID.TID 0000.0001) momStepping =  /* Momentum equation on/off flag */
(PID.TID 0000.0001)                   T
(PID.TID 0000.0001)     ;
(PID.TID 0000.0001) vectorInvariantMomentum= /* Vector-Invariant Momentum on/off */
(PID.TID 0000.0001)                   F
(PID.TID 0000.0001)     ;
(PID.TID 0000.0001) momAdvection =  /* Momentum advection on/off flag */
(PID.TID 0000.0001)                   T
(PID.TID 0000.0001)     ;
(PID.TID 0000.0001) momViscosity =  /* Momentum viscosity on/off flag */
(PID.TID 0000.0001)                   T
(PID.TID 0000.0001)     ;
(PID.TID 0000.0001) momImplVertAdv =/* Momentum implicit vert. advection on/off*/
(PID.TID 0000.0001)                   F
(PID.TID 0000.0001)     ;
(PID.TID 0000.0001) implicitViscosity = /* Implicit viscosity on/off flag */
(PID.TID 0000.0001)                   T
(PID.TID 0000.0001)     ;
(PID.TID 0000.0001) metricTerms =  /* metric-Terms on/off flag */
(PID.TID 0000.0001)                   F
(PID.TID 0000.0001)     ;
(PID.TID 0000.0001) useNHMTerms = /* Non-Hydrostatic Metric-Terms on/off */
(PID.TID 0000.0001)                   F
(PID.TID 0000.0001)     ;
(PID.TID 0000.0001) useConstantF =  /* use Constant f0 Coriolis flag */
(PID.TID 0000.0001)                   F
(PID.TID 0000.0001)     ;
(PID.TID 0000.0001) useBetaPlaneF = /* use Beta-Plane Coriolis flag */
(PID.TID 0000.0001)                   T
(PID.TID 0000.0001)     ;
(PID.TID 0000.0001) useSphereF  =   /* use Spherical Coriolis flag */
(PID.TID 0000.0001)                   F
(PID.TID 0000.0001)     ;
(PID.TID 0000.0001) use3dCoriolis = /* 3-D Coriolis on/off flag */
(PID.TID 0000.0001)                   F
(PID.TID 0000.0001)     ;
(PID.TID 0000.0001) useCoriolis =  /* Coriolis on/off flag */
(PID.TID 0000.0001)                   T
(PID.TID 0000.0001)     ;
(PID.TID 0000.0001) useCDscheme =  /* CD scheme on/off flag */
(PID.TID 0000.0001)                   F
(PID.TID 0000.0001)     ;
(PID.TID 0000.0001) useJamartWetPoints= /* Coriolis WetPoints method flag */
(PID.TID 0000.0001)                   F
(PID.TID 0000.0001)     ;
(PID.TID 0000.0001) useJamartMomAdv= /* V.I. Non-linear terms Jamart flag */
(PID.TID 0000.0001)                   F
(PID.TID 0000.0001)     ;
(PID.TID 0000.0001) SadournyCoriolis= /* Sadourny Coriolis discr. flag */
(PID.TID 0000.0001)                   F
(PID.TID 0000.0001)     ;
(PID.TID 0000.0001) upwindVorticity= /* Upwind bias vorticity flag */
(PID.TID 0000.0001)                   F
(PID.TID 0000.0001)     ;
(PID.TID 0000.0001) useAbsVorticity= /* Work with f+zeta in Coriolis */
(PID.TID 0000.0001)                   F
(PID.TID 0000.0001)     ;
(PID.TID 0000.0001) highOrderVorticity= /* High order interp. of vort. flag */
(PID.TID 0000.0001)                   F
(PID.TID 0000.0001)     ;
(PID.TID 0000.0001) upwindShear= /* Upwind vertical Shear advection flag */
(PID.TID 0000.0001)                   F
(PID.TID 0000.0001)     ;
(PID.TID 0000.0001) selectKEscheme= /* Kinetic Energy scheme selector */
(PID.TID 0000.0001)                       0
(PID.TID 0000.0001)     ;
(PID.TID 0000.0001) momForcing =  /* Momentum forcing on/off flag */
(PID.TID 0000.0001)                   T
(PID.TID 0000.0001)     ;
(PID.TID 0000.0001) momPressureForcing =  /* Momentum pressure term on/off flag */
(PID.TID 0000.0001)                   T
(PID.TID 0000.0001)     ;
(PID.TID 0000.0001) implicitIntGravWave= /* Implicit Internal Gravity Wave flag */
(PID.TID 0000.0001)                   F
(PID.TID 0000.0001)     ;
(PID.TID 0000.0001) staggerTimeStep =   /* Stagger time stepping on/off flag */
(PID.TID 0000.0001)                   F
(PID.TID 0000.0001)     ;
(PID.TID 0000.0001) multiDimAdvection =   /* enable/disable Multi-Dim Advection */
(PID.TID 0000.0001)                   T
(PID.TID 0000.0001)     ;
(PID.TID 0000.0001) useMultiDimAdvec =   /* Multi-Dim Advection is/is-not used */
(PID.TID 0000.0001)                   F
(PID.TID 0000.0001)     ;
(PID.TID 0000.0001) implicitDiffusion =/* Implicit Diffusion on/off flag */
(PID.TID 0000.0001)                   T
(PID.TID 0000.0001)     ;
(PID.TID 0000.0001) tempStepping =  /* Temperature equation on/off flag */
(PID.TID 0000.0001)                   T
(PID.TID 0000.0001)     ;
(PID.TID 0000.0001) tempAdvection=  /* Temperature advection on/off flag */
(PID.TID 0000.0001)                   F
(PID.TID 0000.0001)     ;
(PID.TID 0000.0001) tempImplVertAdv =/* Temp. implicit vert. advection on/off */
(PID.TID 0000.0001)                   F
(PID.TID 0000.0001)     ;
(PID.TID 0000.0001) tempForcing  =  /* Temperature forcing on/off flag */
(PID.TID 0000.0001)                   T
(PID.TID 0000.0001)     ;
(PID.TID 0000.0001) saltStepping =  /* Salinity equation on/off flag */
(PID.TID 0000.0001)                   T
(PID.TID 0000.0001)     ;
(PID.TID 0000.0001) saltAdvection=  /* Salinity advection on/off flag */
(PID.TID 0000.0001)                   T
(PID.TID 0000.0001)     ;
(PID.TID 0000.0001) saltImplVertAdv =/* Sali. implicit vert. advection on/off */
(PID.TID 0000.0001)                   F
(PID.TID 0000.0001)     ;
(PID.TID 0000.0001) saltForcing  =  /* Salinity forcing on/off flag */
(PID.TID 0000.0001)                   T
(PID.TID 0000.0001)     ;
(PID.TID 0000.0001)  readBinaryPrec = /* Precision used for reading binary files */
(PID.TID 0000.0001)                      64
(PID.TID 0000.0001)     ;
(PID.TID 0000.0001) writeBinaryPrec = /* Precision used for writing binary files */
(PID.TID 0000.0001)                      32
(PID.TID 0000.0001)     ;
(PID.TID 0000.0001)  globalFiles = /* write "global" (=not per tile) files */
(PID.TID 0000.0001)                   F
(PID.TID 0000.0001)     ;
(PID.TID 0000.0001)  useSingleCpuIO = /* only master MPI process does I/O */
(PID.TID 0000.0001)                   F
(PID.TID 0000.0001)     ;
(PID.TID 0000.0001)  debugMode  =  /* Debug Mode on/off flag */
(PID.TID 0000.0001)                   F
(PID.TID 0000.0001)     ;
(PID.TID 0000.0001)    debLevA  =  /* 1rst level of debugging */
(PID.TID 0000.0001)                       1
(PID.TID 0000.0001)     ;
(PID.TID 0000.0001)    debLevB  =  /* 2nd  level of debugging */
(PID.TID 0000.0001)                       2
(PID.TID 0000.0001)     ;
(PID.TID 0000.0001)  debugLevel =  /* select debugging level */
(PID.TID 0000.0001)                       1
(PID.TID 0000.0001)     ;
(PID.TID 0000.0001) //
(PID.TID 0000.0001) // Elliptic solver(s) paramters ( PARM02 in namelist )
(PID.TID 0000.0001) //
(PID.TID 0000.0001) cg2dMaxIters =   /* Upper limit on 2d con. grad iterations  */
(PID.TID 0000.0001)                     300
(PID.TID 0000.0001)     ;
(PID.TID 0000.0001) cg2dChkResFreq =   /* 2d con. grad convergence test frequency */
(PID.TID 0000.0001)                       1
(PID.TID 0000.0001)     ;
(PID.TID 0000.0001) cg2dTargetResidual =   /* 2d con. grad target residual  */
(PID.TID 0000.0001)                 1.000000000000000E-13
(PID.TID 0000.0001)     ;
(PID.TID 0000.0001) cg2dTargetResWunit =   /* CG2d target residual [W units] */
(PID.TID 0000.0001)                -1.000000000000000E+00
(PID.TID 0000.0001)     ;
(PID.TID 0000.0001) cg2dPreCondFreq =   /* Freq. for updating cg2d preconditioner */
(PID.TID 0000.0001)                       1
(PID.TID 0000.0001)     ;
(PID.TID 0000.0001) //
(PID.TID 0000.0001) // Time stepping paramters ( PARM03 in namelist )
(PID.TID 0000.0001) //
(PID.TID 0000.0001) nIter0 =   /* Run starting timestep number  */
(PID.TID 0000.0001)                       0
(PID.TID 0000.0001)     ;
(PID.TID 0000.0001) nTimeSteps =   /* Number of timesteps */
(PID.TID 0000.0001)                      20
(PID.TID 0000.0001)     ;
(PID.TID 0000.0001) deltaTmom =   /* Momentum equation timestep ( s ) */
(PID.TID 0000.0001)                 1.200000000000000E+03
(PID.TID 0000.0001)     ;
(PID.TID 0000.0001) deltaTfreesurf =   /* FreeSurface equation timestep ( s ) */
(PID.TID 0000.0001)                 1.200000000000000E+03
(PID.TID 0000.0001)     ;
(PID.TID 0000.0001) dTtracerLev =   /* Tracer equation timestep ( s ) */
(PID.TID 0000.0001)    20 @  1.200000000000000E+03              /* K =  1: 20 */
(PID.TID 0000.0001)     ;
(PID.TID 0000.0001) deltaTClock  =   /* Model clock timestep ( s ) */
(PID.TID 0000.0001)                 1.200000000000000E+03
(PID.TID 0000.0001)     ;
(PID.TID 0000.0001) cAdjFreq =   /* Convective adjustment interval ( s ) */
(PID.TID 0000.0001)                 0.000000000000000E+00
(PID.TID 0000.0001)     ;
(PID.TID 0000.0001) momForcingOutAB = /* =1: take Momentum Forcing out of Adams-Bash. stepping */
(PID.TID 0000.0001)                       0
(PID.TID 0000.0001)     ;
(PID.TID 0000.0001) tracForcingOutAB = /* =1: take T,S,pTr Forcing out of Adams-Bash. stepping */
(PID.TID 0000.0001)                       0
(PID.TID 0000.0001)     ;
(PID.TID 0000.0001) momDissip_In_AB = /* put Dissipation Tendency in Adams-Bash. stepping */
(PID.TID 0000.0001)                   T
(PID.TID 0000.0001)     ;
(PID.TID 0000.0001) doAB_onGtGs = /* apply AB on Tendencies (rather than on T,S)*/
(PID.TID 0000.0001)                   T
(PID.TID 0000.0001)     ;
(PID.TID 0000.0001) abEps =   /* Adams-Bashforth-2 stabilizing weight */
(PID.TID 0000.0001)                 1.000000000000000E-02
(PID.TID 0000.0001)     ;
(PID.TID 0000.0001) baseTime =   /* Model base time ( s ). */
(PID.TID 0000.0001)                 0.000000000000000E+00
(PID.TID 0000.0001)     ;
(PID.TID 0000.0001) startTime =   /* Run start time ( s ). */
(PID.TID 0000.0001)                 0.000000000000000E+00
(PID.TID 0000.0001)     ;
(PID.TID 0000.0001) endTime =   /* Integration ending time ( s ). */
(PID.TID 0000.0001)                 2.400000000000000E+04
(PID.TID 0000.0001)     ;
(PID.TID 0000.0001) pChkPtFreq =   /* Permanent restart/checkpoint file interval ( s ). */
(PID.TID 0000.0001)                 0.000000000000000E+00
(PID.TID 0000.0001)     ;
(PID.TID 0000.0001) chkPtFreq =   /* Rolling restart/checkpoint file interval ( s ). */
(PID.TID 0000.0001)                 0.000000000000000E+00
(PID.TID 0000.0001)     ;
(PID.TID 0000.0001) pickup_write_mdsio =   /* Model IO flag. */
(PID.TID 0000.0001)                   T
(PID.TID 0000.0001)     ;
(PID.TID 0000.0001) pickup_read_mdsio =   /* Model IO flag. */
(PID.TID 0000.0001)                   T
(PID.TID 0000.0001)     ;
(PID.TID 0000.0001) pickup_write_immed =   /* Model IO flag. */
(PID.TID 0000.0001)                   F
(PID.TID 0000.0001)     ;
(PID.TID 0000.0001) dumpFreq =   /* Model state write out interval ( s ). */
(PID.TID 0000.0001)                 8.640000000000000E+04
(PID.TID 0000.0001)     ;
(PID.TID 0000.0001) dumpInitAndLast= /* write out Initial & Last iter. model state */
(PID.TID 0000.0001)                   T
(PID.TID 0000.0001)     ;
(PID.TID 0000.0001) snapshot_mdsio =   /* Model IO flag. */
(PID.TID 0000.0001)                   T
(PID.TID 0000.0001)     ;
(PID.TID 0000.0001) monitorFreq =   /* Monitor output interval ( s ). */
(PID.TID 0000.0001)                 1.000000000000000E+00
(PID.TID 0000.0001)     ;
(PID.TID 0000.0001) monitor_stdio =   /* Model IO flag. */
(PID.TID 0000.0001)                   T
(PID.TID 0000.0001)     ;
(PID.TID 0000.0001) externForcingPeriod =   /* forcing period (s) */
(PID.TID 0000.0001)                 0.000000000000000E+00
(PID.TID 0000.0001)     ;
(PID.TID 0000.0001) externForcingCycle =   /* period of the cyle (s). */
(PID.TID 0000.0001)                 0.000000000000000E+00
(PID.TID 0000.0001)     ;
(PID.TID 0000.0001) tauThetaClimRelax =   /* relaxation time scale (s) */
(PID.TID 0000.0001)                 0.000000000000000E+00
(PID.TID 0000.0001)     ;
(PID.TID 0000.0001) tauSaltClimRelax =   /* relaxation time scale (s) */
(PID.TID 0000.0001)                 0.000000000000000E+00
(PID.TID 0000.0001)     ;
(PID.TID 0000.0001) latBandClimRelax =   /* max. Lat. where relaxation */
(PID.TID 0000.0001)                 1.500000000000000E+04
(PID.TID 0000.0001)     ;
(PID.TID 0000.0001) //
(PID.TID 0000.0001) // Gridding paramters ( PARM04 in namelist )
(PID.TID 0000.0001) //
(PID.TID 0000.0001) usingCartesianGrid = /* Cartesian coordinates flag ( True/False ) */
(PID.TID 0000.0001)                   T
(PID.TID 0000.0001)     ;
(PID.TID 0000.0001) usingCylindricalGrid = /* Cylindrical coordinates flag ( True/False ) */
(PID.TID 0000.0001)                   F
(PID.TID 0000.0001)     ;
(PID.TID 0000.0001) usingSphericalPolarGrid = /* Spherical coordinates flag ( True/False ) */
(PID.TID 0000.0001)                   F
(PID.TID 0000.0001)     ;
(PID.TID 0000.0001) usingCurvilinearGrid = /* Curvilinear coordinates flag ( True/False ) */
(PID.TID 0000.0001)                   F
(PID.TID 0000.0001)     ;
(PID.TID 0000.0001) Ro_SeaLevel = /* r(1) ( units of r ) */
(PID.TID 0000.0001)                 0.000000000000000E+00
(PID.TID 0000.0001)     ;
(PID.TID 0000.0001) rkSign =   /* index orientation relative to vertical coordinate */
(PID.TID 0000.0001)                -1.000000000000000E+00
(PID.TID 0000.0001)     ;
(PID.TID 0000.0001) gravitySign = /* gravity orientation relative to vertical coordinate */
(PID.TID 0000.0001)                -1.000000000000000E+00
(PID.TID 0000.0001)     ;
(PID.TID 0000.0001) horiVertRatio =   /* Ratio on units : Horiz - Vertical */
(PID.TID 0000.0001)                 1.000000000000000E+00
(PID.TID 0000.0001)     ;
(PID.TID 0000.0001) drC =   /* C spacing ( units of r ) */
(PID.TID 0000.0001)                 2.500000000000000E+01,      /* K =  1 */
(PID.TID 0000.0001)    19 @  5.000000000000000E+01              /* K =  2: 20 */
(PID.TID 0000.0001)     ;
(PID.TID 0000.0001) drF =   /* W spacing ( units of r ) */
(PID.TID 0000.0001)    20 @  5.000000000000000E+01              /* K =  1: 20 */
(PID.TID 0000.0001)     ;
(PID.TID 0000.0001) delX =   /* U spacing ( m - cartesian, degrees - spherical ) */
(PID.TID 0000.0001)     3 @  5.000000000000000E+03              /* I =  1:  3 */
(PID.TID 0000.0001)     ;
(PID.TID 0000.0001) delY =   /* V spacing ( m - cartesian, degrees - spherical ) */
(PID.TID 0000.0001)                 5.000000000000000E+03       /* J =  1 */
(PID.TID 0000.0001)     ;
(PID.TID 0000.0001) phiMin =    /* South edge (ignored - cartesian, degrees - spherical ) */
(PID.TID 0000.0001)                 0.000000000000000E+00
(PID.TID 0000.0001)     ;
(PID.TID 0000.0001) thetaMin =    /* West edge ( ignored - cartesian, degrees - spherical ) */
(PID.TID 0000.0001)                 0.000000000000000E+00
(PID.TID 0000.0001)     ;
(PID.TID 0000.0001) rSphere =  /* Radius ( ignored - cartesian, m - spherical ) */
(PID.TID 0000.0001)                 6.370000000000000E+06
(PID.TID 0000.0001)     ;
(PID.TID 0000.0001) deepAtmosphere = /* Deep/Shallow Atmosphere flag (True/False) */
(PID.TID 0000.0001)                   F
(PID.TID 0000.0001)     ;
(PID.TID 0000.0001) xcoord =   /* P-point X coord ( m - cartesian, degrees - spherical ) */
(PID.TID 0000.0001)                 2.500000000000000E+03,      /* I =  1 */
(PID.TID 0000.0001)                 7.500000000000000E+03,      /* I =  2 */
(PID.TID 0000.0001)                 1.250000000000000E+04       /* I =  3 */
(PID.TID 0000.0001)     ;
(PID.TID 0000.0001) ycoord =   /* P-point Y coord ( m - cartesian, degrees - spherical ) */
(PID.TID 0000.0001)                 2.500000000000000E+03       /* J =  1 */
(PID.TID 0000.0001)     ;
(PID.TID 0000.0001) rcoord =   /* P-point R coordinate (  units of r ) */
(PID.TID 0000.0001)                -2.500000000000000E+01,      /* K =  1 */
(PID.TID 0000.0001)                -7.500000000000000E+01,      /* K =  2 */
(PID.TID 0000.0001)                -1.250000000000000E+02,      /* K =  3 */
(PID.TID 0000.0001)                -1.750000000000000E+02,      /* K =  4 */
(PID.TID 0000.0001)                -2.250000000000000E+02,      /* K =  5 */
(PID.TID 0000.0001)                -2.750000000000000E+02,      /* K =  6 */
(PID.TID 0000.0001)                -3.250000000000000E+02,      /* K =  7 */
(PID.TID 0000.0001)                -3.750000000000000E+02,      /* K =  8 */
(PID.TID 0000.0001)                -4.250000000000000E+02,      /* K =  9 */
(PID.TID 0000.0001)                -4.750000000000000E+02,      /* K = 10 */
(PID.TID 0000.0001)                -5.250000000000000E+02,      /* K = 11 */
(PID.TID 0000.0001)                -5.750000000000000E+02,      /* K = 12 */
(PID.TID 0000.0001)                -6.250000000000000E+02,      /* K = 13 */
(PID.TID 0000.0001)                -6.750000000000000E+02,      /* K = 14 */
(PID.TID 0000.0001)                -7.250000000000000E+02,      /* K = 15 */
(PID.TID 0000.0001)                -7.750000000000000E+02,      /* K = 16 */
(PID.TID 0000.0001)                -8.250000000000000E+02,      /* K = 17 */
(PID.TID 0000.0001)                -8.750000000000000E+02,      /* K = 18 */
(PID.TID 0000.0001)                -9.250000000000000E+02,      /* K = 19 */
(PID.TID 0000.0001)                -9.750000000000000E+02       /* K = 20 */
(PID.TID 0000.0001)     ;
(PID.TID 0000.0001) rF =   /* W-Interf. R coordinate (  units of r ) */
(PID.TID 0000.0001)                 0.000000000000000E+00,      /* K =  1 */
(PID.TID 0000.0001)                -5.000000000000000E+01,      /* K =  2 */
(PID.TID 0000.0001)                -1.000000000000000E+02,      /* K =  3 */
(PID.TID 0000.0001)                -1.500000000000000E+02,      /* K =  4 */
(PID.TID 0000.0001)                -2.000000000000000E+02,      /* K =  5 */
(PID.TID 0000.0001)                -2.500000000000000E+02,      /* K =  6 */
(PID.TID 0000.0001)                -3.000000000000000E+02,      /* K =  7 */
(PID.TID 0000.0001)                -3.500000000000000E+02,      /* K =  8 */
(PID.TID 0000.0001)                -4.000000000000000E+02,      /* K =  9 */
(PID.TID 0000.0001)                -4.500000000000000E+02,      /* K = 10 */
(PID.TID 0000.0001)                -5.000000000000000E+02,      /* K = 11 */
(PID.TID 0000.0001)                -5.500000000000000E+02,      /* K = 12 */
(PID.TID 0000.0001)                -6.000000000000000E+02,      /* K = 13 */
(PID.TID 0000.0001)                -6.500000000000000E+02,      /* K = 14 */
(PID.TID 0000.0001)                -7.000000000000000E+02,      /* K = 15 */
(PID.TID 0000.0001)                -7.500000000000000E+02,      /* K = 16 */
(PID.TID 0000.0001)                -8.000000000000000E+02,      /* K = 17 */
(PID.TID 0000.0001)                -8.500000000000000E+02,      /* K = 18 */
(PID.TID 0000.0001)                -9.000000000000000E+02,      /* K = 19 */
(PID.TID 0000.0001)                -9.500000000000000E+02,      /* K = 20 */
(PID.TID 0000.0001)                -1.000000000000000E+03       /* K = 21 */
(PID.TID 0000.0001)     ;
(PID.TID 0000.0001) deepFacC = /* deep-model grid factor @ cell-Center (-) */
(PID.TID 0000.0001)    20 @  1.000000000000000E+00              /* K =  1: 20 */
(PID.TID 0000.0001)     ;
(PID.TID 0000.0001) deepFacF = /* deep-model grid factor @ W-Interface (-) */
(PID.TID 0000.0001)    21 @  1.000000000000000E+00              /* K =  1: 21 */
(PID.TID 0000.0001)     ;
(PID.TID 0000.0001) dBdrRef = /* Vertical gradient of reference boyancy [(m/s/r)^2)] */
(PID.TID 0000.0001)    20 @  0.000000000000000E+00              /* K =  1: 20 */
(PID.TID 0000.0001)     ;
(PID.TID 0000.0001) dxF =  /* dxF(:,1,:,1) ( units: m ) */
(PID.TID 0000.0001)     3 @  5.000000000000000E+03              /* I =  1:  3 */
(PID.TID 0000.0001)     ;
(PID.TID 0000.0001) dxF =  /* dxF(1,:,1,:) ( units: m ) */
(PID.TID 0000.0001)                 5.000000000000000E+03       /* J =  1 */
(PID.TID 0000.0001)     ;
(PID.TID 0000.0001) dyF =  /* dyF(:,1,:,1) ( units: m ) */
(PID.TID 0000.0001)     3 @  5.000000000000000E+03              /* I =  1:  3 */
(PID.TID 0000.0001)     ;
(PID.TID 0000.0001) dyF =  /* dyF(1,:,1,:) ( units: m ) */
(PID.TID 0000.0001)                 5.000000000000000E+03       /* J =  1 */
(PID.TID 0000.0001)     ;
(PID.TID 0000.0001) dxG =  /* dxG(:,1,:,1) ( units: m ) */
(PID.TID 0000.0001)     3 @  5.000000000000000E+03              /* I =  1:  3 */
(PID.TID 0000.0001)     ;
(PID.TID 0000.0001) dxG =  /* dxG(1,:,1,:) ( units: m ) */
(PID.TID 0000.0001)                 5.000000000000000E+03       /* J =  1 */
(PID.TID 0000.0001)     ;
(PID.TID 0000.0001) dyG =  /* dyG(:,1,:,1) ( units: m ) */
(PID.TID 0000.0001)     3 @  5.000000000000000E+03              /* I =  1:  3 */
(PID.TID 0000.0001)     ;
(PID.TID 0000.0001) dyG =  /* dyG(1,:,1,:) ( units: m ) */
(PID.TID 0000.0001)                 5.000000000000000E+03       /* J =  1 */
(PID.TID 0000.0001)     ;
(PID.TID 0000.0001) dxC =  /* dxC(:,1,:,1) ( units: m ) */
(PID.TID 0000.0001)     3 @  5.000000000000000E+03              /* I =  1:  3 */
(PID.TID 0000.0001)     ;
(PID.TID 0000.0001) dxC =  /* dxC(1,:,1,:) ( units: m ) */
(PID.TID 0000.0001)                 5.000000000000000E+03       /* J =  1 */
(PID.TID 0000.0001)     ;
(PID.TID 0000.0001) dyC =  /* dyC(:,1,:,1) ( units: m ) */
(PID.TID 0000.0001)     3 @  5.000000000000000E+03              /* I =  1:  3 */
(PID.TID 0000.0001)     ;
(PID.TID 0000.0001) dyC =  /* dyC(1,:,1,:) ( units: m ) */
(PID.TID 0000.0001)                 5.000000000000000E+03       /* J =  1 */
(PID.TID 0000.0001)     ;
(PID.TID 0000.0001) dxV =  /* dxV(:,1,:,1) ( units: m ) */
(PID.TID 0000.0001)     3 @  5.000000000000000E+03              /* I =  1:  3 */
(PID.TID 0000.0001)     ;
(PID.TID 0000.0001) dxV =  /* dxV(1,:,1,:) ( units: m ) */
(PID.TID 0000.0001)                 5.000000000000000E+03       /* J =  1 */
(PID.TID 0000.0001)     ;
(PID.TID 0000.0001) dyU =  /* dyU(:,1,:,1) ( units: m ) */
(PID.TID 0000.0001)     3 @  5.000000000000000E+03              /* I =  1:  3 */
(PID.TID 0000.0001)     ;
(PID.TID 0000.0001) dyU =  /* dyU(1,:,1,:) ( units: m ) */
(PID.TID 0000.0001)                 5.000000000000000E+03       /* J =  1 */
(PID.TID 0000.0001)     ;
(PID.TID 0000.0001) rA  =  /* rA (:,1,:,1) ( units: m^2 ) */
(PID.TID 0000.0001)     3 @  2.500000000000000E+07              /* I =  1:  3 */
(PID.TID 0000.0001)     ;
(PID.TID 0000.0001) rA  =  /* rA (1,:,1,:) ( units: m^2 ) */
(PID.TID 0000.0001)                 2.500000000000000E+07       /* J =  1 */
(PID.TID 0000.0001)     ;
(PID.TID 0000.0001) rAw =  /* rAw(:,1,:,1) ( units: m^2 ) */
(PID.TID 0000.0001)     3 @  2.500000000000000E+07              /* I =  1:  3 */
(PID.TID 0000.0001)     ;
(PID.TID 0000.0001) rAw =  /* rAw(1,:,1,:) ( units: m^2 ) */
(PID.TID 0000.0001)                 2.500000000000000E+07       /* J =  1 */
(PID.TID 0000.0001)     ;
(PID.TID 0000.0001) rAs =  /* rAs(:,1,:,1) ( units: m^2 ) */
(PID.TID 0000.0001)     3 @  2.500000000000000E+07              /* I =  1:  3 */
(PID.TID 0000.0001)     ;
(PID.TID 0000.0001) rAs =  /* rAs(1,:,1,:) ( units: m^2 ) */
(PID.TID 0000.0001)                 2.500000000000000E+07       /* J =  1 */
(PID.TID 0000.0001)     ;
(PID.TID 0000.0001) globalArea = /* Integrated horizontal Area (m^2) */
(PID.TID 0000.0001)                 7.500000000000000E+07
(PID.TID 0000.0001)     ;
(PID.TID 0000.0001) // =======================================================
(PID.TID 0000.0001) // End of Model config. summary
(PID.TID 0000.0001) // =======================================================
(PID.TID 0000.0001) 
(PID.TID 0000.0001)  MDSREADFIELD: opening global file: Tstable2.init
(PID.TID 0000.0001) // =======================================================
(PID.TID 0000.0001) // Field Initial Temperature at iteration          1
(PID.TID 0000.0001) // CMIN =          1.434760448521916E+00
(PID.TID 0000.0001) // CMAX =          2.934760448521916E+00
(PID.TID 0000.0001) // CINT =          5.555555555555555E-02
(PID.TID 0000.0001) // SYMBOLS (CMIN->CMAX): -abcdefghijklmnopqrstuvwxyz+
(PID.TID 0000.0001) //                  0.0: .
(PID.TID 0000.0001) // RANGE I (Lo:Hi:Step):(   1:   3:   1)
(PID.TID 0000.0001) // RANGE J (Lo:Hi:Step):(   1:   1:  -1)
(PID.TID 0000.0001) // RANGE K (Lo:Hi:Step):(   1:   1:   1)
(PID.TID 0000.0001) // =======================================================
(PID.TID 0000.0001) K =   1
(PID.TID 0000.0001) 
(PID.TID 0000.0001) |--J--|123
(PID.TID 0000.0001)      1 +-+
(PID.TID 0000.0001) // =======================================================
(PID.TID 0000.0001) // END OF FIELD                                          =
(PID.TID 0000.0001) // =======================================================
(PID.TID 0000.0001) 
(PID.TID 0000.0001) // =======================================================
(PID.TID 0000.0001) // Field Initial Salinity at iteration          1
(PID.TID 0000.0001) // CMIN =          3.500000000000000E+01
(PID.TID 0000.0001) // CMAX =          3.500000000000000E+01
(PID.TID 0000.0001) // CINT =          0.000000000000000E+00
(PID.TID 0000.0001) // SYMBOLS (CMIN->CMAX): -abcdefghijklmnopqrstuvwxyz+
(PID.TID 0000.0001) //                  0.0: .
(PID.TID 0000.0001) // RANGE I (Lo:Hi:Step):(   1:   3:   1)
(PID.TID 0000.0001) // RANGE J (Lo:Hi:Step):(   1:   1:  -1)
(PID.TID 0000.0001) // RANGE K (Lo:Hi:Step):(   1:   1:   1)
(PID.TID 0000.0001) // =======================================================
(PID.TID 0000.0001) // =======================================================
(PID.TID 0000.0001) // END OF FIELD                                          =
(PID.TID 0000.0001) // =======================================================
(PID.TID 0000.0001) 
(PID.TID 0000.0001) Start initial hydrostatic pressure computation
(PID.TID 0000.0001) Pressure is predetermined for buoyancyRelation OCEANIC
(PID.TID 0000.0001) 
(PID.TID 0000.0001)  MDSREADFIELD: opening global file: taux.forcing
(PID.TID 0000.0001)  MDSREADFIELD: opening global file: Qnet.forcing
(PID.TID 0000.0001) // =======================================================
(PID.TID 0000.0001) // Model current state
(PID.TID 0000.0001) // =======================================================
(PID.TID 0000.0001) 
(PID.TID 0000.0001) // =======================================================
(PID.TID 0000.0001) // Begin MONITOR dynamic field statistics
(PID.TID 0000.0001) // =======================================================
(PID.TID 0000.0001) %MON time_tsnumber                =                     0
(PID.TID 0000.0001) %MON time_secondsf                =   0.0000000000000E+00
(PID.TID 0000.0001) %MON dynstat_eta_max              =   0.0000000000000E+00
(PID.TID 0000.0001) %MON dynstat_eta_min              =   0.0000000000000E+00
(PID.TID 0000.0001) %MON dynstat_eta_mean             =   0.0000000000000E+00
(PID.TID 0000.0001) %MON dynstat_eta_sd               =   0.0000000000000E+00
(PID.TID 0000.0001) %MON dynstat_eta_del2             =   0.0000000000000E+00
(PID.TID 0000.0001) %MON dynstat_uvel_max             =   0.0000000000000E+00
(PID.TID 0000.0001) %MON dynstat_uvel_min             =   0.0000000000000E+00
(PID.TID 0000.0001) %MON dynstat_uvel_mean            =   0.0000000000000E+00
(PID.TID 0000.0001) %MON dynstat_uvel_sd              =   0.0000000000000E+00
(PID.TID 0000.0001) %MON dynstat_uvel_del2            =   0.0000000000000E+00
(PID.TID 0000.0001) %MON dynstat_vvel_max             =   0.0000000000000E+00
(PID.TID 0000.0001) %MON dynstat_vvel_min             =   0.0000000000000E+00
(PID.TID 0000.0001) %MON dynstat_vvel_mean            =   0.0000000000000E+00
(PID.TID 0000.0001) %MON dynstat_vvel_sd              =   0.0000000000000E+00
(PID.TID 0000.0001) %MON dynstat_vvel_del2            =   0.0000000000000E+00
(PID.TID 0000.0001) %MON dynstat_wvel_max             =   0.0000000000000E+00
(PID.TID 0000.0001) %MON dynstat_wvel_min             =   0.0000000000000E+00
(PID.TID 0000.0001) %MON dynstat_wvel_mean            =   0.0000000000000E+00
(PID.TID 0000.0001) %MON dynstat_wvel_sd              =   0.0000000000000E+00
(PID.TID 0000.0001) %MON dynstat_wvel_del2            =   0.0000000000000E+00
(PID.TID 0000.0001) %MON dynstat_theta_max            =   2.9347604485219E+00
(PID.TID 0000.0001) %MON dynstat_theta_min            =   4.5565749235474E-01
(PID.TID 0000.0001) %MON dynstat_theta_mean           =   1.6702089704383E+00
(PID.TID 0000.0001) %MON dynstat_theta_sd             =   7.3550792201376E-01
(PID.TID 0000.0001) %MON dynstat_theta_del2           =   2.5000000000000E-02
(PID.TID 0000.0001) %MON dynstat_salt_max             =   3.5000000000000E+01
(PID.TID 0000.0001) %MON dynstat_salt_min             =   3.5000000000000E+01
(PID.TID 0000.0001) %MON dynstat_salt_mean            =   3.5000000000000E+01
(PID.TID 0000.0001) %MON dynstat_salt_sd              =   0.0000000000000E+00
(PID.TID 0000.0001) %MON dynstat_salt_del2            =   0.0000000000000E+00
(PID.TID 0000.0001) %MON dynstat_sst_max              =   2.9347604485219E+00
(PID.TID 0000.0001) %MON dynstat_sst_min              =   1.4347604485219E+00
(PID.TID 0000.0001) %MON dynstat_sst_mean             =   2.4347604485219E+00
(PID.TID 0000.0001) %MON dynstat_sst_sd               =   7.0710678118655E-01
(PID.TID 0000.0001) %MON dynstat_sst_del2             =   5.0000000000000E-01
(PID.TID 0000.0001) %MON dynstat_sss_max              =   3.5000000000000E+01
(PID.TID 0000.0001) %MON dynstat_sss_min              =   3.5000000000000E+01
(PID.TID 0000.0001) %MON dynstat_sss_mean             =   3.5000000000000E+01
(PID.TID 0000.0001) %MON dynstat_sss_sd               =   0.0000000000000E+00
(PID.TID 0000.0001) %MON dynstat_sss_del2             =   0.0000000000000E+00
(PID.TID 0000.0001) %MON extforcing_qnet_max          =   2.0000000000000E+02
(PID.TID 0000.0001) %MON extforcing_qnet_min          =   0.0000000000000E+00
(PID.TID 0000.0001) %MON extforcing_qnet_mean         =   6.6666666666667E+01
(PID.TID 0000.0001) %MON extforcing_qnet_sd           =   9.4280904158206E+01
(PID.TID 0000.0001) %MON extforcing_qnet_del2         =   6.6666666666667E+01
(PID.TID 0000.0001) %MON extforcing_qsw_max           =   0.0000000000000E+00
(PID.TID 0000.0001) %MON extforcing_qsw_min           =   0.0000000000000E+00
(PID.TID 0000.0001) %MON extforcing_qsw_mean          =   0.0000000000000E+00
(PID.TID 0000.0001) %MON extforcing_qsw_sd            =   0.0000000000000E+00
(PID.TID 0000.0001) %MON extforcing_qsw_del2          =   0.0000000000000E+00
(PID.TID 0000.0001) %MON extforcing_empmr_max         =   0.0000000000000E+00
(PID.TID 0000.0001) %MON extforcing_empmr_min         =   0.0000000000000E+00
(PID.TID 0000.0001) %MON extforcing_empmr_mean        =   0.0000000000000E+00
(PID.TID 0000.0001) %MON extforcing_empmr_sd          =   0.0000000000000E+00
(PID.TID 0000.0001) %MON extforcing_empmr_del2        =   0.0000000000000E+00
(PID.TID 0000.0001) %MON extforcing_fu_max            =   1.0000000000000E+00
(PID.TID 0000.0001) %MON extforcing_fu_min            =   0.0000000000000E+00
(PID.TID 0000.0001) %MON extforcing_fu_mean           =   6.6666666666667E-01
(PID.TID 0000.0001) %MON extforcing_fu_sd             =   4.7140452079103E-01
(PID.TID 0000.0001) %MON extforcing_fu_del2           =   3.3333333333333E-01
(PID.TID 0000.0001) %MON extforcing_fv_max            =   0.0000000000000E+00
(PID.TID 0000.0001) %MON extforcing_fv_min            =   0.0000000000000E+00
(PID.TID 0000.0001) %MON extforcing_fv_mean           =   0.0000000000000E+00
(PID.TID 0000.0001) %MON extforcing_fv_sd             =   0.0000000000000E+00
(PID.TID 0000.0001) %MON extforcing_fv_del2           =   0.0000000000000E+00
(PID.TID 0000.0001) %MON advcfl_uvel_max              =   0.0000000000000E+00
(PID.TID 0000.0001) %MON advcfl_vvel_max              =   0.0000000000000E+00
(PID.TID 0000.0001) %MON advcfl_wvel_max              =   0.0000000000000E+00
(PID.TID 0000.0001) %MON advcfl_W_hf_max              =   0.0000000000000E+00
(PID.TID 0000.0001) %MON pe_b_mean                    =   0.0000000000000E+00
(PID.TID 0000.0001) %MON ke_max                       =   0.0000000000000E+00
(PID.TID 0000.0001) %MON ke_mean                      =   0.0000000000000E+00
(PID.TID 0000.0001) %MON ke_vol                       =   7.5000000000000E+10
(PID.TID 0000.0001) %MON vort_r_min                   =   0.0000000000000E+00
(PID.TID 0000.0001) %MON vort_r_max                   =   0.0000000000000E+00
(PID.TID 0000.0001) %MON vort_a_mean                  =   1.4000000000000E-04
(PID.TID 0000.0001) %MON vort_a_sd                    =   0.0000000000000E+00
(PID.TID 0000.0001) %MON vort_p_mean                  =   1.4000000000000E-04
(PID.TID 0000.0001) %MON vort_p_sd                    =   0.0000000000000E+00
(PID.TID 0000.0001) %MON surfExpan_theta_mean         =   0.0000000000000E+00
(PID.TID 0000.0001) %MON surfExpan_salt_mean          =   0.0000000000000E+00
(PID.TID 0000.0001) // =======================================================
(PID.TID 0000.0001) // End MONITOR dynamic field statistics
(PID.TID 0000.0001) // =======================================================
 cg2d: Sum(rhs),rhsMax =   2.22044604925031E-16  2.86942500000000E-01
(PID.TID 0000.0001)                    cg2d_init_res =    1.22499286151932E+00
(PID.TID 0000.0001)                       cg2d_iters =     1
(PID.TID 0000.0001)                         cg2d_res =    2.28878339926112E-16
(PID.TID 0000.0001) // =======================================================
(PID.TID 0000.0001) // Begin MONITOR dynamic field statistics
(PID.TID 0000.0001) // =======================================================
(PID.TID 0000.0001) %MON time_tsnumber                =                     1
(PID.TID 0000.0001) %MON time_secondsf                =   1.2000000000000E+03
(PID.TID 0000.0001) %MON dynstat_eta_max              =   5.0419543415053E-03
(PID.TID 0000.0001) %MON dynstat_eta_min              =  -9.7442517486476E-03
(PID.TID 0000.0001) %MON dynstat_eta_mean             =  -1.2417634328206E-18
(PID.TID 0000.0001) %MON dynstat_eta_sd               =   6.8916216434175E-03
(PID.TID 0000.0001) %MON dynstat_eta_del2             =   4.8721258743238E-03
(PID.TID 0000.0001) %MON dynstat_uvel_max             =   4.0357756670097E-02
(PID.TID 0000.0001) %MON dynstat_uvel_min             =  -1.3030446676085E-03
(PID.TID 0000.0001) %MON dynstat_uvel_mean            =   8.0016003200640E-04
(PID.TID 0000.0001) %MON dynstat_uvel_sd              =   5.3026932399747E-03
(PID.TID 0000.0001) %MON dynstat_uvel_del2            =   1.2277985312959E-03
(PID.TID 0000.0001) %MON dynstat_vvel_max             =   0.0000000000000E+00
(PID.TID 0000.0001) %MON dynstat_vvel_min             =   0.0000000000000E+00
(PID.TID 0000.0001) %MON dynstat_vvel_mean            =   0.0000000000000E+00
(PID.TID 0000.0001) %MON dynstat_vvel_sd              =   0.0000000000000E+00
(PID.TID 0000.0001) %MON dynstat_vvel_del2            =   0.0000000000000E+00
(PID.TID 0000.0001) %MON dynstat_wvel_max             =   3.9949926501094E-04
(PID.TID 0000.0001) %MON dynstat_wvel_min             =  -3.4319924924818E-04
(PID.TID 0000.0001) %MON dynstat_wvel_mean            =   1.3333036858811E-20
(PID.TID 0000.0001) %MON dynstat_wvel_sd              =   1.8115489773829E-04
(PID.TID 0000.0001) %MON dynstat_wvel_del2            =   1.0008232062410E-04
(PID.TID 0000.0001) %MON dynstat_theta_max            =   2.9347598222252E+00
(PID.TID 0000.0001) %MON dynstat_theta_min            =   4.5565811865143E-01
(PID.TID 0000.0001) %MON dynstat_theta_mean           =   1.6701889363865E+00
(PID.TID 0000.0001) %MON dynstat_theta_sd             =   7.3272985999334E-01
(PID.TID 0000.0001) %MON dynstat_theta_del2           =   2.5020034051878E-02
(PID.TID 0000.0001) %MON dynstat_salt_max             =   3.5000000000000E+01
(PID.TID 0000.0001) %MON dynstat_salt_min             =   3.5000000000000E+01
(PID.TID 0000.0001) %MON dynstat_salt_mean            =   3.5000000000000E+01
(PID.TID 0000.0001) %MON dynstat_salt_sd              =   1.5888218580783E-15
(PID.TID 0000.0001) %MON dynstat_salt_del2            =   0.0000000000000E+00
(PID.TID 0000.0001) %MON dynstat_sst_max              =   2.9347598222252E+00
(PID.TID 0000.0001) %MON dynstat_sst_min              =   1.5297887675000E+00
(PID.TID 0000.0001) %MON dynstat_sst_mean             =   2.4664361373168E+00
(PID.TID 0000.0001) %MON dynstat_sst_sd               =   6.6230970677800E-01
(PID.TID 0000.0001) %MON dynstat_sst_del2             =   4.6832368490839E-01
(PID.TID 0000.0001) %MON dynstat_sss_max              =   3.5000000000000E+01
(PID.TID 0000.0001) %MON dynstat_sss_min              =   3.5000000000000E+01
(PID.TID 0000.0001) %MON dynstat_sss_mean             =   3.5000000000000E+01
(PID.TID 0000.0001) %MON dynstat_sss_sd               =   0.0000000000000E+00
(PID.TID 0000.0001) %MON dynstat_sss_del2             =   0.0000000000000E+00
(PID.TID 0000.0001) %MON extforcing_qnet_max          =   2.0000000000000E+02
(PID.TID 0000.0001) %MON extforcing_qnet_min          =   0.0000000000000E+00
(PID.TID 0000.0001) %MON extforcing_qnet_mean         =   6.6666666666667E+01
(PID.TID 0000.0001) %MON extforcing_qnet_sd           =   9.4280904158206E+01
(PID.TID 0000.0001) %MON extforcing_qnet_del2         =   6.6666666666667E+01
(PID.TID 0000.0001) %MON extforcing_qsw_max           =   0.0000000000000E+00
(PID.TID 0000.0001) %MON extforcing_qsw_min           =   0.0000000000000E+00
(PID.TID 0000.0001) %MON extforcing_qsw_mean          =   0.0000000000000E+00
(PID.TID 0000.0001) %MON extforcing_qsw_sd            =   0.0000000000000E+00
(PID.TID 0000.0001) %MON extforcing_qsw_del2          =   0.0000000000000E+00
(PID.TID 0000.0001) %MON extforcing_empmr_max         =   0.0000000000000E+00
(PID.TID 0000.0001) %MON extforcing_empmr_min         =   0.0000000000000E+00
(PID.TID 0000.0001) %MON extforcing_empmr_mean        =   0.0000000000000E+00
(PID.TID 0000.0001) %MON extforcing_empmr_sd          =   0.0000000000000E+00
(PID.TID 0000.0001) %MON extforcing_empmr_del2        =   0.0000000000000E+00
(PID.TID 0000.0001) %MON extforcing_fu_max            =   1.0000000000000E+00
(PID.TID 0000.0001) %MON extforcing_fu_min            =   0.0000000000000E+00
(PID.TID 0000.0001) %MON extforcing_fu_mean           =   6.6666666666667E-01
(PID.TID 0000.0001) %MON extforcing_fu_sd             =   4.7140452079103E-01
(PID.TID 0000.0001) %MON extforcing_fu_del2           =   3.3333333333333E-01
(PID.TID 0000.0001) %MON extforcing_fv_max            =   0.0000000000000E+00
(PID.TID 0000.0001) %MON extforcing_fv_min            =   0.0000000000000E+00
(PID.TID 0000.0001) %MON extforcing_fv_mean           =   0.0000000000000E+00
(PID.TID 0000.0001) %MON extforcing_fv_sd             =   0.0000000000000E+00
(PID.TID 0000.0001) %MON extforcing_fv_del2           =   0.0000000000000E+00
(PID.TID 0000.0001) %MON advcfl_uvel_max              =   9.6858616008232E-03
(PID.TID 0000.0001) %MON advcfl_vvel_max              =   0.0000000000000E+00
(PID.TID 0000.0001) %MON advcfl_wvel_max              =   9.5879823602626E-03
(PID.TID 0000.0001) %MON advcfl_W_hf_max              =   1.9175964720525E-02
(PID.TID 0000.0001) %MON pe_b_mean                    =   2.3296027173688E-07
(PID.TID 0000.0001) %MON ke_max                       =   4.1891725144695E-04
(PID.TID 0000.0001) %MON ke_mean                      =   1.4379405837047E-05
(PID.TID 0000.0001) %MON ke_vol                       =   7.5000000000000E+10
(PID.TID 0000.0001) %MON vort_r_min                   =   0.0000000000000E+00
(PID.TID 0000.0001) %MON vort_r_max                   =   0.0000000000000E+00
(PID.TID 0000.0001) %MON vort_a_mean                  =   1.4000000000000E-04
(PID.TID 0000.0001) %MON vort_a_sd                    =   0.0000000000000E+00
(PID.TID 0000.0001) %MON vort_p_mean                  =   1.4000000000000E-04
(PID.TID 0000.0001) %MON vort_p_sd                    =   0.0000000000000E+00
(PID.TID 0000.0001) %MON surfExpan_theta_mean         =   3.8028865713351E-06
(PID.TID 0000.0001) %MON surfExpan_salt_mean          =   7.1546916539470E-19
(PID.TID 0000.0001) // =======================================================
(PID.TID 0000.0001) // End MONITOR dynamic field statistics
(PID.TID 0000.0001) // =======================================================
 cg2d: Sum(rhs),rhsMax =   3.33066907387547E-16  2.86252795532961E-01
(PID.TID 0000.0001)                    cg2d_init_res =    2.96202930186843E-03
(PID.TID 0000.0001)                       cg2d_iters =     1
(PID.TID 0000.0001)                         cg2d_res =    1.28072686676372E-16
(PID.TID 0000.0001) // =======================================================
(PID.TID 0000.0001) // Begin MONITOR dynamic field statistics
(PID.TID 0000.0001) // =======================================================
(PID.TID 0000.0001) %MON time_tsnumber                =                     2
(PID.TID 0000.0001) %MON time_secondsf                =   2.4000000000000E+03
(PID.TID 0000.0001) %MON dynstat_eta_max              =   5.0320044419026E-03
(PID.TID 0000.0001) %MON dynstat_eta_min              =  -9.7208301434165E-03
(PID.TID 0000.0001) %MON dynstat_eta_mean             =  -1.7384688059489E-18
(PID.TID 0000.0001) %MON dynstat_eta_sd               =   6.8750925773079E-03
(PID.TID 0000.0001) %MON dynstat_eta_del2             =   4.8604150717083E-03
(PID.TID 0000.0001) %MON dynstat_uvel_max             =   8.2290417093980E-02
(PID.TID 0000.0001) %MON dynstat_uvel_min             =  -2.7356503261879E-03
(PID.TID 0000.0001) %MON dynstat_uvel_mean            =   1.6003774187573E-03
(PID.TID 0000.0001) %MON dynstat_uvel_sd              =   1.0784696345487E-02
(PID.TID 0000.0001) %MON dynstat_uvel_del2            =   2.5282959167083E-03
(PID.TID 0000.0001) %MON dynstat_vvel_max             =   1.0143246222975E-04
(PID.TID 0000.0001) %MON dynstat_vvel_min             =  -5.9875209338809E-03
(PID.TID 0000.0001) %MON dynstat_vvel_mean            =  -2.0298459691938E-04
(PID.TID 0000.0001) %MON dynstat_vvel_sd              =   1.0194885802013E-03
(PID.TID 0000.0001) %MON dynstat_vvel_del2            =   1.5572615601616E-04
(PID.TID 0000.0001) %MON dynstat_wvel_max             =   8.0824932887596E-04
(PID.TID 0000.0001) %MON dynstat_wvel_min             =  -7.0029232044800E-04
(PID.TID 0000.0001) %MON dynstat_wvel_mean            =   1.0733592172718E-20
(PID.TID 0000.0001) %MON dynstat_wvel_sd              =   3.7736022948821E-04
(PID.TID 0000.0001) %MON dynstat_wvel_del2            =   2.0587660621616E-04
(PID.TID 0000.0001) %MON dynstat_theta_max            =   2.9347591959315E+00
(PID.TID 0000.0001) %MON dynstat_theta_min            =   4.5565874494511E-01
(PID.TID 0000.0001) %MON dynstat_theta_mean           =   1.6701689023346E+00
(PID.TID 0000.0001) %MON dynstat_theta_sd             =   7.3168896017853E-01
(PID.TID 0000.0001) %MON dynstat_theta_del2           =   2.5040068103756E-02
(PID.TID 0000.0001) %MON dynstat_salt_max             =   3.5000000000000E+01
(PID.TID 0000.0001) %MON dynstat_salt_min             =   3.5000000000000E+01
(PID.TID 0000.0001) %MON dynstat_salt_mean            =   3.5000000000000E+01
(PID.TID 0000.0001) %MON dynstat_salt_sd              =   7.1054273576010E-15
(PID.TID 0000.0001) %MON dynstat_salt_del2            =   0.0000000000000E+00
(PID.TID 0000.0001) %MON dynstat_sst_max              =   2.9347591959315E+00
(PID.TID 0000.0001) %MON dynstat_sst_min              =   1.5693598953000E+00
(PID.TID 0000.0001) %MON dynstat_sst_mean             =   2.4796260957210E+00
(PID.TID 0000.0001) %MON dynstat_sst_sd               =   6.4365540300261E-01
(PID.TID 0000.0001) %MON dynstat_sst_del2             =   4.5513310021051E-01
(PID.TID 0000.0001) %MON dynstat_sss_max              =   3.5000000000000E+01
(PID.TID 0000.0001) %MON dynstat_sss_min              =   3.5000000000000E+01
(PID.TID 0000.0001) %MON dynstat_sss_mean             =   3.5000000000000E+01
(PID.TID 0000.0001) %MON dynstat_sss_sd               =   0.0000000000000E+00
(PID.TID 0000.0001) %MON dynstat_sss_del2             =   0.0000000000000E+00
(PID.TID 0000.0001) %MON extforcing_qnet_max          =   2.0000000000000E+02
(PID.TID 0000.0001) %MON extforcing_qnet_min          =   0.0000000000000E+00
(PID.TID 0000.0001) %MON extforcing_qnet_mean         =   6.6666666666667E+01
(PID.TID 0000.0001) %MON extforcing_qnet_sd           =   9.4280904158206E+01
(PID.TID 0000.0001) %MON extforcing_qnet_del2         =   6.6666666666667E+01
(PID.TID 0000.0001) %MON extforcing_qsw_max           =   0.0000000000000E+00
(PID.TID 0000.0001) %MON extforcing_qsw_min           =   0.0000000000000E+00
(PID.TID 0000.0001) %MON extforcing_qsw_mean          =   0.0000000000000E+00
(PID.TID 0000.0001) %MON extforcing_qsw_sd            =   0.0000000000000E+00
(PID.TID 0000.0001) %MON extforcing_qsw_del2          =   0.0000000000000E+00
(PID.TID 0000.0001) %MON extforcing_empmr_max         =   0.0000000000000E+00
(PID.TID 0000.0001) %MON extforcing_empmr_min         =   0.0000000000000E+00
(PID.TID 0000.0001) %MON extforcing_empmr_mean        =   0.0000000000000E+00
(PID.TID 0000.0001) %MON extforcing_empmr_sd          =   0.0000000000000E+00
(PID.TID 0000.0001) %MON extforcing_empmr_del2        =   0.0000000000000E+00
(PID.TID 0000.0001) %MON extforcing_fu_max            =   1.0000000000000E+00
(PID.TID 0000.0001) %MON extforcing_fu_min            =   0.0000000000000E+00
(PID.TID 0000.0001) %MON extforcing_fu_mean           =   6.6666666666667E-01
(PID.TID 0000.0001) %MON extforcing_fu_sd             =   4.7140452079103E-01
(PID.TID 0000.0001) %MON extforcing_fu_del2           =   3.3333333333333E-01
(PID.TID 0000.0001) %MON extforcing_fv_max            =   0.0000000000000E+00
(PID.TID 0000.0001) %MON extforcing_fv_min            =   0.0000000000000E+00
(PID.TID 0000.0001) %MON extforcing_fv_mean           =   0.0000000000000E+00
(PID.TID 0000.0001) %MON extforcing_fv_sd             =   0.0000000000000E+00
(PID.TID 0000.0001) %MON extforcing_fv_del2           =   0.0000000000000E+00
(PID.TID 0000.0001) %MON advcfl_uvel_max              =   1.9749700102555E-02
(PID.TID 0000.0001) %MON advcfl_vvel_max              =   1.4370050241314E-03
(PID.TID 0000.0001) %MON advcfl_wvel_max              =   1.9397983893023E-02
(PID.TID 0000.0001) %MON advcfl_W_hf_max              =   3.8795967786046E-02
(PID.TID 0000.0001) %MON pe_b_mean                    =   2.3184413442785E-07
(PID.TID 0000.0001) %MON ke_max                       =   1.7484255898039E-03
(PID.TID 0000.0001) %MON ke_mean                      =   5.9975721429285E-05
(PID.TID 0000.0001) %MON ke_vol                       =   7.5000000000000E+10
(PID.TID 0000.0001) %MON vort_r_min                   =  -8.4998551252941E-07
(PID.TID 0000.0001) %MON vort_r_max                   =   1.0034583572068E-06
(PID.TID 0000.0001) %MON vort_a_mean                  =   1.4000000000000E-04
(PID.TID 0000.0001) %MON vort_a_sd                    =   1.7549802072336E-07
(PID.TID 0000.0001) %MON vort_p_mean                  =   1.4000000000000E-04
(PID.TID 0000.0001) %MON vort_p_sd                    =   1.7549802072336E-07
(PID.TID 0000.0001) %MON surfExpan_theta_mean         =  -8.8832898329945E-09
(PID.TID 0000.0001) %MON surfExpan_salt_mean          =  -1.1842378929335E-23
(PID.TID 0000.0001) // =======================================================
(PID.TID 0000.0001) // End MONITOR dynamic field statistics
(PID.TID 0000.0001) // =======================================================
 cg2d: Sum(rhs),rhsMax =   1.11022302462516E-16  2.85926651732557E-01
(PID.TID 0000.0001)                    cg2d_init_res =    1.52920328460563E-03
(PID.TID 0000.0001)                       cg2d_iters =     1
(PID.TID 0000.0001)                         cg2d_res =    6.41331246101659E-17
(PID.TID 0000.0001) // =======================================================
(PID.TID 0000.0001) // Begin MONITOR dynamic field statistics
(PID.TID 0000.0001) // =======================================================
(PID.TID 0000.0001) %MON time_tsnumber                =                     3
(PID.TID 0000.0001) %MON time_secondsf                =   3.6000000000000E+03
(PID.TID 0000.0001) %MON dynstat_eta_max              =   5.0307368963838E-03
(PID.TID 0000.0001) %MON dynstat_eta_min              =  -9.7097546586160E-03
(PID.TID 0000.0001) %MON dynstat_eta_mean             =  -9.9341074625651E-19
(PID.TID 0000.0001) %MON dynstat_eta_sd               =   6.8673346714825E-03
(PID.TID 0000.0001) %MON dynstat_eta_del2             =   4.8548773293080E-03
(PID.TID 0000.0001) %MON dynstat_uvel_max             =   1.2282241690235E-01
(PID.TID 0000.0001) %MON dynstat_uvel_min             =  -4.2246889104757E-03
(PID.TID 0000.0001) %MON dynstat_uvel_mean            =   2.3490247077554E-03
(PID.TID 0000.0001) %MON dynstat_uvel_sd              =   1.6093624551547E-02
(PID.TID 0000.0001) %MON dynstat_uvel_del2            =   3.8457204769889E-03
(PID.TID 0000.0001) %MON dynstat_vvel_max             =   2.7114701553628E-04
(PID.TID 0000.0001) %MON dynstat_vvel_min             =  -1.6034005987250E-02
(PID.TID 0000.0001) %MON dynstat_vvel_mean            =  -5.4041059863695E-04
(PID.TID 0000.0001) %MON dynstat_vvel_sd              =   2.7288776833110E-03
(PID.TID 0000.0001) %MON dynstat_vvel_del2            =   4.2174899156640E-04
(PID.TID 0000.0001) %MON dynstat_wvel_max             =   1.2186485733000E-03
(PID.TID 0000.0001) %MON dynstat_wvel_min             =  -1.0753121039407E-03
(PID.TID 0000.0001) %MON dynstat_wvel_mean            =   3.0335146360672E-20
(PID.TID 0000.0001) %MON dynstat_wvel_sd              =   5.7966650320782E-04
(PID.TID 0000.0001) %MON dynstat_wvel_del2            =   3.1450103426959E-04
(PID.TID 0000.0001) %MON dynstat_theta_max            =   2.9347585696409E+00
(PID.TID 0000.0001) %MON dynstat_theta_min            =   4.5565937123579E-01
(PID.TID 0000.0001) %MON dynstat_theta_mean           =   1.6701488682827E+00
(PID.TID 0000.0001) %MON dynstat_theta_sd             =   7.3072531532753E-01
(PID.TID 0000.0001) %MON dynstat_theta_del2           =   2.5060102155634E-02
(PID.TID 0000.0001) %MON dynstat_salt_max             =   3.5000000000000E+01
(PID.TID 0000.0001) %MON dynstat_salt_min             =   3.5000000000000E+01
(PID.TID 0000.0001) %MON dynstat_salt_mean            =   3.5000000000000E+01
(PID.TID 0000.0001) %MON dynstat_salt_sd              =   1.3941855222547E-14
(PID.TID 0000.0001) %MON dynstat_salt_del2            =   0.0000000000000E+00
(PID.TID 0000.0001) %MON dynstat_sst_max              =   2.9347585696409E+00
(PID.TID 0000.0001) %MON dynstat_sst_min              =   1.6079782748839E+00
(PID.TID 0000.0001) %MON dynstat_sst_mean             =   2.4924984713886E+00
(PID.TID 0000.0001) %MON dynstat_sst_sd               =   6.2545022904488E-01
(PID.TID 0000.0001) %MON dynstat_sst_del2             =   4.4226009825231E-01
(PID.TID 0000.0001) %MON dynstat_sss_max              =   3.5000000000000E+01
(PID.TID 0000.0001) %MON dynstat_sss_min              =   3.5000000000000E+01
(PID.TID 0000.0001) %MON dynstat_sss_mean             =   3.5000000000000E+01
(PID.TID 0000.0001) %MON dynstat_sss_sd               =   7.1054273576010E-15
(PID.TID 0000.0001) %MON dynstat_sss_del2             =   0.0000000000000E+00
(PID.TID 0000.0001) %MON extforcing_qnet_max          =   2.0000000000000E+02
(PID.TID 0000.0001) %MON extforcing_qnet_min          =   0.0000000000000E+00
(PID.TID 0000.0001) %MON extforcing_qnet_mean         =   6.6666666666667E+01
(PID.TID 0000.0001) %MON extforcing_qnet_sd           =   9.4280904158206E+01
(PID.TID 0000.0001) %MON extforcing_qnet_del2         =   6.6666666666667E+01
(PID.TID 0000.0001) %MON extforcing_qsw_max           =   0.0000000000000E+00
(PID.TID 0000.0001) %MON extforcing_qsw_min           =   0.0000000000000E+00
(PID.TID 0000.0001) %MON extforcing_qsw_mean          =   0.0000000000000E+00
(PID.TID 0000.0001) %MON extforcing_qsw_sd            =   0.0000000000000E+00
(PID.TID 0000.0001) %MON extforcing_qsw_del2          =   0.0000000000000E+00
(PID.TID 0000.0001) %MON extforcing_empmr_max         =   0.0000000000000E+00
(PID.TID 0000.0001) %MON extforcing_empmr_min         =   0.0000000000000E+00
(PID.TID 0000.0001) %MON extforcing_empmr_mean        =   0.0000000000000E+00
(PID.TID 0000.0001) %MON extforcing_empmr_sd          =   0.0000000000000E+00
(PID.TID 0000.0001) %MON extforcing_empmr_del2        =   0.0000000000000E+00
(PID.TID 0000.0001) %MON extforcing_fu_max            =   1.0000000000000E+00
(PID.TID 0000.0001) %MON extforcing_fu_min            =   0.0000000000000E+00
(PID.TID 0000.0001) %MON extforcing_fu_mean           =   6.6666666666667E-01
(PID.TID 0000.0001) %MON extforcing_fu_sd             =   4.7140452079103E-01
(PID.TID 0000.0001) %MON extforcing_fu_del2           =   3.3333333333333E-01
(PID.TID 0000.0001) %MON extforcing_fv_max            =   0.0000000000000E+00
(PID.TID 0000.0001) %MON extforcing_fv_min            =   0.0000000000000E+00
(PID.TID 0000.0001) %MON extforcing_fv_mean           =   0.0000000000000E+00
(PID.TID 0000.0001) %MON extforcing_fv_sd             =   0.0000000000000E+00
(PID.TID 0000.0001) %MON extforcing_fv_del2           =   0.0000000000000E+00
(PID.TID 0000.0001) %MON advcfl_uvel_max              =   2.9477380056564E-02
(PID.TID 0000.0001) %MON advcfl_vvel_max              =   3.8481614369400E-03
(PID.TID 0000.0001) %MON advcfl_wvel_max              =   2.9247565759200E-02
(PID.TID 0000.0001) %MON advcfl_W_hf_max              =   5.8495131518400E-02
(PID.TID 0000.0001) %MON pe_b_mean                    =   2.3132120032916E-07
(PID.TID 0000.0001) %MON ke_max                       =   3.9735068800352E-03
(PID.TID 0000.0001) %MON ke_mean                      =   1.3613074265469E-04
(PID.TID 0000.0001) %MON ke_vol                       =   7.5000000000000E+10
(PID.TID 0000.0001) %MON vort_r_min                   =  -2.3190185065590E-06
(PID.TID 0000.0001) %MON vort_r_max                   =   2.7278587114425E-06
(PID.TID 0000.0001) %MON vort_a_mean                  =   1.4000000000000E-04
(PID.TID 0000.0001) %MON vort_a_sd                    =   4.7751186108694E-07
(PID.TID 0000.0001) %MON vort_p_mean                  =   1.4000000000000E-04
(PID.TID 0000.0001) %MON vort_p_sd                    =   4.7751186108694E-07
(PID.TID 0000.0001) %MON surfExpan_theta_mean         =  -4.0818708294728E-09
(PID.TID 0000.0001) %MON surfExpan_salt_mean          =   6.3244816791060E-19
(PID.TID 0000.0001) // =======================================================
(PID.TID 0000.0001) // End MONITOR dynamic field statistics
(PID.TID 0000.0001) // =======================================================
 cg2d: Sum(rhs),rhsMax =   3.33066907387547E-16  2.85708051909501E-01
(PID.TID 0000.0001)                    cg2d_init_res =    1.26800131119008E-03
(PID.TID 0000.0001)                       cg2d_iters =     1
(PID.TID 0000.0001)                         cg2d_res =    2.24267424124230E-16
(PID.TID 0000.0001) // =======================================================
(PID.TID 0000.0001) // Begin MONITOR dynamic field statistics
(PID.TID 0000.0001) // =======================================================
(PID.TID 0000.0001) %MON time_tsnumber                =                     4
(PID.TID 0000.0001) %MON time_secondsf                =   4.8000000000000E+03
(PID.TID 0000.0001) %MON dynstat_eta_max              =   5.0328857667572E-03
(PID.TID 0000.0001) %MON dynstat_eta_min              =  -9.7023312490197E-03
(PID.TID 0000.0001) %MON dynstat_eta_mean             =  -2.7318795522054E-18
(PID.TID 0000.0001) %MON dynstat_eta_sd               =   6.8621884730445E-03
(PID.TID 0000.0001) %MON dynstat_eta_del2             =   4.8511656245099E-03
(PID.TID 0000.0001) %MON dynstat_uvel_max             =   1.6176608376363E-01
(PID.TID 0000.0001) %MON dynstat_uvel_min             =  -5.7524643323409E-03
(PID.TID 0000.0001) %MON dynstat_uvel_mean            =   3.0294851012100E-03
(PID.TID 0000.0001) %MON dynstat_uvel_sd              =   2.1204696064275E-02
(PID.TID 0000.0001) %MON dynstat_uvel_del2            =   5.1953903630895E-03
(PID.TID 0000.0001) %MON dynstat_vvel_max             =   5.0982781536004E-04
(PID.TID 0000.0001) %MON dynstat_vvel_min             =  -3.0019129961964E-02
(PID.TID 0000.0001) %MON dynstat_vvel_mean            =  -9.9919084074288E-04
(PID.TID 0000.0001) %MON dynstat_vvel_sd              =   5.0720375532341E-03
(PID.TID 0000.0001) %MON dynstat_vvel_del2            =   7.9402157879195E-04
(PID.TID 0000.0001) %MON dynstat_wvel_max             =   1.6288936574105E-03
(PID.TID 0000.0001) %MON dynstat_wvel_min             =  -1.4609054218136E-03
(PID.TID 0000.0001) %MON dynstat_wvel_mean            =  -6.0073291070950E-20
(PID.TID 0000.0001) %MON dynstat_wvel_sd              =   7.8601442218645E-04
(PID.TID 0000.0001) %MON dynstat_wvel_del2            =   4.2510606554354E-04
(PID.TID 0000.0001) %MON dynstat_theta_max            =   2.9347579433532E+00
(PID.TID 0000.0001) %MON dynstat_theta_min            =   4.5565999752346E-01
(PID.TID 0000.0001) %MON dynstat_theta_mean           =   1.6701288342308E+00
(PID.TID 0000.0001) %MON dynstat_theta_sd             =   7.2983521547116E-01
(PID.TID 0000.0001) %MON dynstat_theta_del2           =   2.5080136207512E-02
(PID.TID 0000.0001) %MON dynstat_salt_max             =   3.5000000000000E+01
(PID.TID 0000.0001) %MON dynstat_salt_min             =   3.5000000000000E+01
(PID.TID 0000.0001) %MON dynstat_salt_mean            =   3.5000000000000E+01
(PID.TID 0000.0001) %MON dynstat_salt_sd              =   1.4210854715202E-14
(PID.TID 0000.0001) %MON dynstat_salt_del2            =   0.0000000000000E+00
(PID.TID 0000.0001) %MON dynstat_sst_max              =   2.9347579433532E+00
(PID.TID 0000.0001) %MON dynstat_sst_min              =   1.6456419774426E+00
(PID.TID 0000.0001) %MON dynstat_sst_mean             =   2.5050526213830E+00
(PID.TID 0000.0001) %MON dynstat_sst_sd               =   6.0769509415414E-01
(PID.TID 0000.0001) %MON dynstat_sst_del2             =   4.2970532197019E-01
(PID.TID 0000.0001) %MON dynstat_sss_max              =   3.5000000000000E+01
(PID.TID 0000.0001) %MON dynstat_sss_min              =   3.5000000000000E+01
(PID.TID 0000.0001) %MON dynstat_sss_mean             =   3.5000000000000E+01
(PID.TID 0000.0001) %MON dynstat_sss_sd               =   7.1054273576010E-15
(PID.TID 0000.0001) %MON dynstat_sss_del2             =   0.0000000000000E+00
(PID.TID 0000.0001) %MON extforcing_qnet_max          =   2.0000000000000E+02
(PID.TID 0000.0001) %MON extforcing_qnet_min          =   0.0000000000000E+00
(PID.TID 0000.0001) %MON extforcing_qnet_mean         =   6.6666666666667E+01
(PID.TID 0000.0001) %MON extforcing_qnet_sd           =   9.4280904158206E+01
(PID.TID 0000.0001) %MON extforcing_qnet_del2         =   6.6666666666667E+01
(PID.TID 0000.0001) %MON extforcing_qsw_max           =   0.0000000000000E+00
(PID.TID 0000.0001) %MON extforcing_qsw_min           =   0.0000000000000E+00
(PID.TID 0000.0001) %MON extforcing_qsw_mean          =   0.0000000000000E+00
(PID.TID 0000.0001) %MON extforcing_qsw_sd            =   0.0000000000000E+00
(PID.TID 0000.0001) %MON extforcing_qsw_del2          =   0.0000000000000E+00
(PID.TID 0000.0001) %MON extforcing_empmr_max         =   0.0000000000000E+00
(PID.TID 0000.0001) %MON extforcing_empmr_min         =   0.0000000000000E+00
(PID.TID 0000.0001) %MON extforcing_empmr_mean        =   0.0000000000000E+00
(PID.TID 0000.0001) %MON extforcing_empmr_sd          =   0.0000000000000E+00
(PID.TID 0000.0001) %MON extforcing_empmr_del2        =   0.0000000000000E+00
(PID.TID 0000.0001) %MON extforcing_fu_max            =   1.0000000000000E+00
(PID.TID 0000.0001) %MON extforcing_fu_min            =   0.0000000000000E+00
(PID.TID 0000.0001) %MON extforcing_fu_mean           =   6.6666666666667E-01
(PID.TID 0000.0001) %MON extforcing_fu_sd             =   4.7140452079103E-01
(PID.TID 0000.0001) %MON extforcing_fu_del2           =   3.3333333333333E-01
(PID.TID 0000.0001) %MON extforcing_fv_max            =   0.0000000000000E+00
(PID.TID 0000.0001) %MON extforcing_fv_min            =   0.0000000000000E+00
(PID.TID 0000.0001) %MON extforcing_fv_mean           =   0.0000000000000E+00
(PID.TID 0000.0001) %MON extforcing_fv_sd             =   0.0000000000000E+00
(PID.TID 0000.0001) %MON extforcing_fv_del2           =   0.0000000000000E+00
(PID.TID 0000.0001) %MON advcfl_uvel_max              =   3.8823860103271E-02
(PID.TID 0000.0001) %MON advcfl_vvel_max              =   7.2045911908714E-03
(PID.TID 0000.0001) %MON advcfl_wvel_max              =   3.9093447777852E-02
(PID.TID 0000.0001) %MON advcfl_W_hf_max              =   7.8186895555705E-02
(PID.TID 0000.0001) %MON pe_b_mean                    =   2.3097463828716E-07
(PID.TID 0000.0001) %MON ke_max                       =   7.1045825997384E-03
(PID.TID 0000.0001) %MON ke_mean                      =   2.4277043121719E-04
(PID.TID 0000.0001) %MON ke_vol                       =   7.5000000000000E+10
(PID.TID 0000.0001) %MON vort_r_min                   =  -4.3252221336866E-06
(PID.TID 0000.0001) %MON vort_r_max                   =   5.1743315663220E-06
(PID.TID 0000.0001) %MON vort_a_mean                  =   1.4000000000000E-04
(PID.TID 0000.0001) %MON vort_a_sd                    =   9.0091968521189E-07
(PID.TID 0000.0001) %MON vort_p_mean                  =   1.4000000000000E-04
(PID.TID 0000.0001) %MON vort_p_sd                    =   9.0091968521189E-07
(PID.TID 0000.0001) %MON surfExpan_theta_mean         =  -2.6582321782648E-09
(PID.TID 0000.0001) %MON surfExpan_salt_mean          =  -1.5811322621554E-18
(PID.TID 0000.0001) // =======================================================
(PID.TID 0000.0001) // End MONITOR dynamic field statistics
(PID.TID 0000.0001) // =======================================================
 cg2d: Sum(rhs),rhsMax =   2.22044604925031E-16  2.85542470913564E-01
(PID.TID 0000.0001)                    cg2d_init_res =    1.18769269835899E-03
(PID.TID 0000.0001)                       cg2d_iters =     1
(PID.TID 0000.0001)                         cg2d_res =    1.59996578235493E-16
(PID.TID 0000.0001) // =======================================================
(PID.TID 0000.0001) // Begin MONITOR dynamic field statistics
(PID.TID 0000.0001) // =======================================================
(PID.TID 0000.0001) %MON time_tsnumber                =                     5
(PID.TID 0000.0001) %MON time_secondsf                =   6.0000000000000E+03
(PID.TID 0000.0001) %MON dynstat_eta_max              =   5.0366014770216E-03
(PID.TID 0000.0001) %MON dynstat_eta_min              =  -9.6967083004875E-03
(PID.TID 0000.0001) %MON dynstat_eta_mean             =  -4.2219956715902E-18
(PID.TID 0000.0001) %MON dynstat_eta_sd               =   6.8583307470840E-03
(PID.TID 0000.0001) %MON dynstat_eta_del2             =   4.8483541502437E-03
(PID.TID 0000.0001) %MON dynstat_uvel_max             =   1.9852854049598E-01
(PID.TID 0000.0001) %MON dynstat_uvel_min             =  -7.3038007067297E-03
(PID.TID 0000.0001) %MON dynstat_uvel_mean            =   3.6224728418660E-03
(PID.TID 0000.0001) %MON dynstat_uvel_sd              =   2.6051470546871E-02
(PID.TID 0000.0001) %MON dynstat_uvel_del2            =   6.5592480198677E-03
(PID.TID 0000.0001) %MON dynstat_vvel_max             =   8.1920708800742E-04
(PID.TID 0000.0001) %MON dynstat_vvel_min             =  -4.7861640042681E-02
(PID.TID 0000.0001) %MON dynstat_vvel_mean            =  -1.5664461982469E-03
(PID.TID 0000.0001) %MON dynstat_vvel_sd              =   8.0008772103961E-03
(PID.TID 0000.0001) %MON dynstat_vvel_del2            =   1.2757360493257E-03
(PID.TID 0000.0001) %MON dynstat_wvel_max             =   2.0368466138720E-03
(PID.TID 0000.0001) %MON dynstat_wvel_min             =  -1.8472417220060E-03
(PID.TID 0000.0001) %MON dynstat_wvel_mean            =   2.8855079769069E-20
(PID.TID 0000.0001) %MON dynstat_wvel_sd              =   9.9442176805993E-04
(PID.TID 0000.0001) %MON dynstat_wvel_del2            =   5.3685169939007E-04
(PID.TID 0000.0001) %MON dynstat_theta_max            =   2.9347573170685E+00
(PID.TID 0000.0001) %MON dynstat_theta_min            =   4.5566062380812E-01
(PID.TID 0000.0001) %MON dynstat_theta_mean           =   1.6701088001789E+00
(PID.TID 0000.0001) %MON dynstat_theta_sd             =   7.2901286546091E-01
(PID.TID 0000.0001) %MON dynstat_theta_del2           =   2.5220675357534E-02
(PID.TID 0000.0001) %MON dynstat_salt_max             =   3.5000000000000E+01
(PID.TID 0000.0001) %MON dynstat_salt_min             =   3.5000000000000E+01
(PID.TID 0000.0001) %MON dynstat_salt_mean            =   3.5000000000000E+01
(PID.TID 0000.0001) %MON dynstat_salt_sd              =   2.1018137570293E-14
(PID.TID 0000.0001) %MON dynstat_salt_del2            =   0.0000000000000E+00
(PID.TID 0000.0001) %MON dynstat_sst_max              =   2.9347573170685E+00
(PID.TID 0000.0001) %MON dynstat_sst_min              =   1.6823483875133E+00
(PID.TID 0000.0001) %MON dynstat_sst_mean             =   2.5172876738834E+00
(PID.TID 0000.0001) %MON dynstat_sst_sd               =   5.9039123127142E-01
(PID.TID 0000.0001) %MON dynstat_sst_del2             =   4.1746964318509E-01
(PID.TID 0000.0001) %MON dynstat_sss_max              =   3.5000000000000E+01
(PID.TID 0000.0001) %MON dynstat_sss_min              =   3.5000000000000E+01
(PID.TID 0000.0001) %MON dynstat_sss_mean             =   3.5000000000000E+01
(PID.TID 0000.0001) %MON dynstat_sss_sd               =   0.0000000000000E+00
(PID.TID 0000.0001) %MON dynstat_sss_del2             =   0.0000000000000E+00
(PID.TID 0000.0001) %MON extforcing_qnet_max          =   2.0000000000000E+02
(PID.TID 0000.0001) %MON extforcing_qnet_min          =   0.0000000000000E+00
(PID.TID 0000.0001) %MON extforcing_qnet_mean         =   6.6666666666667E+01
(PID.TID 0000.0001) %MON extforcing_qnet_sd           =   9.4280904158206E+01
(PID.TID 0000.0001) %MON extforcing_qnet_del2         =   6.6666666666667E+01
(PID.TID 0000.0001) %MON extforcing_qsw_max           =   0.0000000000000E+00
(PID.TID 0000.0001) %MON extforcing_qsw_min           =   0.0000000000000E+00
(PID.TID 0000.0001) %MON extforcing_qsw_mean          =   0.0000000000000E+00
(PID.TID 0000.0001) %MON extforcing_qsw_sd            =   0.0000000000000E+00
(PID.TID 0000.0001) %MON extforcing_qsw_del2          =   0.0000000000000E+00
(PID.TID 0000.0001) %MON extforcing_empmr_max         =   0.0000000000000E+00
(PID.TID 0000.0001) %MON extforcing_empmr_min         =   0.0000000000000E+00
(PID.TID 0000.0001) %MON extforcing_empmr_mean        =   0.0000000000000E+00
(PID.TID 0000.0001) %MON extforcing_empmr_sd          =   0.0000000000000E+00
(PID.TID 0000.0001) %MON extforcing_empmr_del2        =   0.0000000000000E+00
(PID.TID 0000.0001) %MON extforcing_fu_max            =   1.0000000000000E+00
(PID.TID 0000.0001) %MON extforcing_fu_min            =   0.0000000000000E+00
(PID.TID 0000.0001) %MON extforcing_fu_mean           =   6.6666666666667E-01
(PID.TID 0000.0001) %MON extforcing_fu_sd             =   4.7140452079103E-01
(PID.TID 0000.0001) %MON extforcing_fu_del2           =   3.3333333333333E-01
(PID.TID 0000.0001) %MON extforcing_fv_max            =   0.0000000000000E+00
(PID.TID 0000.0001) %MON extforcing_fv_min            =   0.0000000000000E+00
(PID.TID 0000.0001) %MON extforcing_fv_mean           =   0.0000000000000E+00
(PID.TID 0000.0001) %MON extforcing_fv_sd             =   0.0000000000000E+00
(PID.TID 0000.0001) %MON extforcing_fv_del2           =   0.0000000000000E+00
(PID.TID 0000.0001) %MON advcfl_uvel_max              =   4.7646849719035E-02
(PID.TID 0000.0001) %MON advcfl_vvel_max              =   1.1486793610243E-02
(PID.TID 0000.0001) %MON advcfl_wvel_max              =   4.8884318732928E-02
(PID.TID 0000.0001) %MON advcfl_W_hf_max              =   9.7768637465856E-02
(PID.TID 0000.0001) %MON pe_b_mean                    =   2.3071501662153E-07
(PID.TID 0000.0001) %MON ke_max                       =   1.1143902863446E-02
(PID.TID 0000.0001) %MON ke_mean                      =   3.7913460848620E-04
(PID.TID 0000.0001) %MON ke_vol                       =   7.5000000000000E+10
(PID.TID 0000.0001) %MON vort_r_min                   =  -6.8132498461554E-06
(PID.TID 0000.0001) %MON vort_r_max                   =   8.3691192455724E-06
(PID.TID 0000.0001) %MON vort_a_mean                  =   1.4000000000000E-04
(PID.TID 0000.0001) %MON vort_a_sd                    =   1.4458497350717E-06
(PID.TID 0000.0001) %MON vort_p_mean                  =   1.4000000000000E-04
(PID.TID 0000.0001) %MON vort_p_sd                    =   1.4458497350717E-06
(PID.TID 0000.0001) %MON surfExpan_theta_mean         =  -1.9561752649047E-09
(PID.TID 0000.0001) %MON surfExpan_salt_mean          =  -1.2649081782001E-18
(PID.TID 0000.0001) // =======================================================
(PID.TID 0000.0001) // End MONITOR dynamic field statistics
(PID.TID 0000.0001) // =======================================================
 cg2d: Sum(rhs),rhsMax =   0.00000000000000E+00  2.85466627651987E-01
(PID.TID 0000.0001)                    cg2d_init_res =    9.50433981431933E-04
(PID.TID 0000.0001)                       cg2d_iters =     1
(PID.TID 0000.0001)                         cg2d_res =    6.40363433381858E-17
(PID.TID 0000.0001) // =======================================================
(PID.TID 0000.0001) // Begin MONITOR dynamic field statistics
(PID.TID 0000.0001) // =======================================================
(PID.TID 0000.0001) %MON time_tsnumber                =                     6
(PID.TID 0000.0001) %MON time_secondsf                =   7.2000000000000E+03
(PID.TID 0000.0001) %MON dynstat_eta_max              =   5.0414350080375E-03
(PID.TID 0000.0001) %MON dynstat_eta_min              =  -9.6941327467293E-03
(PID.TID 0000.0001) %MON dynstat_eta_mean             =  -3.2285849253337E-18
(PID.TID 0000.0001) %MON dynstat_eta_sd               =   6.8566238752296E-03
(PID.TID 0000.0001) %MON dynstat_eta_del2             =   4.8470663733647E-03
(PID.TID 0000.0001) %MON dynstat_uvel_max             =   2.3256801742621E-01
(PID.TID 0000.0001) %MON dynstat_uvel_min             =  -1.1408430700449E-02
(PID.TID 0000.0001) %MON dynstat_uvel_mean            =   4.1108675836033E-03
(PID.TID 0000.0001) %MON dynstat_uvel_sd              =   3.0578080749061E-02
(PID.TID 0000.0001) %MON dynstat_uvel_del2            =   7.9184384188652E-03
(PID.TID 0000.0001) %MON dynstat_vvel_max             =   1.2012839862758E-03
(PID.TID 0000.0001) %MON dynstat_vvel_min             =  -6.9416805630041E-02
(PID.TID 0000.0001) %MON dynstat_vvel_mean            =  -2.2258288647363E-03
(PID.TID 0000.0001) %MON dynstat_vvel_sd              =   1.1452518234614E-02
(PID.TID 0000.0001) %MON dynstat_vvel_del2            =   1.8804134588536E-03
(PID.TID 0000.0001) %MON dynstat_wvel_max             =   2.4422433039848E-03
(PID.TID 0000.0001) %MON dynstat_wvel_min             =  -2.2301744228331E-03
(PID.TID 0000.0001) %MON dynstat_wvel_mean            =  -9.0022873865743E-20
(PID.TID 0000.0001) %MON dynstat_wvel_sd              =   1.2022110603886E-03
(PID.TID 0000.0001) %MON dynstat_wvel_del2            =   6.4840369002170E-04
(PID.TID 0000.0001) %MON dynstat_theta_max            =   2.9347566907869E+00
(PID.TID 0000.0001) %MON dynstat_theta_min            =   4.5566125008978E-01
(PID.TID 0000.0001) %MON dynstat_theta_mean           =   1.6700887661271E+00
(PID.TID 0000.0001) %MON dynstat_theta_sd             =   7.2826079717360E-01
(PID.TID 0000.0001) %MON dynstat_theta_del2           =   2.5304827625982E-02
(PID.TID 0000.0001) %MON dynstat_salt_max             =   3.5000000000000E+01
(PID.TID 0000.0001) %MON dynstat_salt_min             =   3.5000000000000E+01
(PID.TID 0000.0001) %MON dynstat_salt_mean            =   3.5000000000000E+01
(PID.TID 0000.0001) %MON dynstat_salt_sd              =   2.7883710445094E-14
(PID.TID 0000.0001) %MON dynstat_salt_del2            =   0.0000000000000E+00
(PID.TID 0000.0001) %MON dynstat_sst_max              =   2.9347566907869E+00
(PID.TID 0000.0001) %MON dynstat_sst_min              =   1.7180928538713E+00
(PID.TID 0000.0001) %MON dynstat_sst_mean             =   2.5292020784817E+00
(PID.TID 0000.0001) %MON dynstat_sst_sd               =   5.7354083300497E-01
(PID.TID 0000.0001) %MON dynstat_sst_del2             =   4.0555461230520E-01
(PID.TID 0000.0001) %MON dynstat_sss_max              =   3.5000000000000E+01
(PID.TID 0000.0001) %MON dynstat_sss_min              =   3.5000000000000E+01
(PID.TID 0000.0001) %MON dynstat_sss_mean             =   3.5000000000000E+01
(PID.TID 0000.0001) %MON dynstat_sss_sd               =   0.0000000000000E+00
(PID.TID 0000.0001) %MON dynstat_sss_del2             =   0.0000000000000E+00
(PID.TID 0000.0001) %MON extforcing_qnet_max          =   2.0000000000000E+02
(PID.TID 0000.0001) %MON extforcing_qnet_min          =   0.0000000000000E+00
(PID.TID 0000.0001) %MON extforcing_qnet_mean         =   6.6666666666667E+01
(PID.TID 0000.0001) %MON extforcing_qnet_sd           =   9.4280904158206E+01
(PID.TID 0000.0001) %MON extforcing_qnet_del2         =   6.6666666666667E+01
(PID.TID 0000.0001) %MON extforcing_qsw_max           =   0.0000000000000E+00
(PID.TID 0000.0001) %MON extforcing_qsw_min           =   0.0000000000000E+00
(PID.TID 0000.0001) %MON extforcing_qsw_mean          =   0.0000000000000E+00
(PID.TID 0000.0001) %MON extforcing_qsw_sd            =   0.0000000000000E+00
(PID.TID 0000.0001) %MON extforcing_qsw_del2          =   0.0000000000000E+00
(PID.TID 0000.0001) %MON extforcing_empmr_max         =   0.0000000000000E+00
(PID.TID 0000.0001) %MON extforcing_empmr_min         =   0.0000000000000E+00
(PID.TID 0000.0001) %MON extforcing_empmr_mean        =   0.0000000000000E+00
(PID.TID 0000.0001) %MON extforcing_empmr_sd          =   0.0000000000000E+00
(PID.TID 0000.0001) %MON extforcing_empmr_del2        =   0.0000000000000E+00
(PID.TID 0000.0001) %MON extforcing_fu_max            =   1.0000000000000E+00
(PID.TID 0000.0001) %MON extforcing_fu_min            =   0.0000000000000E+00
(PID.TID 0000.0001) %MON extforcing_fu_mean           =   6.6666666666667E-01
(PID.TID 0000.0001) %MON extforcing_fu_sd             =   4.7140452079103E-01
(PID.TID 0000.0001) %MON extforcing_fu_del2           =   3.3333333333333E-01
(PID.TID 0000.0001) %MON extforcing_fv_max            =   0.0000000000000E+00
(PID.TID 0000.0001) %MON extforcing_fv_min            =   0.0000000000000E+00
(PID.TID 0000.0001) %MON extforcing_fv_mean           =   0.0000000000000E+00
(PID.TID 0000.0001) %MON extforcing_fv_sd             =   0.0000000000000E+00
(PID.TID 0000.0001) %MON extforcing_fv_del2           =   0.0000000000000E+00
(PID.TID 0000.0001) %MON advcfl_uvel_max              =   5.5816324182291E-02
(PID.TID 0000.0001) %MON advcfl_vvel_max              =   1.6660033351210E-02
(PID.TID 0000.0001) %MON advcfl_wvel_max              =   5.8613839295636E-02
(PID.TID 0000.0001) %MON advcfl_W_hf_max              =   1.1710839873741E-01
(PID.TID 0000.0001) %MON pe_b_mean                    =   2.3060019219004E-07
(PID.TID 0000.0001) %MON ke_max                       =   1.6097412429753E-02
(PID.TID 0000.0001) %MON ke_mean                      =   5.4401637131764E-04
(PID.TID 0000.0001) %MON ke_vol                       =   7.5000000000000E+10
(PID.TID 0000.0001) %MON vort_r_min                   =  -9.7041175700788E-06
(PID.TID 0000.0001) %MON vort_r_max                   =   1.2330376222271E-05
(PID.TID 0000.0001) %MON vort_a_mean                  =   1.4000000000000E-04
(PID.TID 0000.0001) %MON vort_a_sd                    =   2.1114110051907E-06
(PID.TID 0000.0001) %MON vort_p_mean                  =   1.4000000000000E-04
(PID.TID 0000.0001) %MON vort_p_sd                    =   2.1114110051907E-06
(PID.TID 0000.0001) %MON surfExpan_theta_mean         =  -8.7043975325817E-10
(PID.TID 0000.0001) %MON surfExpan_salt_mean          =  -3.1622526819319E-18
(PID.TID 0000.0001) // =======================================================
(PID.TID 0000.0001) // End MONITOR dynamic field statistics
(PID.TID 0000.0001) // =======================================================
 cg2d: Sum(rhs),rhsMax =  -2.22044604925031E-16  2.85359019267281E-01
(PID.TID 0000.0001)                    cg2d_init_res =    8.09139219056049E-04
(PID.TID 0000.0001)                       cg2d_iters =     1
(PID.TID 0000.0001)                         cg2d_res =    1.28103671290514E-16
(PID.TID 0000.0001) // =======================================================
(PID.TID 0000.0001) // Begin MONITOR dynamic field statistics
(PID.TID 0000.0001) // =======================================================
(PID.TID 0000.0001) %MON time_tsnumber                =                     7
(PID.TID 0000.0001) %MON time_secondsf                =   8.4000000000000E+03
(PID.TID 0000.0001) %MON dynstat_eta_max              =   5.0441603479534E-03
(PID.TID 0000.0001) %MON dynstat_eta_min              =  -9.6904784843220E-03
(PID.TID 0000.0001) %MON dynstat_eta_mean             =  -1.2417634328206E-18
(PID.TID 0000.0001) %MON dynstat_eta_sd               =   6.8541276881239E-03
(PID.TID 0000.0001) %MON dynstat_eta_del2             =   4.8452392421610E-03
(PID.TID 0000.0001) %MON dynstat_uvel_max             =   2.6340922430389E-01
(PID.TID 0000.0001) %MON dynstat_uvel_min             =  -2.0009061020595E-02
(PID.TID 0000.0001) %MON dynstat_uvel_mean            =   4.4805926457096E-03
(PID.TID 0000.0001) %MON dynstat_uvel_sd              =   3.4741728251525E-02
(PID.TID 0000.0001) %MON dynstat_uvel_del2            =   9.2792402955793E-03
(PID.TID 0000.0001) %MON dynstat_vvel_max             =   1.7233132586914E-03
(PID.TID 0000.0001) %MON dynstat_vvel_min             =  -9.4461554062600E-02
(PID.TID 0000.0001) %MON dynstat_vvel_mean            =  -2.9583003677660E-03
(PID.TID 0000.0001) %MON dynstat_vvel_sd              =   1.5353242509509E-02
(PID.TID 0000.0001) %MON dynstat_vvel_del2            =   2.6059419043998E-03
(PID.TID 0000.0001) %MON dynstat_wvel_max             =   2.8521594571957E-03
(PID.TID 0000.0001) %MON dynstat_wvel_min             =  -2.6061617295239E-03
(PID.TID 0000.0001) %MON dynstat_wvel_mean            =  -1.4733503230362E-19
(PID.TID 0000.0001) %MON dynstat_wvel_sd              =   1.4076688306371E-03
(PID.TID 0000.0001) %MON dynstat_wvel_del2            =   7.5859238519670E-04
(PID.TID 0000.0001) %MON dynstat_theta_max            =   2.9347560645082E+00
(PID.TID 0000.0001) %MON dynstat_theta_min            =   4.5566187636843E-01
(PID.TID 0000.0001) %MON dynstat_theta_mean           =   1.6700687320752E+00
(PID.TID 0000.0001) %MON dynstat_theta_sd             =   7.2756390896427E-01
(PID.TID 0000.0001) %MON dynstat_theta_del2           =   2.5301228503877E-02
(PID.TID 0000.0001) %MON dynstat_salt_max             =   3.5000000000000E+01
(PID.TID 0000.0001) %MON dynstat_salt_min             =   3.5000000000000E+01
(PID.TID 0000.0001) %MON dynstat_salt_mean            =   3.5000000000000E+01
(PID.TID 0000.0001) %MON dynstat_salt_sd              =   3.4773064223947E-14
(PID.TID 0000.0001) %MON dynstat_salt_del2            =   0.0000000000000E+00
(PID.TID 0000.0001) %MON dynstat_sst_max              =   2.9347560645082E+00
(PID.TID 0000.0001) %MON dynstat_sst_min              =   1.7528709474930E+00
(PID.TID 0000.0001) %MON dynstat_sst_mean             =   2.5407943588365E+00
(PID.TID 0000.0001) %MON dynstat_sst_sd               =   5.5714598721662E-01
(PID.TID 0000.0001) %MON dynstat_sst_del2             =   3.9396170567175E-01
(PID.TID 0000.0001) %MON dynstat_sss_max              =   3.5000000000000E+01
(PID.TID 0000.0001) %MON dynstat_sss_min              =   3.5000000000000E+01
(PID.TID 0000.0001) %MON dynstat_sss_mean             =   3.5000000000000E+01
(PID.TID 0000.0001) %MON dynstat_sss_sd               =   0.0000000000000E+00
(PID.TID 0000.0001) %MON dynstat_sss_del2             =   0.0000000000000E+00
(PID.TID 0000.0001) %MON extforcing_qnet_max          =   2.0000000000000E+02
(PID.TID 0000.0001) %MON extforcing_qnet_min          =   0.0000000000000E+00
(PID.TID 0000.0001) %MON extforcing_qnet_mean         =   6.6666666666667E+01
(PID.TID 0000.0001) %MON extforcing_qnet_sd           =   9.4280904158206E+01
(PID.TID 0000.0001) %MON extforcing_qnet_del2         =   6.6666666666667E+01
(PID.TID 0000.0001) %MON extforcing_qsw_max           =   0.0000000000000E+00
(PID.TID 0000.0001) %MON extforcing_qsw_min           =   0.0000000000000E+00
(PID.TID 0000.0001) %MON extforcing_qsw_mean          =   0.0000000000000E+00
(PID.TID 0000.0001) %MON extforcing_qsw_sd            =   0.0000000000000E+00
(PID.TID 0000.0001) %MON extforcing_qsw_del2          =   0.0000000000000E+00
(PID.TID 0000.0001) %MON extforcing_empmr_max         =   0.0000000000000E+00
(PID.TID 0000.0001) %MON extforcing_empmr_min         =   0.0000000000000E+00
(PID.TID 0000.0001) %MON extforcing_empmr_mean        =   0.0000000000000E+00
(PID.TID 0000.0001) %MON extforcing_empmr_sd          =   0.0000000000000E+00
(PID.TID 0000.0001) %MON extforcing_empmr_del2        =   0.0000000000000E+00
(PID.TID 0000.0001) %MON extforcing_fu_max            =   1.0000000000000E+00
(PID.TID 0000.0001) %MON extforcing_fu_min            =   0.0000000000000E+00
(PID.TID 0000.0001) %MON extforcing_fu_mean           =   6.6666666666667E-01
(PID.TID 0000.0001) %MON extforcing_fu_sd             =   4.7140452079103E-01
(PID.TID 0000.0001) %MON extforcing_fu_del2           =   3.3333333333333E-01
(PID.TID 0000.0001) %MON extforcing_fv_max            =   0.0000000000000E+00
(PID.TID 0000.0001) %MON extforcing_fv_min            =   0.0000000000000E+00
(PID.TID 0000.0001) %MON extforcing_fv_mean           =   0.0000000000000E+00
(PID.TID 0000.0001) %MON extforcing_fv_sd             =   0.0000000000000E+00
(PID.TID 0000.0001) %MON extforcing_fv_del2           =   0.0000000000000E+00
(PID.TID 0000.0001) %MON advcfl_uvel_max              =   6.3218213832933E-02
(PID.TID 0000.0001) %MON advcfl_vvel_max              =   2.2670772975024E-02
(PID.TID 0000.0001) %MON advcfl_wvel_max              =   6.8451826972697E-02
(PID.TID 0000.0001) %MON advcfl_W_hf_max              =   1.3604052177166E-01
(PID.TID 0000.0001) %MON pe_b_mean                    =   2.3043232052085E-07
(PID.TID 0000.0001) %MON ke_max                       =   2.1976702131659E-02
(PID.TID 0000.0001) %MON ke_mean                      =   7.3576849449064E-04
(PID.TID 0000.0001) %MON ke_vol                       =   7.5000000000000E+10
(PID.TID 0000.0001) %MON vort_r_min                   =  -1.2905290564728E-05
(PID.TID 0000.0001) %MON vort_r_max                   =   1.7065426580679E-05
(PID.TID 0000.0001) %MON vort_a_mean                  =   1.4000000000000E-04
(PID.TID 0000.0001) %MON vort_a_sd                    =   2.8965675393052E-06
(PID.TID 0000.0001) %MON vort_p_mean                  =   1.4000000000000E-04
(PID.TID 0000.0001) %MON vort_p_sd                    =   2.8965675393052E-06
(PID.TID 0000.0001) %MON surfExpan_theta_mean         =  -1.1996995425218E-09
(PID.TID 0000.0001) %MON surfExpan_salt_mean          =  -1.5178838926507E-17
(PID.TID 0000.0001) // =======================================================
(PID.TID 0000.0001) // End MONITOR dynamic field statistics
(PID.TID 0000.0001) // =======================================================
 cg2d: Sum(rhs),rhsMax =  -2.22044604925031E-16  2.85239274701227E-01
(PID.TID 0000.0001)                    cg2d_init_res =    5.79790158405251E-04
(PID.TID 0000.0001)                       cg2d_iters =     1
(PID.TID 0000.0001)                         cg2d_res =    2.56121170438958E-16
(PID.TID 0000.0001) // =======================================================
(PID.TID 0000.0001) // Begin MONITOR dynamic field statistics
(PID.TID 0000.0001) // =======================================================
(PID.TID 0000.0001) %MON time_tsnumber                =                     8
(PID.TID 0000.0001) %MON time_secondsf                =   9.6000000000000E+03
(PID.TID 0000.0001) %MON dynstat_eta_max              =   5.0439625105511E-03
(PID.TID 0000.0001) %MON dynstat_eta_min              =  -9.6864120905421E-03
(PID.TID 0000.0001) %MON dynstat_eta_mean             =   7.4505805969238E-19
(PID.TID 0000.0001) %MON dynstat_eta_sd               =   6.8512888105914E-03
(PID.TID 0000.0001) %MON dynstat_eta_del2             =   4.8432060452711E-03
(PID.TID 0000.0001) %MON dynstat_uvel_max             =   2.9067904158753E-01
(PID.TID 0000.0001) %MON dynstat_uvel_min             =  -3.0943361277458E-02
(PID.TID 0000.0001) %MON dynstat_uvel_mean            =   4.7210001010223E-03
(PID.TID 0000.0001) %MON dynstat_uvel_sd              =   3.8516773526875E-02
(PID.TID 0000.0001) %MON dynstat_uvel_del2            =   1.0625974268209E-02
(PID.TID 0000.0001) %MON dynstat_vvel_max             =   3.2473587890111E-03
(PID.TID 0000.0001) %MON dynstat_vvel_min             =  -1.2267701936185E-01
(PID.TID 0000.0001) %MON dynstat_vvel_mean            =  -3.7427179927092E-03
(PID.TID 0000.0001) %MON dynstat_vvel_sd              =   1.9620873065997E-02
(PID.TID 0000.0001) %MON dynstat_vvel_del2            =   3.4491510313977E-03
(PID.TID 0000.0001) %MON dynstat_wvel_max             =   3.2494400473710E-03
(PID.TID 0000.0001) %MON dynstat_wvel_min             =  -2.9731980337835E-03
(PID.TID 0000.0001) %MON dynstat_wvel_mean            =  -6.8605439657839E-20
(PID.TID 0000.0001) %MON dynstat_wvel_sd              =   1.6087549960109E-03
(PID.TID 0000.0001) %MON dynstat_wvel_del2            =   8.6586819148392E-04
(PID.TID 0000.0001) %MON dynstat_theta_max            =   2.9347554382326E+00
(PID.TID 0000.0001) %MON dynstat_theta_min            =   4.5566250264407E-01
(PID.TID 0000.0001) %MON dynstat_theta_mean           =   1.6700486980233E+00
(PID.TID 0000.0001) %MON dynstat_theta_sd             =   7.2707964606679E-01
(PID.TID 0000.0001) %MON dynstat_theta_del2           =   2.5292873021818E-02
(PID.TID 0000.0001) %MON dynstat_salt_max             =   3.5000000000000E+01
(PID.TID 0000.0001) %MON dynstat_salt_min             =   3.5000000000000E+01
(PID.TID 0000.0001) %MON dynstat_salt_mean            =   3.5000000000000E+01
(PID.TID 0000.0001) %MON dynstat_salt_sd              =   2.2243506013096E-14
(PID.TID 0000.0001) %MON dynstat_salt_del2            =   0.0000000000000E+00
(PID.TID 0000.0001) %MON dynstat_sst_max              =   2.9347554382326E+00
(PID.TID 0000.0001) %MON dynstat_sst_min              =   1.7779774806286E+00
(PID.TID 0000.0001) %MON dynstat_sst_mean             =   2.5491627856979E+00
(PID.TID 0000.0001) %MON dynstat_sst_sd               =   5.4531035876595E-01
(PID.TID 0000.0001) %MON dynstat_sst_del2             =   3.8559265253467E-01
(PID.TID 0000.0001) %MON dynstat_sss_max              =   3.5000000000000E+01
(PID.TID 0000.0001) %MON dynstat_sss_min              =   3.5000000000000E+01
(PID.TID 0000.0001) %MON dynstat_sss_mean             =   3.5000000000000E+01
(PID.TID 0000.0001) %MON dynstat_sss_sd               =   0.0000000000000E+00
(PID.TID 0000.0001) %MON dynstat_sss_del2             =   0.0000000000000E+00
(PID.TID 0000.0001) %MON extforcing_qnet_max          =   2.0000000000000E+02
(PID.TID 0000.0001) %MON extforcing_qnet_min          =   0.0000000000000E+00
(PID.TID 0000.0001) %MON extforcing_qnet_mean         =   6.6666666666667E+01
(PID.TID 0000.0001) %MON extforcing_qnet_sd           =   9.4280904158206E+01
(PID.TID 0000.0001) %MON extforcing_qnet_del2         =   6.6666666666667E+01
(PID.TID 0000.0001) %MON extforcing_qsw_max           =   0.0000000000000E+00
(PID.TID 0000.0001) %MON extforcing_qsw_min           =   0.0000000000000E+00
(PID.TID 0000.0001) %MON extforcing_qsw_mean          =   0.0000000000000E+00
(PID.TID 0000.0001) %MON extforcing_qsw_sd            =   0.0000000000000E+00
(PID.TID 0000.0001) %MON extforcing_qsw_del2          =   0.0000000000000E+00
(PID.TID 0000.0001) %MON extforcing_empmr_max         =   0.0000000000000E+00
(PID.TID 0000.0001) %MON extforcing_empmr_min         =   0.0000000000000E+00
(PID.TID 0000.0001) %MON extforcing_empmr_mean        =   0.0000000000000E+00
(PID.TID 0000.0001) %MON extforcing_empmr_sd          =   0.0000000000000E+00
(PID.TID 0000.0001) %MON extforcing_empmr_del2        =   0.0000000000000E+00
(PID.TID 0000.0001) %MON extforcing_fu_max            =   1.0000000000000E+00
(PID.TID 0000.0001) %MON extforcing_fu_min            =   0.0000000000000E+00
(PID.TID 0000.0001) %MON extforcing_fu_mean           =   6.6666666666667E-01
(PID.TID 0000.0001) %MON extforcing_fu_sd             =   4.7140452079103E-01
(PID.TID 0000.0001) %MON extforcing_fu_del2           =   3.3333333333333E-01
(PID.TID 0000.0001) %MON extforcing_fv_max            =   0.0000000000000E+00
(PID.TID 0000.0001) %MON extforcing_fv_min            =   0.0000000000000E+00
(PID.TID 0000.0001) %MON extforcing_fv_mean           =   0.0000000000000E+00
(PID.TID 0000.0001) %MON extforcing_fv_sd             =   0.0000000000000E+00
(PID.TID 0000.0001) %MON extforcing_fv_del2           =   0.0000000000000E+00
(PID.TID 0000.0001) %MON advcfl_uvel_max              =   6.9762969981007E-02
(PID.TID 0000.0001) %MON advcfl_vvel_max              =   2.9442484646845E-02
(PID.TID 0000.0001) %MON advcfl_wvel_max              =   7.7986561136903E-02
(PID.TID 0000.0001) %MON advcfl_W_hf_max              =   1.5437859863294E-01
(PID.TID 0000.0001) %MON pe_b_mean                    =   2.3024147678589E-07
(PID.TID 0000.0001) %MON ke_max                       =   2.8799388603919E-02
(PID.TID 0000.0001) %MON ke_mean                      =   9.5240814135965E-04
(PID.TID 0000.0001) %MON ke_vol                       =   7.5000000000000E+10
(PID.TID 0000.0001) %MON vort_r_min                   =  -1.6316236792476E-05
(PID.TID 0000.0001) %MON vort_r_max                   =   2.2565730474995E-05
(PID.TID 0000.0001) %MON vort_a_mean                  =   1.4000000000000E-04
(PID.TID 0000.0001) %MON vort_a_sd                    =   3.8001144590239E-06
(PID.TID 0000.0001) %MON vort_p_mean                  =   1.4000000000000E-04
(PID.TID 0000.0001) %MON vort_p_sd                    =   3.8001144590239E-06
(PID.TID 0000.0001) %MON surfExpan_theta_mean         =  -1.3066429667913E-09
(PID.TID 0000.0001) %MON surfExpan_salt_mean          =  -1.2649024050404E-17
(PID.TID 0000.0001) // =======================================================
(PID.TID 0000.0001) // End MONITOR dynamic field statistics
(PID.TID 0000.0001) // =======================================================
 cg2d: Sum(rhs),rhsMax =   1.11022302462516E-16  2.85232119256371E-01
(PID.TID 0000.0001)                    cg2d_init_res =    2.79595317389377E-04
(PID.TID 0000.0001)                       cg2d_iters =     1
(PID.TID 0000.0001)                         cg2d_res =    9.60620954413425E-17
(PID.TID 0000.0001) // =======================================================
(PID.TID 0000.0001) // Begin MONITOR dynamic field statistics
(PID.TID 0000.0001) // =======================================================
(PID.TID 0000.0001) %MON time_tsnumber                =                     9
(PID.TID 0000.0001) %MON time_secondsf                =   1.0800000000000E+04
(PID.TID 0000.0001) %MON dynstat_eta_max              =   5.0419376205609E-03
(PID.TID 0000.0001) %MON dynstat_eta_min              =  -9.6861690995037E-03
(PID.TID 0000.0001) %MON dynstat_eta_mean             =   0.0000000000000E+00
(PID.TID 0000.0001) %MON dynstat_eta_sd               =   6.8510800322239E-03
(PID.TID 0000.0001) %MON dynstat_eta_del2             =   4.8430845497518E-03
(PID.TID 0000.0001) %MON dynstat_uvel_max             =   3.1398293684180E-01
(PID.TID 0000.0001) %MON dynstat_uvel_min             =  -4.4049575570014E-02
(PID.TID 0000.0001) %MON dynstat_uvel_mean            =   4.8251744969580E-03
(PID.TID 0000.0001) %MON dynstat_uvel_sd              =   4.1872555537535E-02
(PID.TID 0000.0001) %MON dynstat_uvel_del2            =   1.1925563135044E-02
(PID.TID 0000.0001) %MON dynstat_vvel_max             =   5.4444370033272E-03
(PID.TID 0000.0001) %MON dynstat_vvel_min             =  -1.5363611984349E-01
(PID.TID 0000.0001) %MON dynstat_vvel_mean            =  -4.5564440330857E-03
(PID.TID 0000.0001) %MON dynstat_vvel_sd              =   2.4167630928232E-02
(PID.TID 0000.0001) %MON dynstat_vvel_del2            =   4.4070211949443E-03
(PID.TID 0000.0001) %MON dynstat_wvel_max             =   3.6240393667004E-03
(PID.TID 0000.0001) %MON dynstat_wvel_min             =  -3.3233793965711E-03
(PID.TID 0000.0001) %MON dynstat_wvel_mean            =   1.5728505981019E-19
(PID.TID 0000.0001) %MON dynstat_wvel_sd              =   1.8010932522136E-03
(PID.TID 0000.0001) %MON dynstat_wvel_del2            =   9.6764675641167E-04
(PID.TID 0000.0001) %MON dynstat_theta_max            =   2.9347548119599E+00
(PID.TID 0000.0001) %MON dynstat_theta_min            =   4.5566312891671E-01
(PID.TID 0000.0001) %MON dynstat_theta_mean           =   1.6700286639714E+00
(PID.TID 0000.0001) %MON dynstat_theta_sd             =   7.2662445671282E-01
(PID.TID 0000.0001) %MON dynstat_theta_del2           =   2.5440299752332E-02
(PID.TID 0000.0001) %MON dynstat_salt_max             =   3.5000000000000E+01
(PID.TID 0000.0001) %MON dynstat_salt_min             =   3.5000000000000E+01
(PID.TID 0000.0001) %MON dynstat_salt_mean            =   3.5000000000000E+01
(PID.TID 0000.0001) %MON dynstat_salt_sd              =   2.8818618305128E-14
(PID.TID 0000.0001) %MON dynstat_salt_del2            =   0.0000000000000E+00
(PID.TID 0000.0001) %MON dynstat_sst_max              =   2.9347548119599E+00
(PID.TID 0000.0001) %MON dynstat_sst_min              =   1.8022466429622E+00
(PID.TID 0000.0001) %MON dynstat_sst_mean             =   2.5572520889607E+00
(PID.TID 0000.0001) %MON dynstat_sst_sd               =   5.3386947069829E-01
(PID.TID 0000.0001) %MON dynstat_sst_del2             =   3.7750272299924E-01
(PID.TID 0000.0001) %MON dynstat_sss_max              =   3.5000000000000E+01
(PID.TID 0000.0001) %MON dynstat_sss_min              =   3.5000000000000E+01
(PID.TID 0000.0001) %MON dynstat_sss_mean             =   3.5000000000000E+01
(PID.TID 0000.0001) %MON dynstat_sss_sd               =   0.0000000000000E+00
(PID.TID 0000.0001) %MON dynstat_sss_del2             =   0.0000000000000E+00
(PID.TID 0000.0001) %MON extforcing_qnet_max          =   2.0000000000000E+02
(PID.TID 0000.0001) %MON extforcing_qnet_min          =   0.0000000000000E+00
(PID.TID 0000.0001) %MON extforcing_qnet_mean         =   6.6666666666667E+01
(PID.TID 0000.0001) %MON extforcing_qnet_sd           =   9.4280904158206E+01
(PID.TID 0000.0001) %MON extforcing_qnet_del2         =   6.6666666666667E+01
(PID.TID 0000.0001) %MON extforcing_qsw_max           =   0.0000000000000E+00
(PID.TID 0000.0001) %MON extforcing_qsw_min           =   0.0000000000000E+00
(PID.TID 0000.0001) %MON extforcing_qsw_mean          =   0.0000000000000E+00
(PID.TID 0000.0001) %MON extforcing_qsw_sd            =   0.0000000000000E+00
(PID.TID 0000.0001) %MON extforcing_qsw_del2          =   0.0000000000000E+00
(PID.TID 0000.0001) %MON extforcing_empmr_max         =   0.0000000000000E+00
(PID.TID 0000.0001) %MON extforcing_empmr_min         =   0.0000000000000E+00
(PID.TID 0000.0001) %MON extforcing_empmr_mean        =   0.0000000000000E+00
(PID.TID 0000.0001) %MON extforcing_empmr_sd          =   0.0000000000000E+00
(PID.TID 0000.0001) %MON extforcing_empmr_del2        =   0.0000000000000E+00
(PID.TID 0000.0001) %MON extforcing_fu_max            =   1.0000000000000E+00
(PID.TID 0000.0001) %MON extforcing_fu_min            =   0.0000000000000E+00
(PID.TID 0000.0001) %MON extforcing_fu_mean           =   6.6666666666667E-01
(PID.TID 0000.0001) %MON extforcing_fu_sd             =   4.7140452079103E-01
(PID.TID 0000.0001) %MON extforcing_fu_del2           =   3.3333333333333E-01
(PID.TID 0000.0001) %MON extforcing_fv_max            =   0.0000000000000E+00
(PID.TID 0000.0001) %MON extforcing_fv_min            =   0.0000000000000E+00
(PID.TID 0000.0001) %MON extforcing_fv_mean           =   0.0000000000000E+00
(PID.TID 0000.0001) %MON extforcing_fv_sd             =   0.0000000000000E+00
(PID.TID 0000.0001) %MON extforcing_fv_del2           =   0.0000000000000E+00
(PID.TID 0000.0001) %MON advcfl_uvel_max              =   7.5355904842032E-02
(PID.TID 0000.0001) %MON advcfl_vvel_max              =   3.6872668762439E-02
(PID.TID 0000.0001) %MON advcfl_wvel_max              =   8.6976944800810E-02
(PID.TID 0000.0001) %MON advcfl_W_hf_max              =   1.7185567723363E-01
(PID.TID 0000.0001) %MON pe_b_mean                    =   2.3022744476693E-07
(PID.TID 0000.0001) %MON ke_max                       =   3.6562722270772E-02
(PID.TID 0000.0001) %MON ke_mean                      =   1.1907143915400E-03
(PID.TID 0000.0001) %MON ke_vol                       =   7.5000000000000E+10
(PID.TID 0000.0001) %MON vort_r_min                   =  -1.9837019410058E-05
(PID.TID 0000.0001) %MON vort_r_max                   =   2.8804334620449E-05
(PID.TID 0000.0001) %MON vort_a_mean                  =   1.4000000000000E-04
(PID.TID 0000.0001) %MON vort_a_sd                    =   4.8206019022435E-06
(PID.TID 0000.0001) %MON vort_p_mean                  =   1.4000000000000E-04
(PID.TID 0000.0001) %MON vort_p_sd                    =   4.8206019022435E-06
(PID.TID 0000.0001) %MON surfExpan_theta_mean         =  -7.6441479253050E-11
(PID.TID 0000.0001) %MON surfExpan_salt_mean          =   1.5178833005317E-17
(PID.TID 0000.0001) // =======================================================
(PID.TID 0000.0001) // End MONITOR dynamic field statistics
(PID.TID 0000.0001) // =======================================================
 cg2d: Sum(rhs),rhsMax =   4.44089209850063E-16  2.85122319151182E-01
(PID.TID 0000.0001)                    cg2d_init_res =    1.06299113683022E-03
(PID.TID 0000.0001)                       cg2d_iters =     1
(PID.TID 0000.0001)                         cg2d_res =    2.56113459432206E-16
(PID.TID 0000.0001) // =======================================================
(PID.TID 0000.0001) // Begin MONITOR dynamic field statistics
(PID.TID 0000.0001) // =======================================================
(PID.TID 0000.0001) %MON time_tsnumber                =                    10
(PID.TID 0000.0001) %MON time_secondsf                =   1.2000000000000E+04
(PID.TID 0000.0001) %MON dynstat_eta_max              =   5.0335510925615E-03
(PID.TID 0000.0001) %MON dynstat_eta_min              =  -9.6824404086789E-03
(PID.TID 0000.0001) %MON dynstat_eta_mean             =  -2.4835268656413E-18
(PID.TID 0000.0001) %MON dynstat_eta_sd               =   6.8483200067013E-03
(PID.TID 0000.0001) %MON dynstat_eta_del2             =   4.8412202043395E-03
(PID.TID 0000.0001) %MON dynstat_uvel_max             =   3.3323694952469E-01
(PID.TID 0000.0001) %MON dynstat_uvel_min             =  -5.9019952942125E-02
(PID.TID 0000.0001) %MON dynstat_uvel_mean            =   4.7901317540594E-03
(PID.TID 0000.0001) %MON dynstat_uvel_sd              =   4.4824944337615E-02
(PID.TID 0000.0001) %MON dynstat_uvel_del2            =   1.3178781211948E-02
(PID.TID 0000.0001) %MON dynstat_vvel_max             =   8.3771207871832E-03
(PID.TID 0000.0001) %MON dynstat_vvel_min             =  -1.8679745843471E-01
(PID.TID 0000.0001) %MON dynstat_vvel_mean            =  -5.3759989313974E-03
(PID.TID 0000.0001) %MON dynstat_vvel_sd              =   2.8901919361250E-02
(PID.TID 0000.0001) %MON dynstat_vvel_del2            =   5.4734715269742E-03
(PID.TID 0000.0001) %MON dynstat_wvel_max             =   3.9706538463886E-03
(PID.TID 0000.0001) %MON dynstat_wvel_min             =  -3.6795877215624E-03
(PID.TID 0000.0001) %MON dynstat_wvel_mean            =  -6.6889059912955E-20
(PID.TID 0000.0001) %MON dynstat_wvel_sd              =   1.9836418798677E-03
(PID.TID 0000.0001) %MON dynstat_wvel_del2            =   1.0623536335183E-03
(PID.TID 0000.0001) %MON dynstat_theta_max            =   2.9347541856903E+00
(PID.TID 0000.0001) %MON dynstat_theta_min            =   4.5566375518635E-01
(PID.TID 0000.0001) %MON dynstat_theta_mean           =   1.6700086299196E+00
(PID.TID 0000.0001) %MON dynstat_theta_sd             =   7.2620651651133E-01
(PID.TID 0000.0001) %MON dynstat_theta_del2           =   2.5555847486380E-02
(PID.TID 0000.0001) %MON dynstat_salt_max             =   3.5000000000000E+01
(PID.TID 0000.0001) %MON dynstat_salt_min             =   3.5000000000000E+01
(PID.TID 0000.0001) %MON dynstat_salt_mean            =   3.5000000000000E+01
(PID.TID 0000.0001) %MON dynstat_salt_sd              =   3.5527136788005E-14
(PID.TID 0000.0001) %MON dynstat_salt_del2            =   0.0000000000000E+00
(PID.TID 0000.0001) %MON dynstat_sst_max              =   2.9347541856903E+00
(PID.TID 0000.0001) %MON dynstat_sst_min              =   1.8252409532781E+00
(PID.TID 0000.0001) %MON dynstat_sst_mean             =   2.5649164415529E+00
(PID.TID 0000.0001) %MON dynstat_sst_sd               =   5.2302955363661E-01
(PID.TID 0000.0001) %MON dynstat_sst_del2             =   3.6983774413742E-01
(PID.TID 0000.0001) %MON dynstat_sss_max              =   3.5000000000000E+01
(PID.TID 0000.0001) %MON dynstat_sss_min              =   3.5000000000000E+01
(PID.TID 0000.0001) %MON dynstat_sss_mean             =   3.5000000000000E+01
(PID.TID 0000.0001) %MON dynstat_sss_sd               =   0.0000000000000E+00
(PID.TID 0000.0001) %MON dynstat_sss_del2             =   0.0000000000000E+00
(PID.TID 0000.0001) %MON extforcing_qnet_max          =   2.0000000000000E+02
(PID.TID 0000.0001) %MON extforcing_qnet_min          =   0.0000000000000E+00
(PID.TID 0000.0001) %MON extforcing_qnet_mean         =   6.6666666666667E+01
(PID.TID 0000.0001) %MON extforcing_qnet_sd           =   9.4280904158206E+01
(PID.TID 0000.0001) %MON extforcing_qnet_del2         =   6.6666666666667E+01
(PID.TID 0000.0001) %MON extforcing_qsw_max           =   0.0000000000000E+00
(PID.TID 0000.0001) %MON extforcing_qsw_min           =   0.0000000000000E+00
(PID.TID 0000.0001) %MON extforcing_qsw_mean          =   0.0000000000000E+00
(PID.TID 0000.0001) %MON extforcing_qsw_sd            =   0.0000000000000E+00
(PID.TID 0000.0001) %MON extforcing_qsw_del2          =   0.0000000000000E+00
(PID.TID 0000.0001) %MON extforcing_empmr_max         =   0.0000000000000E+00
(PID.TID 0000.0001) %MON extforcing_empmr_min         =   0.0000000000000E+00
(PID.TID 0000.0001) %MON extforcing_empmr_mean        =   0.0000000000000E+00
(PID.TID 0000.0001) %MON extforcing_empmr_sd          =   0.0000000000000E+00
(PID.TID 0000.0001) %MON extforcing_empmr_del2        =   0.0000000000000E+00
(PID.TID 0000.0001) %MON extforcing_fu_max            =   1.0000000000000E+00
(PID.TID 0000.0001) %MON extforcing_fu_min            =   0.0000000000000E+00
(PID.TID 0000.0001) %MON extforcing_fu_mean           =   6.6666666666667E-01
(PID.TID 0000.0001) %MON extforcing_fu_sd             =   4.7140452079103E-01
(PID.TID 0000.0001) %MON extforcing_fu_del2           =   3.3333333333333E-01
(PID.TID 0000.0001) %MON extforcing_fv_max            =   0.0000000000000E+00
(PID.TID 0000.0001) %MON extforcing_fv_min            =   0.0000000000000E+00
(PID.TID 0000.0001) %MON extforcing_fv_mean           =   0.0000000000000E+00
(PID.TID 0000.0001) %MON extforcing_fv_sd             =   0.0000000000000E+00
(PID.TID 0000.0001) %MON extforcing_fv_del2           =   0.0000000000000E+00
(PID.TID 0000.0001) %MON advcfl_uvel_max              =   7.9976867885927E-02
(PID.TID 0000.0001) %MON advcfl_vvel_max              =   4.4831390024331E-02
(PID.TID 0000.0001) %MON advcfl_wvel_max              =   9.5295692313327E-02
(PID.TID 0000.0001) %MON advcfl_W_hf_max              =   1.8828349949756E-01
(PID.TID 0000.0001) %MON pe_b_mean                    =   2.3004198331408E-07
(PID.TID 0000.0001) %MON ke_max                       =   4.5273720456935E-02
(PID.TID 0000.0001) %MON ke_mean                      =   1.4482216521831E-03
(PID.TID 0000.0001) %MON ke_vol                       =   7.5000000000000E+10
(PID.TID 0000.0001) %MON vort_r_min                   =  -2.3370974566897E-05
(PID.TID 0000.0001) %MON vort_r_max                   =   3.5730772840611E-05
(PID.TID 0000.0001) %MON vort_a_mean                  =   1.4000000000000E-04
(PID.TID 0000.0001) %MON vort_a_sd                    =   5.9549731379151E-06
(PID.TID 0000.0001) %MON vort_p_mean                  =   1.4000000000000E-04
(PID.TID 0000.0001) %MON vort_p_sd                    =   5.9549731379151E-06
(PID.TID 0000.0001) %MON surfExpan_theta_mean         =  -1.1491755031908E-09
(PID.TID 0000.0001) %MON surfExpan_salt_mean          =   3.7947008498425E-18
(PID.TID 0000.0001) // =======================================================
(PID.TID 0000.0001) // End MONITOR dynamic field statistics
(PID.TID 0000.0001) // =======================================================
 cg2d: Sum(rhs),rhsMax =  -2.22044604925031E-16  2.84893871649192E-01
(PID.TID 0000.0001)                    cg2d_init_res =    1.96286095873333E-03
(PID.TID 0000.0001)                       cg2d_iters =     1
(PID.TID 0000.0001)                         cg2d_res =    2.24157979780971E-16
(PID.TID 0000.0001) // =======================================================
(PID.TID 0000.0001) // Begin MONITOR dynamic field statistics
(PID.TID 0000.0001) // =======================================================
(PID.TID 0000.0001) %MON time_tsnumber                =                    11
(PID.TID 0000.0001) %MON time_secondsf                =   1.3200000000000E+04
(PID.TID 0000.0001) %MON dynstat_eta_max              =   5.0180457773185E-03
(PID.TID 0000.0001) %MON dynstat_eta_min              =  -9.6746825827356E-03
(PID.TID 0000.0001) %MON dynstat_eta_mean             =   0.0000000000000E+00
(PID.TID 0000.0001) %MON dynstat_eta_sd               =   6.8426245656063E-03
(PID.TID 0000.0001) %MON dynstat_eta_del2             =   4.8373412913678E-03
(PID.TID 0000.0001) %MON dynstat_uvel_max             =   3.4843738501586E-01
(PID.TID 0000.0001) %MON dynstat_uvel_min             =  -7.5426910433332E-02
(PID.TID 0000.0001) %MON dynstat_uvel_mean            =   4.6169038125202E-03
(PID.TID 0000.0001) %MON dynstat_uvel_sd              =   4.7399635459045E-02
(PID.TID 0000.0001) %MON dynstat_uvel_del2            =   1.4381474207118E-02
(PID.TID 0000.0001) %MON dynstat_vvel_max             =   1.2015229761563E-02
(PID.TID 0000.0001) %MON dynstat_vvel_min             =  -2.2151324043307E-01
(PID.TID 0000.0001) %MON dynstat_vvel_mean            =  -6.1777380352428E-03
(PID.TID 0000.0001) %MON dynstat_vvel_sd              =   3.3733857466029E-02
(PID.TID 0000.0001) %MON dynstat_vvel_del2            =   6.6503569588760E-03
(PID.TID 0000.0001) %MON dynstat_wvel_max             =   4.2827314115841E-03
(PID.TID 0000.0001) %MON dynstat_wvel_min             =  -4.0367979629866E-03
(PID.TID 0000.0001) %MON dynstat_wvel_mean            =   3.5645973542307E-20
(PID.TID 0000.0001) %MON dynstat_wvel_sd              =   2.1553962536188E-03
(PID.TID 0000.0001) %MON dynstat_wvel_del2            =   1.1483382134460E-03
(PID.TID 0000.0001) %MON dynstat_theta_max            =   2.9347535594237E+00
(PID.TID 0000.0001) %MON dynstat_theta_min            =   4.5566438145297E-01
(PID.TID 0000.0001) %MON dynstat_theta_mean           =   1.6699885958677E+00
(PID.TID 0000.0001) %MON dynstat_theta_sd             =   7.2570694292762E-01
(PID.TID 0000.0001) %MON dynstat_theta_del2           =   2.5646449977836E-02
(PID.TID 0000.0001) %MON dynstat_salt_max             =   3.5000000000000E+01
(PID.TID 0000.0001) %MON dynstat_salt_min             =   3.5000000000000E+01
(PID.TID 0000.0001) %MON dynstat_salt_mean            =   3.5000000000000E+01
(PID.TID 0000.0001) %MON dynstat_salt_sd              =   4.2305645270642E-14
(PID.TID 0000.0001) %MON dynstat_salt_del2            =   0.0000000000000E+00
(PID.TID 0000.0001) %MON dynstat_sst_max              =   2.9347535594237E+00
(PID.TID 0000.0001) %MON dynstat_sst_min              =   1.8547455504446E+00
(PID.TID 0000.0001) %MON dynstat_sst_mean             =   2.5747508897640E+00
(PID.TID 0000.0001) %MON dynstat_sst_sd               =   5.0912065792328E-01
(PID.TID 0000.0001) %MON dynstat_sst_del2             =   3.6000266965971E-01
(PID.TID 0000.0001) %MON dynstat_sss_max              =   3.5000000000000E+01
(PID.TID 0000.0001) %MON dynstat_sss_min              =   3.5000000000000E+01
(PID.TID 0000.0001) %MON dynstat_sss_mean             =   3.5000000000000E+01
(PID.TID 0000.0001) %MON dynstat_sss_sd               =   0.0000000000000E+00
(PID.TID 0000.0001) %MON dynstat_sss_del2             =   0.0000000000000E+00
(PID.TID 0000.0001) %MON extforcing_qnet_max          =   2.0000000000000E+02
(PID.TID 0000.0001) %MON extforcing_qnet_min          =   0.0000000000000E+00
(PID.TID 0000.0001) %MON extforcing_qnet_mean         =   6.6666666666667E+01
(PID.TID 0000.0001) %MON extforcing_qnet_sd           =   9.4280904158206E+01
(PID.TID 0000.0001) %MON extforcing_qnet_del2         =   6.6666666666667E+01
(PID.TID 0000.0001) %MON extforcing_qsw_max           =   0.0000000000000E+00
(PID.TID 0000.0001) %MON extforcing_qsw_min           =   0.0000000000000E+00
(PID.TID 0000.0001) %MON extforcing_qsw_mean          =   0.0000000000000E+00
(PID.TID 0000.0001) %MON extforcing_qsw_sd            =   0.0000000000000E+00
(PID.TID 0000.0001) %MON extforcing_qsw_del2          =   0.0000000000000E+00
(PID.TID 0000.0001) %MON extforcing_empmr_max         =   0.0000000000000E+00
(PID.TID 0000.0001) %MON extforcing_empmr_min         =   0.0000000000000E+00
(PID.TID 0000.0001) %MON extforcing_empmr_mean        =   0.0000000000000E+00
(PID.TID 0000.0001) %MON extforcing_empmr_sd          =   0.0000000000000E+00
(PID.TID 0000.0001) %MON extforcing_empmr_del2        =   0.0000000000000E+00
(PID.TID 0000.0001) %MON extforcing_fu_max            =   1.0000000000000E+00
(PID.TID 0000.0001) %MON extforcing_fu_min            =   0.0000000000000E+00
(PID.TID 0000.0001) %MON extforcing_fu_mean           =   6.6666666666667E-01
(PID.TID 0000.0001) %MON extforcing_fu_sd             =   4.7140452079103E-01
(PID.TID 0000.0001) %MON extforcing_fu_del2           =   3.3333333333333E-01
(PID.TID 0000.0001) %MON extforcing_fv_max            =   0.0000000000000E+00
(PID.TID 0000.0001) %MON extforcing_fv_min            =   0.0000000000000E+00
(PID.TID 0000.0001) %MON extforcing_fv_mean           =   0.0000000000000E+00
(PID.TID 0000.0001) %MON extforcing_fv_sd             =   0.0000000000000E+00
(PID.TID 0000.0001) %MON extforcing_fv_del2           =   0.0000000000000E+00
(PID.TID 0000.0001) %MON advcfl_uvel_max              =   8.3624972403807E-02
(PID.TID 0000.0001) %MON advcfl_vvel_max              =   5.3163177703937E-02
(PID.TID 0000.0001) %MON advcfl_wvel_max              =   1.0278555387802E-01
(PID.TID 0000.0001) %MON advcfl_W_hf_max              =   2.0345517171519E-01
(PID.TID 0000.0001) %MON pe_b_mean                    =   2.2965951118934E-07
(PID.TID 0000.0001) %MON ke_max                       =   5.4905239955376E-02
(PID.TID 0000.0001) %MON ke_mean                      =   1.7220894146174E-03
(PID.TID 0000.0001) %MON ke_vol                       =   7.5000000000000E+10
(PID.TID 0000.0001) %MON vort_r_min                   =  -2.6846799164919E-05
(PID.TID 0000.0001) %MON vort_r_max                   =   4.3280534016356E-05
(PID.TID 0000.0001) %MON vort_a_mean                  =   1.4000000000000E-04
(PID.TID 0000.0001) %MON vort_a_sd                    =   7.1997149445658E-06
(PID.TID 0000.0001) %MON vort_p_mean                  =   1.4000000000000E-04
(PID.TID 0000.0001) %MON vort_p_sd                    =   7.1997149445658E-06
(PID.TID 0000.0001) %MON surfExpan_theta_mean         =  -2.3273650415932E-09
(PID.TID 0000.0001) %MON surfExpan_salt_mean          =  -7.5894016996851E-18
(PID.TID 0000.0001) // =======================================================
(PID.TID 0000.0001) // End MONITOR dynamic field statistics
(PID.TID 0000.0001) // =======================================================
 cg2d: Sum(rhs),rhsMax =   3.33066907387547E-16  2.84325174765002E-01
(PID.TID 0000.0001)                    cg2d_init_res =    3.49260605612353E-03
(PID.TID 0000.0001)                       cg2d_iters =     1
(PID.TID 0000.0001)                         cg2d_res =    2.24095540738751E-16
(PID.TID 0000.0001) // =======================================================
(PID.TID 0000.0001) // Begin MONITOR dynamic field statistics
(PID.TID 0000.0001) // =======================================================
(PID.TID 0000.0001) %MON time_tsnumber                =                    12
(PID.TID 0000.0001) %MON time_secondsf                =   1.4400000000000E+04
(PID.TID 0000.0001) %MON dynstat_eta_max              =   4.9913932647560E-03
(PID.TID 0000.0001) %MON dynstat_eta_min              =  -9.6553702619458E-03
(PID.TID 0000.0001) %MON dynstat_eta_mean             =  -1.9868214925130E-18
(PID.TID 0000.0001) %MON dynstat_eta_sd               =   6.8286861364159E-03
(PID.TID 0000.0001) %MON dynstat_eta_del2             =   4.8276851309729E-03
(PID.TID 0000.0001) %MON dynstat_uvel_max             =   3.5982890489039E-01
(PID.TID 0000.0001) %MON dynstat_uvel_min             =  -9.2736036158745E-02
(PID.TID 0000.0001) %MON dynstat_uvel_mean            =   4.3105096058622E-03
(PID.TID 0000.0001) %MON dynstat_uvel_sd              =   4.9660734765056E-02
(PID.TID 0000.0001) %MON dynstat_uvel_del2            =   1.5549158427217E-02
(PID.TID 0000.0001) %MON dynstat_vvel_max             =   1.6252609863115E-02
(PID.TID 0000.0001) %MON dynstat_vvel_min             =  -2.5704729386977E-01
(PID.TID 0000.0001) %MON dynstat_vvel_mean            =  -6.9385345508610E-03
(PID.TID 0000.0001) %MON dynstat_vvel_sd              =   3.8578125273019E-02
(PID.TID 0000.0001) %MON dynstat_vvel_del2            =   7.9223460580189E-03
(PID.TID 0000.0001) %MON dynstat_wvel_max             =   4.5573226608173E-03
(PID.TID 0000.0001) %MON dynstat_wvel_min             =  -4.3982716954768E-03
(PID.TID 0000.0001) %MON dynstat_wvel_mean            =   8.2759353785943E-20
(PID.TID 0000.0001) %MON dynstat_wvel_sd              =   2.3186469027916E-03
(PID.TID 0000.0001) %MON dynstat_wvel_del2            =   1.2250490716285E-03
(PID.TID 0000.0001) %MON dynstat_theta_max            =   2.9347529331601E+00
(PID.TID 0000.0001) %MON dynstat_theta_min            =   4.5566500771660E-01
(PID.TID 0000.0001) %MON dynstat_theta_mean           =   1.6699685618158E+00
(PID.TID 0000.0001) %MON dynstat_theta_sd             =   7.2526261857885E-01
(PID.TID 0000.0001) %MON dynstat_theta_del2           =   2.5707984087217E-02
(PID.TID 0000.0001) %MON dynstat_salt_max             =   3.5000000000000E+01
(PID.TID 0000.0001) %MON dynstat_salt_min             =   3.5000000000000E+01
(PID.TID 0000.0001) %MON dynstat_salt_mean            =   3.5000000000000E+01
(PID.TID 0000.0001) %MON dynstat_salt_sd              =   4.9125179707072E-14
(PID.TID 0000.0001) %MON dynstat_salt_del2            =   0.0000000000000E+00
(PID.TID 0000.0001) %MON dynstat_sst_max              =   2.9347529331601E+00
(PID.TID 0000.0001) %MON dynstat_sst_min              =   1.8824837446582E+00
(PID.TID 0000.0001) %MON dynstat_sst_mean             =   2.5839965369928E+00
(PID.TID 0000.0001) %MON dynstat_sst_sd               =   4.9604445254887E-01
(PID.TID 0000.0001) %MON dynstat_sst_del2             =   3.5075639616727E-01
(PID.TID 0000.0001) %MON dynstat_sss_max              =   3.5000000000000E+01
(PID.TID 0000.0001) %MON dynstat_sss_min              =   3.5000000000000E+01
(PID.TID 0000.0001) %MON dynstat_sss_mean             =   3.5000000000000E+01
(PID.TID 0000.0001) %MON dynstat_sss_sd               =   0.0000000000000E+00
(PID.TID 0000.0001) %MON dynstat_sss_del2             =   0.0000000000000E+00
(PID.TID 0000.0001) %MON extforcing_qnet_max          =   2.0000000000000E+02
(PID.TID 0000.0001) %MON extforcing_qnet_min          =   0.0000000000000E+00
(PID.TID 0000.0001) %MON extforcing_qnet_mean         =   6.6666666666667E+01
(PID.TID 0000.0001) %MON extforcing_qnet_sd           =   9.4280904158206E+01
(PID.TID 0000.0001) %MON extforcing_qnet_del2         =   6.6666666666667E+01
(PID.TID 0000.0001) %MON extforcing_qsw_max           =   0.0000000000000E+00
(PID.TID 0000.0001) %MON extforcing_qsw_min           =   0.0000000000000E+00
(PID.TID 0000.0001) %MON extforcing_qsw_mean          =   0.0000000000000E+00
(PID.TID 0000.0001) %MON extforcing_qsw_sd            =   0.0000000000000E+00
(PID.TID 0000.0001) %MON extforcing_qsw_del2          =   0.0000000000000E+00
(PID.TID 0000.0001) %MON extforcing_empmr_max         =   0.0000000000000E+00
(PID.TID 0000.0001) %MON extforcing_empmr_min         =   0.0000000000000E+00
(PID.TID 0000.0001) %MON extforcing_empmr_mean        =   0.0000000000000E+00
(PID.TID 0000.0001) %MON extforcing_empmr_sd          =   0.0000000000000E+00
(PID.TID 0000.0001) %MON extforcing_empmr_del2        =   0.0000000000000E+00
(PID.TID 0000.0001) %MON extforcing_fu_max            =   1.0000000000000E+00
(PID.TID 0000.0001) %MON extforcing_fu_min            =   0.0000000000000E+00
(PID.TID 0000.0001) %MON extforcing_fu_mean           =   6.6666666666667E-01
(PID.TID 0000.0001) %MON extforcing_fu_sd             =   4.7140452079103E-01
(PID.TID 0000.0001) %MON extforcing_fu_del2           =   3.3333333333333E-01
(PID.TID 0000.0001) %MON extforcing_fv_max            =   0.0000000000000E+00
(PID.TID 0000.0001) %MON extforcing_fv_min            =   0.0000000000000E+00
(PID.TID 0000.0001) %MON extforcing_fv_mean           =   0.0000000000000E+00
(PID.TID 0000.0001) %MON extforcing_fv_sd             =   0.0000000000000E+00
(PID.TID 0000.0001) %MON extforcing_fv_del2           =   0.0000000000000E+00
(PID.TID 0000.0001) %MON advcfl_uvel_max              =   8.6358937173693E-02
(PID.TID 0000.0001) %MON advcfl_vvel_max              =   6.1691350528745E-02
(PID.TID 0000.0001) %MON advcfl_wvel_max              =   1.0937574385962E-01
(PID.TID 0000.0001) %MON advcfl_W_hf_max              =   2.1723146531125E-01
(PID.TID 0000.0001) %MON pe_b_mean                    =   2.2872483108517E-07
(PID.TID 0000.0001) %MON ke_max                       =   6.5406227069578E-02
(PID.TID 0000.0001) %MON ke_mean                      =   2.0105920408809E-03
(PID.TID 0000.0001) %MON ke_vol                       =   7.5000000000000E+10
(PID.TID 0000.0001) %MON vort_r_min                   =  -3.0222019107457E-05
(PID.TID 0000.0001) %MON vort_r_max                   =   5.1375584181926E-05
(PID.TID 0000.0001) %MON vort_a_mean                  =   1.4000000000000E-04
(PID.TID 0000.0001) %MON vort_a_sd                    =   8.5494091747931E-06
(PID.TID 0000.0001) %MON vort_p_mean                  =   1.4000000000000E-04
(PID.TID 0000.0001) %MON vort_p_sd                    =   8.5494091747931E-06
(PID.TID 0000.0001) %MON surfExpan_theta_mean         =  -5.6449333683360E-09
(PID.TID 0000.0001) %MON surfExpan_salt_mean          =   6.3245408910007E-18
(PID.TID 0000.0001) // =======================================================
(PID.TID 0000.0001) // End MONITOR dynamic field statistics
(PID.TID 0000.0001) // =======================================================
 cg2d: Sum(rhs),rhsMax =   3.33066907387547E-16  2.83660915103850E-01
(PID.TID 0000.0001)                    cg2d_init_res =    4.35255413069828E-03
(PID.TID 0000.0001)                       cg2d_iters =     1
(PID.TID 0000.0001)                         cg2d_res =    6.37248992494353E-17
(PID.TID 0000.0001) // =======================================================
(PID.TID 0000.0001) // Begin MONITOR dynamic field statistics
(PID.TID 0000.0001) // =======================================================
(PID.TID 0000.0001) %MON time_tsnumber                =                    13
(PID.TID 0000.0001) %MON time_secondsf                =   1.5600000000000E+04
(PID.TID 0000.0001) %MON dynstat_eta_max              =   4.9578138432707E-03
(PID.TID 0000.0001) %MON dynstat_eta_min              =  -9.6328127343410E-03
(PID.TID 0000.0001) %MON dynstat_eta_mean             =  -2.4835268656413E-18
(PID.TID 0000.0001) %MON dynstat_eta_sd               =   6.8124056913574E-03
(PID.TID 0000.0001) %MON dynstat_eta_del2             =   4.8164063671705E-03
(PID.TID 0000.0001) %MON dynstat_uvel_max             =   3.6761756535314E-01
(PID.TID 0000.0001) %MON dynstat_uvel_min             =  -1.1033527293856E-01
(PID.TID 0000.0001) %MON dynstat_uvel_mean            =   3.8798084207151E-03
(PID.TID 0000.0001) %MON dynstat_uvel_sd              =   5.1657321538152E-02
(PID.TID 0000.0001) %MON dynstat_uvel_del2            =   1.6699719197102E-02
(PID.TID 0000.0001) %MON dynstat_vvel_max             =   2.0884414660704E-02
(PID.TID 0000.0001) %MON dynstat_vvel_min             =  -2.9260224397371E-01
(PID.TID 0000.0001) %MON dynstat_vvel_mean            =  -7.6364457294217E-03
(PID.TID 0000.0001) %MON dynstat_vvel_sd              =   4.3358922376526E-02
(PID.TID 0000.0001) %MON dynstat_vvel_del2            =   9.2813535512126E-03
(PID.TID 0000.0001) %MON dynstat_wvel_max             =   4.7877638936539E-03
(PID.TID 0000.0001) %MON dynstat_wvel_min             =  -4.7642992315977E-03
(PID.TID 0000.0001) %MON dynstat_wvel_mean            =  -3.7188227805826E-21
(PID.TID 0000.0001) %MON dynstat_wvel_sd              =   2.4727480258582E-03
(PID.TID 0000.0001) %MON dynstat_wvel_del2            =   1.3097715919476E-03
(PID.TID 0000.0001) %MON dynstat_theta_max            =   2.9347523068994E+00
(PID.TID 0000.0001) %MON dynstat_theta_min            =   4.5566563397721E-01
(PID.TID 0000.0001) %MON dynstat_theta_mean           =   1.6699485277639E+00
(PID.TID 0000.0001) %MON dynstat_theta_sd             =   7.2486483394429E-01
(PID.TID 0000.0001) %MON dynstat_theta_del2           =   2.5746540539412E-02
(PID.TID 0000.0001) %MON dynstat_salt_max             =   3.5000000000000E+01
(PID.TID 0000.0001) %MON dynstat_salt_min             =   3.5000000000000E+01
(PID.TID 0000.0001) %MON dynstat_salt_mean            =   3.5000000000000E+01
(PID.TID 0000.0001) %MON dynstat_salt_sd              =   5.5970746169885E-14
(PID.TID 0000.0001) %MON dynstat_salt_del2            =   0.0000000000000E+00
(PID.TID 0000.0001) %MON dynstat_sst_max              =   2.9347523068994E+00
(PID.TID 0000.0001) %MON dynstat_sst_min              =   1.9086721916871E+00
(PID.TID 0000.0001) %MON dynstat_sst_mean             =   2.5927256018287E+00
(PID.TID 0000.0001) %MON dynstat_sst_sd               =   4.8369880500486E-01
(PID.TID 0000.0001) %MON dynstat_sst_del2             =   3.4202670507077E-01
(PID.TID 0000.0001) %MON dynstat_sss_max              =   3.5000000000000E+01
(PID.TID 0000.0001) %MON dynstat_sss_min              =   3.5000000000000E+01
(PID.TID 0000.0001) %MON dynstat_sss_mean             =   3.5000000000000E+01
(PID.TID 0000.0001) %MON dynstat_sss_sd               =   0.0000000000000E+00
(PID.TID 0000.0001) %MON dynstat_sss_del2             =   0.0000000000000E+00
(PID.TID 0000.0001) %MON extforcing_qnet_max          =   2.0000000000000E+02
(PID.TID 0000.0001) %MON extforcing_qnet_min          =   0.0000000000000E+00
(PID.TID 0000.0001) %MON extforcing_qnet_mean         =   6.6666666666667E+01
(PID.TID 0000.0001) %MON extforcing_qnet_sd           =   9.4280904158206E+01
(PID.TID 0000.0001) %MON extforcing_qnet_del2         =   6.6666666666667E+01
(PID.TID 0000.0001) %MON extforcing_qsw_max           =   0.0000000000000E+00
(PID.TID 0000.0001) %MON extforcing_qsw_min           =   0.0000000000000E+00
(PID.TID 0000.0001) %MON extforcing_qsw_mean          =   0.0000000000000E+00
(PID.TID 0000.0001) %MON extforcing_qsw_sd            =   0.0000000000000E+00
(PID.TID 0000.0001) %MON extforcing_qsw_del2          =   0.0000000000000E+00
(PID.TID 0000.0001) %MON extforcing_empmr_max         =   0.0000000000000E+00
(PID.TID 0000.0001) %MON extforcing_empmr_min         =   0.0000000000000E+00
(PID.TID 0000.0001) %MON extforcing_empmr_mean        =   0.0000000000000E+00
(PID.TID 0000.0001) %MON extforcing_empmr_sd          =   0.0000000000000E+00
(PID.TID 0000.0001) %MON extforcing_empmr_del2        =   0.0000000000000E+00
(PID.TID 0000.0001) %MON extforcing_fu_max            =   1.0000000000000E+00
(PID.TID 0000.0001) %MON extforcing_fu_min            =   0.0000000000000E+00
(PID.TID 0000.0001) %MON extforcing_fu_mean           =   6.6666666666667E-01
(PID.TID 0000.0001) %MON extforcing_fu_sd             =   4.7140452079103E-01
(PID.TID 0000.0001) %MON extforcing_fu_del2           =   3.3333333333333E-01
(PID.TID 0000.0001) %MON extforcing_fv_max            =   0.0000000000000E+00
(PID.TID 0000.0001) %MON extforcing_fv_min            =   0.0000000000000E+00
(PID.TID 0000.0001) %MON extforcing_fv_mean           =   0.0000000000000E+00
(PID.TID 0000.0001) %MON extforcing_fv_sd             =   0.0000000000000E+00
(PID.TID 0000.0001) %MON extforcing_fv_del2           =   0.0000000000000E+00
(PID.TID 0000.0001) %MON advcfl_uvel_max              =   8.8228215684755E-02
(PID.TID 0000.0001) %MON advcfl_vvel_max              =   7.0224538553691E-02
(PID.TID 0000.0001) %MON advcfl_wvel_max              =   1.1490633344769E-01
(PID.TID 0000.0001) %MON advcfl_W_hf_max              =   2.2941780325577E-01
(PID.TID 0000.0001) %MON pe_b_mean                    =   2.2763551374435E-07
(PID.TID 0000.0001) %MON ke_max                       =   7.6640055779255E-02
(PID.TID 0000.0001) %MON ke_mean                      =   2.3109216174547E-03
(PID.TID 0000.0001) %MON ke_vol                       =   7.5000000000000E+10
(PID.TID 0000.0001) %MON vort_r_min                   =  -3.3497051038215E-05
(PID.TID 0000.0001) %MON vort_r_max                   =   5.9934186129022E-05
(PID.TID 0000.0001) %MON vort_a_mean                  =   1.4000000000000E-04
(PID.TID 0000.0001) %MON vort_a_sd                    =   9.9971472408481E-06
(PID.TID 0000.0001) %MON vort_p_mean                  =   1.4000000000000E-04
(PID.TID 0000.0001) %MON vort_p_sd                    =   9.9971472408481E-06
(PID.TID 0000.0001) %MON surfExpan_theta_mean         =  -6.4293973669226E-09
(PID.TID 0000.0001) %MON surfExpan_salt_mean          =   5.0596327128005E-18
(PID.TID 0000.0001) // =======================================================
(PID.TID 0000.0001) // End MONITOR dynamic field statistics
(PID.TID 0000.0001) // =======================================================
 cg2d: Sum(rhs),rhsMax =  -4.44089209850063E-16  2.82838998324662E-01
(PID.TID 0000.0001)                    cg2d_init_res =    5.38010254587275E-03
(PID.TID 0000.0001)                       cg2d_iters =     1
(PID.TID 0000.0001)                         cg2d_res =    2.23719752386171E-16
(PID.TID 0000.0001) // =======================================================
(PID.TID 0000.0001) // Begin MONITOR dynamic field statistics
(PID.TID 0000.0001) // =======================================================
(PID.TID 0000.0001) %MON time_tsnumber                =                    14
(PID.TID 0000.0001) %MON time_secondsf                =   1.6800000000000E+04
(PID.TID 0000.0001) %MON dynstat_eta_max              =   4.9164558336529E-03
(PID.TID 0000.0001) %MON dynstat_eta_min              =  -9.6049013443836E-03
(PID.TID 0000.0001) %MON dynstat_eta_mean             =  -4.9670537312826E-19
(PID.TID 0000.0001) %MON dynstat_eta_sd               =   6.7923287392640E-03
(PID.TID 0000.0001) %MON dynstat_eta_del2             =   4.8024506721918E-03
(PID.TID 0000.0001) %MON dynstat_uvel_max             =   3.7214947645081E-01
(PID.TID 0000.0001) %MON dynstat_uvel_min             =  -1.2754872587839E-01
(PID.TID 0000.0001) %MON dynstat_uvel_mean            =   3.3372457311471E-03
(PID.TID 0000.0001) %MON dynstat_uvel_sd              =   5.3453483141390E-02
(PID.TID 0000.0001) %MON dynstat_uvel_del2            =   1.7834647337528E-02
(PID.TID 0000.0001) %MON dynstat_vvel_max             =   2.5658016222946E-02
(PID.TID 0000.0001) %MON dynstat_vvel_min             =  -3.2734878532679E-01
(PID.TID 0000.0001) %MON dynstat_vvel_mean            =  -8.2513477904399E-03
(PID.TID 0000.0001) %MON dynstat_vvel_sd              =   4.8011706993856E-02
(PID.TID 0000.0001) %MON dynstat_vvel_del2            =   1.0728426256593E-02
(PID.TID 0000.0001) %MON dynstat_wvel_max             =   4.9969932288083E-03
(PID.TID 0000.0001) %MON dynstat_wvel_min             =  -5.1379162555370E-03
(PID.TID 0000.0001) %MON dynstat_wvel_mean            =   1.5546917979024E-19
(PID.TID 0000.0001) %MON dynstat_wvel_sd              =   2.6186513133707E-03
(PID.TID 0000.0001) %MON dynstat_wvel_del2            =   1.4046097560410E-03
(PID.TID 0000.0001) %MON dynstat_theta_max            =   2.9347516806418E+00
(PID.TID 0000.0001) %MON dynstat_theta_min            =   4.5566626023482E-01
(PID.TID 0000.0001) %MON dynstat_theta_mean           =   1.6699284937120E+00
(PID.TID 0000.0001) %MON dynstat_theta_sd             =   7.2450692258961E-01
(PID.TID 0000.0001) %MON dynstat_theta_del2           =   2.5766504752419E-02
(PID.TID 0000.0001) %MON dynstat_salt_max             =   3.5000000000000E+01
(PID.TID 0000.0001) %MON dynstat_salt_min             =   3.5000000000000E+01
(PID.TID 0000.0001) %MON dynstat_salt_mean            =   3.5000000000000E+01
(PID.TID 0000.0001) %MON dynstat_salt_sd              =   5.6218256204524E-14
(PID.TID 0000.0001) %MON dynstat_salt_del2            =   0.0000000000000E+00
(PID.TID 0000.0001) %MON dynstat_sst_max              =   2.9347516806418E+00
(PID.TID 0000.0001) %MON dynstat_sst_min              =   1.9334772258763E+00
(PID.TID 0000.0001) %MON dynstat_sst_mean             =   2.6009935290533E+00
(PID.TID 0000.0001) %MON dynstat_sst_sd               =   4.7200530452906E-01
(PID.TID 0000.0001) %MON dynstat_sst_del2             =   3.3375815158852E-01
(PID.TID 0000.0001) %MON dynstat_sss_max              =   3.5000000000000E+01
(PID.TID 0000.0001) %MON dynstat_sss_min              =   3.5000000000000E+01
(PID.TID 0000.0001) %MON dynstat_sss_mean             =   3.5000000000000E+01
(PID.TID 0000.0001) %MON dynstat_sss_sd               =   0.0000000000000E+00
(PID.TID 0000.0001) %MON dynstat_sss_del2             =   0.0000000000000E+00
(PID.TID 0000.0001) %MON extforcing_qnet_max          =   2.0000000000000E+02
(PID.TID 0000.0001) %MON extforcing_qnet_min          =   0.0000000000000E+00
(PID.TID 0000.0001) %MON extforcing_qnet_mean         =   6.6666666666667E+01
(PID.TID 0000.0001) %MON extforcing_qnet_sd           =   9.4280904158206E+01
(PID.TID 0000.0001) %MON extforcing_qnet_del2         =   6.6666666666667E+01
(PID.TID 0000.0001) %MON extforcing_qsw_max           =   0.0000000000000E+00
(PID.TID 0000.0001) %MON extforcing_qsw_min           =   0.0000000000000E+00
(PID.TID 0000.0001) %MON extforcing_qsw_mean          =   0.0000000000000E+00
(PID.TID 0000.0001) %MON extforcing_qsw_sd            =   0.0000000000000E+00
(PID.TID 0000.0001) %MON extforcing_qsw_del2          =   0.0000000000000E+00
(PID.TID 0000.0001) %MON extforcing_empmr_max         =   0.0000000000000E+00
(PID.TID 0000.0001) %MON extforcing_empmr_min         =   0.0000000000000E+00
(PID.TID 0000.0001) %MON extforcing_empmr_mean        =   0.0000000000000E+00
(PID.TID 0000.0001) %MON extforcing_empmr_sd          =   0.0000000000000E+00
(PID.TID 0000.0001) %MON extforcing_empmr_del2        =   0.0000000000000E+00
(PID.TID 0000.0001) %MON extforcing_fu_max            =   1.0000000000000E+00
(PID.TID 0000.0001) %MON extforcing_fu_min            =   0.0000000000000E+00
(PID.TID 0000.0001) %MON extforcing_fu_mean           =   6.6666666666667E-01
(PID.TID 0000.0001) %MON extforcing_fu_sd             =   4.7140452079103E-01
(PID.TID 0000.0001) %MON extforcing_fu_del2           =   3.3333333333333E-01
(PID.TID 0000.0001) %MON extforcing_fv_max            =   0.0000000000000E+00
(PID.TID 0000.0001) %MON extforcing_fv_min            =   0.0000000000000E+00
(PID.TID 0000.0001) %MON extforcing_fv_mean           =   0.0000000000000E+00
(PID.TID 0000.0001) %MON extforcing_fv_sd             =   0.0000000000000E+00
(PID.TID 0000.0001) %MON extforcing_fv_del2           =   0.0000000000000E+00
(PID.TID 0000.0001) %MON advcfl_uvel_max              =   8.9315874348194E-02
(PID.TID 0000.0001) %MON advcfl_vvel_max              =   7.8563708478430E-02
(PID.TID 0000.0001) %MON advcfl_wvel_max              =   1.2330999013289E-01
(PID.TID 0000.0001) %MON advcfl_W_hf_max              =   2.3985567498280E-01
(PID.TID 0000.0001) %MON pe_b_mean                    =   2.2629575418944E-07
(PID.TID 0000.0001) %MON ke_max                       =   8.8405055589284E-02
(PID.TID 0000.0001) %MON ke_mean                      =   2.6208104089198E-03
(PID.TID 0000.0001) %MON ke_vol                       =   7.5000000000000E+10
(PID.TID 0000.0001) %MON vort_r_min                   =  -3.6708463891294E-05
(PID.TID 0000.0001) %MON vort_r_max                   =   6.8867791524216E-05
(PID.TID 0000.0001) %MON vort_a_mean                  =   1.4000000000000E-04
(PID.TID 0000.0001) %MON vort_a_sd                    =   1.1532538017309E-05
(PID.TID 0000.0001) %MON vort_p_mean                  =   1.4000000000000E-04
(PID.TID 0000.0001) %MON vort_p_sd                    =   1.1532538017309E-05
(PID.TID 0000.0001) %MON surfExpan_theta_mean         =  -7.7630449315476E-09
(PID.TID 0000.0001) %MON surfExpan_salt_mean          =   1.2649034412486E-17
(PID.TID 0000.0001) // =======================================================
(PID.TID 0000.0001) // End MONITOR dynamic field statistics
(PID.TID 0000.0001) // =======================================================
 cg2d: Sum(rhs),rhsMax =   0.00000000000000E+00  2.81873373755972E-01
(PID.TID 0000.0001)                    cg2d_init_res =    6.32436797165413E-03
(PID.TID 0000.0001)                       cg2d_iters =     1
(PID.TID 0000.0001)                         cg2d_res =    4.84869951806108E-19
(PID.TID 0000.0001) // =======================================================
(PID.TID 0000.0001) // Begin MONITOR dynamic field statistics
(PID.TID 0000.0001) // =======================================================
(PID.TID 0000.0001) %MON time_tsnumber                =                    15
(PID.TID 0000.0001) %MON time_secondsf                =   1.8000000000000E+04
(PID.TID 0000.0001) %MON dynstat_eta_max              =   4.8680298718447E-03
(PID.TID 0000.0001) %MON dynstat_eta_min              =  -9.5721097959306E-03
(PID.TID 0000.0001) %MON dynstat_eta_mean             =  -2.4835268656413E-19
(PID.TID 0000.0001) %MON dynstat_eta_sd               =   6.7688346784044E-03
(PID.TID 0000.0001) %MON dynstat_eta_del2             =   4.7860548979653E-03
(PID.TID 0000.0001) %MON dynstat_uvel_max             =   3.7384372667251E-01
(PID.TID 0000.0001) %MON dynstat_uvel_min             =  -1.4366948771225E-01
(PID.TID 0000.0001) %MON dynstat_uvel_mean            =   2.6984909221482E-03
(PID.TID 0000.0001) %MON dynstat_uvel_sd              =   5.5115385554543E-02
(PID.TID 0000.0001) %MON dynstat_uvel_del2            =   1.8934054754607E-02
(PID.TID 0000.0001) %MON dynstat_vvel_max             =   3.0275955192143E-02
(PID.TID 0000.0001) %MON dynstat_vvel_min             =  -3.6045867749408E-01
(PID.TID 0000.0001) %MON dynstat_vvel_mean            =  -8.7655137257884E-03
(PID.TID 0000.0001) %MON dynstat_vvel_sd              =   5.2486665424032E-02
(PID.TID 0000.0001) %MON dynstat_vvel_del2            =   1.2281840775560E-02
(PID.TID 0000.0001) %MON dynstat_wvel_max             =   5.1751451725253E-03
(PID.TID 0000.0001) %MON dynstat_wvel_min             =  -5.5216198515365E-03
(PID.TID 0000.0001) %MON dynstat_wvel_mean            =  -1.1114180724845E-19
(PID.TID 0000.0001) %MON dynstat_wvel_sd              =   2.7580357028066E-03
(PID.TID 0000.0001) %MON dynstat_wvel_del2            =   1.5050324911518E-03
(PID.TID 0000.0001) %MON dynstat_theta_max            =   2.9347510543872E+00
(PID.TID 0000.0001) %MON dynstat_theta_min            =   4.5566688648943E-01
(PID.TID 0000.0001) %MON dynstat_theta_mean           =   1.6699084596602E+00
(PID.TID 0000.0001) %MON dynstat_theta_sd             =   7.2425908966047E-01
(PID.TID 0000.0001) %MON dynstat_theta_del2           =   2.5778364766218E-02
(PID.TID 0000.0001) %MON dynstat_salt_max             =   3.5000000000000E+01
(PID.TID 0000.0001) %MON dynstat_salt_min             =   3.5000000000000E+01
(PID.TID 0000.0001) %MON dynstat_salt_mean            =   3.5000000000000E+01
(PID.TID 0000.0001) %MON dynstat_salt_sd              =   3.0354398977712E-14
(PID.TID 0000.0001) %MON dynstat_salt_del2            =   0.0000000000000E+00
(PID.TID 0000.0001) %MON dynstat_sst_max              =   2.9347510543872E+00
(PID.TID 0000.0001) %MON dynstat_sst_min              =   1.9508796743666E+00
(PID.TID 0000.0001) %MON dynstat_sst_mean             =   2.6067939277137E+00
(PID.TID 0000.0001) %MON dynstat_sst_sd               =   4.6380141641865E-01
(PID.TID 0000.0001) %MON dynstat_sst_del2             =   3.2795712667356E-01
(PID.TID 0000.0001) %MON dynstat_sss_max              =   3.5000000000000E+01
(PID.TID 0000.0001) %MON dynstat_sss_min              =   3.5000000000000E+01
(PID.TID 0000.0001) %MON dynstat_sss_mean             =   3.5000000000000E+01
(PID.TID 0000.0001) %MON dynstat_sss_sd               =   0.0000000000000E+00
(PID.TID 0000.0001) %MON dynstat_sss_del2             =   0.0000000000000E+00
(PID.TID 0000.0001) %MON extforcing_qnet_max          =   2.0000000000000E+02
(PID.TID 0000.0001) %MON extforcing_qnet_min          =   0.0000000000000E+00
(PID.TID 0000.0001) %MON extforcing_qnet_mean         =   6.6666666666667E+01
(PID.TID 0000.0001) %MON extforcing_qnet_sd           =   9.4280904158206E+01
(PID.TID 0000.0001) %MON extforcing_qnet_del2         =   6.6666666666667E+01
(PID.TID 0000.0001) %MON extforcing_qsw_max           =   0.0000000000000E+00
(PID.TID 0000.0001) %MON extforcing_qsw_min           =   0.0000000000000E+00
(PID.TID 0000.0001) %MON extforcing_qsw_mean          =   0.0000000000000E+00
(PID.TID 0000.0001) %MON extforcing_qsw_sd            =   0.0000000000000E+00
(PID.TID 0000.0001) %MON extforcing_qsw_del2          =   0.0000000000000E+00
(PID.TID 0000.0001) %MON extforcing_empmr_max         =   0.0000000000000E+00
(PID.TID 0000.0001) %MON extforcing_empmr_min         =   0.0000000000000E+00
(PID.TID 0000.0001) %MON extforcing_empmr_mean        =   0.0000000000000E+00
(PID.TID 0000.0001) %MON extforcing_empmr_sd          =   0.0000000000000E+00
(PID.TID 0000.0001) %MON extforcing_empmr_del2        =   0.0000000000000E+00
(PID.TID 0000.0001) %MON extforcing_fu_max            =   1.0000000000000E+00
(PID.TID 0000.0001) %MON extforcing_fu_min            =   0.0000000000000E+00
(PID.TID 0000.0001) %MON extforcing_fu_mean           =   6.6666666666667E-01
(PID.TID 0000.0001) %MON extforcing_fu_sd             =   4.7140452079103E-01
(PID.TID 0000.0001) %MON extforcing_fu_del2           =   3.3333333333333E-01
(PID.TID 0000.0001) %MON extforcing_fv_max            =   0.0000000000000E+00
(PID.TID 0000.0001) %MON extforcing_fv_min            =   0.0000000000000E+00
(PID.TID 0000.0001) %MON extforcing_fv_mean           =   0.0000000000000E+00
(PID.TID 0000.0001) %MON extforcing_fv_sd             =   0.0000000000000E+00
(PID.TID 0000.0001) %MON extforcing_fv_del2           =   0.0000000000000E+00
(PID.TID 0000.0001) %MON advcfl_uvel_max              =   8.9722494401402E-02
(PID.TID 0000.0001) %MON advcfl_vvel_max              =   8.6510082598580E-02
(PID.TID 0000.0001) %MON advcfl_wvel_max              =   1.3251887643688E-01
(PID.TID 0000.0001) %MON advcfl_W_hf_max              =   2.4840696828122E-01
(PID.TID 0000.0001) %MON pe_b_mean                    =   2.2473298784201E-07
(PID.TID 0000.0001) %MON ke_max                       =   1.0042459801153E-01
(PID.TID 0000.0001) %MON ke_mean                      =   2.9383359281471E-03
(PID.TID 0000.0001) %MON ke_vol                       =   7.5000000000000E+10
(PID.TID 0000.0001) %MON vort_r_min                   =  -3.9932921293752E-05
(PID.TID 0000.0001) %MON vort_r_max                   =   7.8087242352162E-05
(PID.TID 0000.0001) %MON vort_a_mean                  =   1.4000000000000E-04
(PID.TID 0000.0001) %MON vort_a_sd                    =   1.3142214455658E-05
(PID.TID 0000.0001) %MON vort_p_mean                  =   1.4000000000000E-04
(PID.TID 0000.0001) %MON vort_p_sd                    =   1.3142214455658E-05
(PID.TID 0000.0001) %MON surfExpan_theta_mean         =  -8.9618516762421E-09
(PID.TID 0000.0001) %MON surfExpan_salt_mean          =  -7.5893543301693E-18
(PID.TID 0000.0001) // =======================================================
(PID.TID 0000.0001) // End MONITOR dynamic field statistics
(PID.TID 0000.0001) // =======================================================
 cg2d: Sum(rhs),rhsMax =  -3.33066907387547E-16  2.80949601913785E-01
(PID.TID 0000.0001)                    cg2d_init_res =    6.68699299197429E-03
(PID.TID 0000.0001)                       cg2d_iters =     1
(PID.TID 0000.0001)                         cg2d_res =    1.92296268638356E-16
(PID.TID 0000.0001) // =======================================================
(PID.TID 0000.0001) // Begin MONITOR dynamic field statistics
(PID.TID 0000.0001) // =======================================================
(PID.TID 0000.0001) %MON time_tsnumber                =                    16
(PID.TID 0000.0001) %MON time_secondsf                =   1.9200000000000E+04
(PID.TID 0000.0001) %MON dynstat_eta_max              =   4.8163297855625E-03
(PID.TID 0000.0001) %MON dynstat_eta_min              =  -9.5407395200440E-03
(PID.TID 0000.0001) %MON dynstat_eta_mean             =   1.7384688059489E-18
(PID.TID 0000.0001) %MON dynstat_eta_sd               =   6.7464259805196E-03
(PID.TID 0000.0001) %MON dynstat_eta_del2             =   4.7703697600220E-03
(PID.TID 0000.0001) %MON dynstat_uvel_max             =   3.7306979022870E-01
(PID.TID 0000.0001) %MON dynstat_uvel_min             =  -1.5798674573571E-01
(PID.TID 0000.0001) %MON dynstat_uvel_mean            =   1.9819866134908E-03
(PID.TID 0000.0001) %MON dynstat_uvel_sd              =   5.6683245611883E-02
(PID.TID 0000.0001) %MON dynstat_uvel_del2            =   1.9980335148909E-02
(PID.TID 0000.0001) %MON dynstat_vvel_max             =   4.6376961151802E-02
(PID.TID 0000.0001) %MON dynstat_vvel_min             =  -3.9113845799559E-01
(PID.TID 0000.0001) %MON dynstat_vvel_mean            =  -9.1641257943689E-03
(PID.TID 0000.0001) %MON dynstat_vvel_sd              =   5.6750563857927E-02
(PID.TID 0000.0001) %MON dynstat_vvel_del2            =   1.3971174730539E-02
(PID.TID 0000.0001) %MON dynstat_wvel_max             =   5.3105823011528E-03
(PID.TID 0000.0001) %MON dynstat_wvel_min             =  -5.9105246803012E-03
(PID.TID 0000.0001) %MON dynstat_wvel_mean            =   5.9401664214256E-20
(PID.TID 0000.0001) %MON dynstat_wvel_sd              =   2.8907709499158E-03
(PID.TID 0000.0001) %MON dynstat_wvel_del2            =   1.6067241174274E-03
(PID.TID 0000.0001) %MON dynstat_theta_max            =   2.9347504281356E+00
(PID.TID 0000.0001) %MON dynstat_theta_min            =   4.5566751274102E-01
(PID.TID 0000.0001) %MON dynstat_theta_mean           =   1.6698884256083E+00
(PID.TID 0000.0001) %MON dynstat_theta_sd             =   7.2402348772395E-01
(PID.TID 0000.0001) %MON dynstat_theta_del2           =   2.5782245275077E-02
(PID.TID 0000.0001) %MON dynstat_salt_max             =   3.5000000000000E+01
(PID.TID 0000.0001) %MON dynstat_salt_min             =   3.5000000000000E+01
(PID.TID 0000.0001) %MON dynstat_salt_mean            =   3.5000000000000E+01
(PID.TID 0000.0001) %MON dynstat_salt_sd              =   2.7883710445094E-14
(PID.TID 0000.0001) %MON dynstat_salt_del2            =   0.0000000000000E+00
(PID.TID 0000.0001) %MON dynstat_sst_max              =   2.9347504281356E+00
(PID.TID 0000.0001) %MON dynstat_sst_min              =   1.9676358188289E+00
(PID.TID 0000.0001) %MON dynstat_sst_mean             =   2.6123788917001E+00
(PID.TID 0000.0001) %MON dynstat_sst_sd               =   4.5590219895026E-01
(PID.TID 0000.0001) %MON dynstat_sst_del2             =   3.2237153643559E-01
(PID.TID 0000.0001) %MON dynstat_sss_max              =   3.5000000000000E+01
(PID.TID 0000.0001) %MON dynstat_sss_min              =   3.5000000000000E+01
(PID.TID 0000.0001) %MON dynstat_sss_mean             =   3.5000000000000E+01
(PID.TID 0000.0001) %MON dynstat_sss_sd               =   0.0000000000000E+00
(PID.TID 0000.0001) %MON dynstat_sss_del2             =   0.0000000000000E+00
(PID.TID 0000.0001) %MON extforcing_qnet_max          =   2.0000000000000E+02
(PID.TID 0000.0001) %MON extforcing_qnet_min          =   0.0000000000000E+00
(PID.TID 0000.0001) %MON extforcing_qnet_mean         =   6.6666666666667E+01
(PID.TID 0000.0001) %MON extforcing_qnet_sd           =   9.4280904158206E+01
(PID.TID 0000.0001) %MON extforcing_qnet_del2         =   6.6666666666667E+01
(PID.TID 0000.0001) %MON extforcing_qsw_max           =   0.0000000000000E+00
(PID.TID 0000.0001) %MON extforcing_qsw_min           =   0.0000000000000E+00
(PID.TID 0000.0001) %MON extforcing_qsw_mean          =   0.0000000000000E+00
(PID.TID 0000.0001) %MON extforcing_qsw_sd            =   0.0000000000000E+00
(PID.TID 0000.0001) %MON extforcing_qsw_del2          =   0.0000000000000E+00
(PID.TID 0000.0001) %MON extforcing_empmr_max         =   0.0000000000000E+00
(PID.TID 0000.0001) %MON extforcing_empmr_min         =   0.0000000000000E+00
(PID.TID 0000.0001) %MON extforcing_empmr_mean        =   0.0000000000000E+00
(PID.TID 0000.0001) %MON extforcing_empmr_sd          =   0.0000000000000E+00
(PID.TID 0000.0001) %MON extforcing_empmr_del2        =   0.0000000000000E+00
(PID.TID 0000.0001) %MON extforcing_fu_max            =   1.0000000000000E+00
(PID.TID 0000.0001) %MON extforcing_fu_min            =   0.0000000000000E+00
(PID.TID 0000.0001) %MON extforcing_fu_mean           =   6.6666666666667E-01
(PID.TID 0000.0001) %MON extforcing_fu_sd             =   4.7140452079103E-01
(PID.TID 0000.0001) %MON extforcing_fu_del2           =   3.3333333333333E-01
(PID.TID 0000.0001) %MON extforcing_fv_max            =   0.0000000000000E+00
(PID.TID 0000.0001) %MON extforcing_fv_min            =   0.0000000000000E+00
(PID.TID 0000.0001) %MON extforcing_fv_mean           =   0.0000000000000E+00
(PID.TID 0000.0001) %MON extforcing_fv_sd             =   0.0000000000000E+00
(PID.TID 0000.0001) %MON extforcing_fv_del2           =   0.0000000000000E+00
(PID.TID 0000.0001) %MON advcfl_uvel_max              =   8.9536749654889E-02
(PID.TID 0000.0001) %MON advcfl_vvel_max              =   9.3873229918941E-02
(PID.TID 0000.0001) %MON advcfl_wvel_max              =   1.4185259232723E-01
(PID.TID 0000.0001) %MON advcfl_W_hf_max              =   2.5490795045533E-01
(PID.TID 0000.0001) %MON pe_b_mean                    =   2.2324746251964E-07
(PID.TID 0000.0001) %MON ke_max                       =   1.1233215073434E-01
(PID.TID 0000.0001) %MON ke_mean                      =   3.2607631519004E-03
(PID.TID 0000.0001) %MON ke_vol                       =   7.5000000000000E+10
(PID.TID 0000.0001) %MON vort_r_min                   =  -4.4222673284109E-05
(PID.TID 0000.0001) %MON vort_r_max                   =   8.7503083829478E-05
(PID.TID 0000.0001) %MON vort_a_mean                  =   1.4000000000000E-04
(PID.TID 0000.0001) %MON vort_a_sd                    =   1.4809851102272E-05
(PID.TID 0000.0001) %MON vort_p_mean                  =   1.4000000000000E-04
(PID.TID 0000.0001) %MON vort_p_sd                    =   1.4809851102272E-05
(PID.TID 0000.0001) %MON surfExpan_theta_mean         =  -8.4274033631311E-09
(PID.TID 0000.0001) %MON surfExpan_salt_mean          =   1.2648608086844E-18
(PID.TID 0000.0001) // =======================================================
(PID.TID 0000.0001) // End MONITOR dynamic field statistics
(PID.TID 0000.0001) // =======================================================
 cg2d: Sum(rhs),rhsMax =  -4.44089209850063E-16  2.79919060937117E-01
(PID.TID 0000.0001)                    cg2d_init_res =    7.37130070215760E-03
(PID.TID 0000.0001)                       cg2d_iters =     1
(PID.TID 0000.0001)                         cg2d_res =    1.92046209319819E-16
(PID.TID 0000.0001) // =======================================================
(PID.TID 0000.0001) // Begin MONITOR dynamic field statistics
(PID.TID 0000.0001) // =======================================================
(PID.TID 0000.0001) %MON time_tsnumber                =                    17
(PID.TID 0000.0001) %MON time_secondsf                =   2.0400000000000E+04
(PID.TID 0000.0001) %MON dynstat_eta_max              =   4.7596356064161E-03
(PID.TID 0000.0001) %MON dynstat_eta_min              =  -9.5057434817647E-03
(PID.TID 0000.0001) %MON dynstat_eta_mean             =   3.2285849253337E-18
(PID.TID 0000.0001) %MON dynstat_eta_sd               =   6.7215779449824E-03
(PID.TID 0000.0001) %MON dynstat_eta_del2             =   4.7528717408824E-03
(PID.TID 0000.0001) %MON dynstat_uvel_max             =   3.7033786858825E-01
(PID.TID 0000.0001) %MON dynstat_uvel_min             =  -1.6981441925126E-01
(PID.TID 0000.0001) %MON dynstat_uvel_mean            =   1.2084159647817E-03
(PID.TID 0000.0001) %MON dynstat_uvel_sd              =   5.8214133813040E-02
(PID.TID 0000.0001) %MON dynstat_uvel_del2            =   2.0975227216069E-02
(PID.TID 0000.0001) %MON dynstat_vvel_max             =   6.6442605933889E-02
(PID.TID 0000.0001) %MON dynstat_vvel_min             =  -4.1866203524465E-01
(PID.TID 0000.0001) %MON dynstat_vvel_mean            =  -9.4357031499267E-03
(PID.TID 0000.0001) %MON dynstat_vvel_sd              =   6.0786335827905E-02
(PID.TID 0000.0001) %MON dynstat_vvel_del2            =   1.5817463060357E-02
(PID.TID 0000.0001) %MON dynstat_wvel_max             =   5.4015409601792E-03
(PID.TID 0000.0001) %MON dynstat_wvel_min             =  -6.3068278433269E-03
(PID.TID 0000.0001) %MON dynstat_wvel_mean            =   2.0516956718559E-19
(PID.TID 0000.0001) %MON dynstat_wvel_sd              =   3.0201392485392E-03
(PID.TID 0000.0001) %MON dynstat_wvel_del2            =   1.7099345592949E-03
(PID.TID 0000.0001) %MON dynstat_theta_max            =   2.9347498018870E+00
(PID.TID 0000.0001) %MON dynstat_theta_min            =   4.5566813898962E-01
(PID.TID 0000.0001) %MON dynstat_theta_mean           =   1.6698683915564E+00
(PID.TID 0000.0001) %MON dynstat_theta_sd             =   7.2380370302378E-01
(PID.TID 0000.0001) %MON dynstat_theta_del2           =   2.5779229580927E-02
(PID.TID 0000.0001) %MON dynstat_salt_max             =   3.5000000000000E+01
(PID.TID 0000.0001) %MON dynstat_salt_min             =   3.5000000000000E+01
(PID.TID 0000.0001) %MON dynstat_salt_mean            =   3.5000000000000E+01
(PID.TID 0000.0001) %MON dynstat_salt_sd              =   2.7009971587330E-14
(PID.TID 0000.0001) %MON dynstat_salt_del2            =   0.0000000000000E+00
(PID.TID 0000.0001) %MON dynstat_sst_max              =   2.9347498018870E+00
(PID.TID 0000.0001) %MON dynstat_sst_min              =   1.9837842126431E+00
(PID.TID 0000.0001) %MON dynstat_sst_mean             =   2.6177612721391E+00
(PID.TID 0000.0001) %MON dynstat_sst_sd               =   4.4828947788629E-01
(PID.TID 0000.0001) %MON dynstat_sst_del2             =   3.1698852974797E-01
(PID.TID 0000.0001) %MON dynstat_sss_max              =   3.5000000000000E+01
(PID.TID 0000.0001) %MON dynstat_sss_min              =   3.5000000000000E+01
(PID.TID 0000.0001) %MON dynstat_sss_mean             =   3.5000000000000E+01
(PID.TID 0000.0001) %MON dynstat_sss_sd               =   0.0000000000000E+00
(PID.TID 0000.0001) %MON dynstat_sss_del2             =   0.0000000000000E+00
(PID.TID 0000.0001) %MON extforcing_qnet_max          =   2.0000000000000E+02
(PID.TID 0000.0001) %MON extforcing_qnet_min          =   0.0000000000000E+00
(PID.TID 0000.0001) %MON extforcing_qnet_mean         =   6.6666666666667E+01
(PID.TID 0000.0001) %MON extforcing_qnet_sd           =   9.4280904158206E+01
(PID.TID 0000.0001) %MON extforcing_qnet_del2         =   6.6666666666667E+01
(PID.TID 0000.0001) %MON extforcing_qsw_max           =   0.0000000000000E+00
(PID.TID 0000.0001) %MON extforcing_qsw_min           =   0.0000000000000E+00
(PID.TID 0000.0001) %MON extforcing_qsw_mean          =   0.0000000000000E+00
(PID.TID 0000.0001) %MON extforcing_qsw_sd            =   0.0000000000000E+00
(PID.TID 0000.0001) %MON extforcing_qsw_del2          =   0.0000000000000E+00
(PID.TID 0000.0001) %MON extforcing_empmr_max         =   0.0000000000000E+00
(PID.TID 0000.0001) %MON extforcing_empmr_min         =   0.0000000000000E+00
(PID.TID 0000.0001) %MON extforcing_empmr_mean        =   0.0000000000000E+00
(PID.TID 0000.0001) %MON extforcing_empmr_sd          =   0.0000000000000E+00
(PID.TID 0000.0001) %MON extforcing_empmr_del2        =   0.0000000000000E+00
(PID.TID 0000.0001) %MON extforcing_fu_max            =   1.0000000000000E+00
(PID.TID 0000.0001) %MON extforcing_fu_min            =   0.0000000000000E+00
(PID.TID 0000.0001) %MON extforcing_fu_mean           =   6.6666666666667E-01
(PID.TID 0000.0001) %MON extforcing_fu_sd             =   4.7140452079103E-01
(PID.TID 0000.0001) %MON extforcing_fu_del2           =   3.3333333333333E-01
(PID.TID 0000.0001) %MON extforcing_fv_max            =   0.0000000000000E+00
(PID.TID 0000.0001) %MON extforcing_fv_min            =   0.0000000000000E+00
(PID.TID 0000.0001) %MON extforcing_fv_mean           =   0.0000000000000E+00
(PID.TID 0000.0001) %MON extforcing_fv_sd             =   0.0000000000000E+00
(PID.TID 0000.0001) %MON extforcing_fv_del2           =   0.0000000000000E+00
(PID.TID 0000.0001) %MON advcfl_uvel_max              =   8.8881088461181E-02
(PID.TID 0000.0001) %MON advcfl_vvel_max              =   1.0047888845871E-01
(PID.TID 0000.0001) %MON advcfl_wvel_max              =   1.5136386823984E-01
(PID.TID 0000.0001) %MON advcfl_W_hf_max              =   2.5927396608860E-01
(PID.TID 0000.0001) %MON pe_b_mean                    =   2.2160598739568E-07
(PID.TID 0000.0001) %MON ke_max                       =   1.2373254009844E-01
(PID.TID 0000.0001) %MON ke_mean                      =   3.5871783810314E-03
(PID.TID 0000.0001) %MON ke_vol                       =   7.5000000000000E+10
(PID.TID 0000.0001) %MON vort_r_min                   =  -5.0142049435994E-05
(PID.TID 0000.0001) %MON vort_r_max                   =   9.7020928235707E-05
(PID.TID 0000.0001) %MON vort_a_mean                  =   1.4000000000000E-04
(PID.TID 0000.0001) %MON vort_a_sd                    =   1.6515861144083E-05
(PID.TID 0000.0001) %MON vort_p_mean                  =   1.4000000000000E-04
(PID.TID 0000.0001) %MON vort_p_sd                    =   1.6515861144083E-05
(PID.TID 0000.0001) %MON surfExpan_theta_mean         =  -9.2444522656807E-09
(PID.TID 0000.0001) %MON surfExpan_salt_mean          =   2.1503296920855E-17
(PID.TID 0000.0001) // =======================================================
(PID.TID 0000.0001) // End MONITOR dynamic field statistics
(PID.TID 0000.0001) // =======================================================
 cg2d: Sum(rhs),rhsMax =  -1.11022302462516E-16  2.78854117895278E-01
(PID.TID 0000.0001)                    cg2d_init_res =    7.74901883273094E-03
(PID.TID 0000.0001)                       cg2d_iters =     1
(PID.TID 0000.0001)                         cg2d_res =    1.28698771089403E-16
(PID.TID 0000.0001) // =======================================================
(PID.TID 0000.0001) // Begin MONITOR dynamic field statistics
(PID.TID 0000.0001) // =======================================================
(PID.TID 0000.0001) %MON time_tsnumber                =                    18
(PID.TID 0000.0001) %MON time_secondsf                =   2.1600000000000E+04
(PID.TID 0000.0001) %MON dynstat_eta_max              =   4.7693949943404E-03
(PID.TID 0000.0001) %MON dynstat_eta_min              =  -9.4695791871843E-03
(PID.TID 0000.0001) %MON dynstat_eta_mean             =   4.2219956715902E-18
(PID.TID 0000.0001) %MON dynstat_eta_sd               =   6.6960632723278E-03
(PID.TID 0000.0001) %MON dynstat_eta_del2             =   4.7347895935922E-03
(PID.TID 0000.0001) %MON dynstat_uvel_max             =   3.6610821870407E-01
(PID.TID 0000.0001) %MON dynstat_uvel_min             =  -1.7852924941790E-01
(PID.TID 0000.0001) %MON dynstat_uvel_mean            =   4.0010399311238E-04
(PID.TID 0000.0001) %MON dynstat_uvel_sd              =   5.9742827817153E-02
(PID.TID 0000.0001) %MON dynstat_uvel_del2            =   2.1911519961128E-02
(PID.TID 0000.0001) %MON dynstat_vvel_max             =   9.0329315970188E-02
(PID.TID 0000.0001) %MON dynstat_vvel_min             =  -4.4240176326851E-01
(PID.TID 0000.0001) %MON dynstat_vvel_mean            =  -9.5724296442343E-03
(PID.TID 0000.0001) %MON dynstat_vvel_sd              =   6.4593899393494E-02
(PID.TID 0000.0001) %MON dynstat_vvel_del2            =   1.7698771500071E-02
(PID.TID 0000.0001) %MON dynstat_wvel_max             =   5.4463940871522E-03
(PID.TID 0000.0001) %MON dynstat_wvel_min             =  -6.7082957102796E-03
(PID.TID 0000.0001) %MON dynstat_wvel_mean            =   1.1940033007891E-19
(PID.TID 0000.0001) %MON dynstat_wvel_sd              =   3.1489038772011E-03
(PID.TID 0000.0001) %MON dynstat_wvel_del2            =   1.8142468460434E-03
(PID.TID 0000.0001) %MON dynstat_theta_max            =   2.9347491756415E+00
(PID.TID 0000.0001) %MON dynstat_theta_min            =   4.5566876523520E-01
(PID.TID 0000.0001) %MON dynstat_theta_mean           =   1.6698483575045E+00
(PID.TID 0000.0001) %MON dynstat_theta_sd             =   7.2359373703505E-01
(PID.TID 0000.0001) %MON dynstat_theta_del2           =   2.5850880555378E-02
(PID.TID 0000.0001) %MON dynstat_salt_max             =   3.5000000000000E+01
(PID.TID 0000.0001) %MON dynstat_salt_min             =   3.5000000000000E+01
(PID.TID 0000.0001) %MON dynstat_salt_mean            =   3.5000000000000E+01
(PID.TID 0000.0001) %MON dynstat_salt_sd              =   2.8598793445409E-14
(PID.TID 0000.0001) %MON dynstat_salt_del2            =   0.0000000000000E+00
(PID.TID 0000.0001) %MON dynstat_sst_max              =   2.9347491756415E+00
(PID.TID 0000.0001) %MON dynstat_sst_min              =   1.9992748767374E+00
(PID.TID 0000.0001) %MON dynstat_sst_mean             =   2.6229244093401E+00
(PID.TID 0000.0001) %MON dynstat_sst_sd               =   4.4098681358721E-01
(PID.TID 0000.0001) %MON dynstat_sst_del2             =   3.1182476630136E-01
(PID.TID 0000.0001) %MON dynstat_sss_max              =   3.5000000000000E+01
(PID.TID 0000.0001) %MON dynstat_sss_min              =   3.5000000000000E+01
(PID.TID 0000.0001) %MON dynstat_sss_mean             =   3.5000000000000E+01
(PID.TID 0000.0001) %MON dynstat_sss_sd               =   0.0000000000000E+00
(PID.TID 0000.0001) %MON dynstat_sss_del2             =   0.0000000000000E+00
(PID.TID 0000.0001) %MON extforcing_qnet_max          =   2.0000000000000E+02
(PID.TID 0000.0001) %MON extforcing_qnet_min          =   0.0000000000000E+00
(PID.TID 0000.0001) %MON extforcing_qnet_mean         =   6.6666666666667E+01
(PID.TID 0000.0001) %MON extforcing_qnet_sd           =   9.4280904158206E+01
(PID.TID 0000.0001) %MON extforcing_qnet_del2         =   6.6666666666667E+01
(PID.TID 0000.0001) %MON extforcing_qsw_max           =   0.0000000000000E+00
(PID.TID 0000.0001) %MON extforcing_qsw_min           =   0.0000000000000E+00
(PID.TID 0000.0001) %MON extforcing_qsw_mean          =   0.0000000000000E+00
(PID.TID 0000.0001) %MON extforcing_qsw_sd            =   0.0000000000000E+00
(PID.TID 0000.0001) %MON extforcing_qsw_del2          =   0.0000000000000E+00
(PID.TID 0000.0001) %MON extforcing_empmr_max         =   0.0000000000000E+00
(PID.TID 0000.0001) %MON extforcing_empmr_min         =   0.0000000000000E+00
(PID.TID 0000.0001) %MON extforcing_empmr_mean        =   0.0000000000000E+00
(PID.TID 0000.0001) %MON extforcing_empmr_sd          =   0.0000000000000E+00
(PID.TID 0000.0001) %MON extforcing_empmr_del2        =   0.0000000000000E+00
(PID.TID 0000.0001) %MON extforcing_fu_max            =   1.0000000000000E+00
(PID.TID 0000.0001) %MON extforcing_fu_min            =   0.0000000000000E+00
(PID.TID 0000.0001) %MON extforcing_fu_mean           =   6.6666666666667E-01
(PID.TID 0000.0001) %MON extforcing_fu_sd             =   4.7140452079103E-01
(PID.TID 0000.0001) %MON extforcing_fu_del2           =   3.3333333333333E-01
(PID.TID 0000.0001) %MON extforcing_fv_max            =   0.0000000000000E+00
(PID.TID 0000.0001) %MON extforcing_fv_min            =   0.0000000000000E+00
(PID.TID 0000.0001) %MON extforcing_fv_mean           =   0.0000000000000E+00
(PID.TID 0000.0001) %MON extforcing_fv_sd             =   0.0000000000000E+00
(PID.TID 0000.0001) %MON extforcing_fv_del2           =   0.0000000000000E+00
(PID.TID 0000.0001) %MON advcfl_uvel_max              =   8.7865972488977E-02
(PID.TID 0000.0001) %MON advcfl_vvel_max              =   1.0617642318444E-01
(PID.TID 0000.0001) %MON advcfl_wvel_max              =   1.6099909704671E-01
(PID.TID 0000.0001) %MON advcfl_W_hf_max              =   2.6142691618331E-01
(PID.TID 0000.0001) %MON pe_b_mean                    =   2.1992677671712E-07
(PID.TID 0000.0001) %MON ke_max                       =   1.3419237993591E-01
(PID.TID 0000.0001) %MON ke_mean                      =   3.9166844034730E-03
(PID.TID 0000.0001) %MON ke_vol                       =   7.5000000000000E+10
(PID.TID 0000.0001) %MON vort_r_min                   =  -5.5678242348221E-05
(PID.TID 0000.0001) %MON vort_r_max                   =   1.0654621584774E-04
(PID.TID 0000.0001) %MON vort_a_mean                  =   1.4000000000000E-04
(PID.TID 0000.0001) %MON vort_a_sd                    =   1.8239562351784E-05
(PID.TID 0000.0001) %MON vort_p_mean                  =   1.4000000000000E-04
(PID.TID 0000.0001) %MON vort_p_sd                    =   1.8239562351784E-05
(PID.TID 0000.0001) %MON surfExpan_theta_mean         =  -9.3974355872729E-09
(PID.TID 0000.0001) %MON surfExpan_salt_mean          =   1.3913942590686E-17
(PID.TID 0000.0001) // =======================================================
(PID.TID 0000.0001) // End MONITOR dynamic field statistics
(PID.TID 0000.0001) // =======================================================
 cg2d: Sum(rhs),rhsMax =  -2.77555756156289E-16  2.77863820924419E-01
(PID.TID 0000.0001)                    cg2d_init_res =    7.71249837891787E-03
(PID.TID 0000.0001)                       cg2d_iters =     1
(PID.TID 0000.0001)                         cg2d_res =    1.59248890621530E-16
(PID.TID 0000.0001) // =======================================================
(PID.TID 0000.0001) // Begin MONITOR dynamic field statistics
(PID.TID 0000.0001) // =======================================================
(PID.TID 0000.0001) %MON time_tsnumber                =                    19
(PID.TID 0000.0001) %MON time_secondsf                =   2.2800000000000E+04
(PID.TID 0000.0001) %MON dynstat_eta_max              =   4.7950052856607E-03
(PID.TID 0000.0001) %MON dynstat_eta_min              =  -9.4359497910859E-03
(PID.TID 0000.0001) %MON dynstat_eta_mean             =   5.9604644775391E-18
(PID.TID 0000.0001) %MON dynstat_eta_sd               =   6.6725205145643E-03
(PID.TID 0000.0001) %MON dynstat_eta_del2             =   4.7179748955429E-03
(PID.TID 0000.0001) %MON dynstat_uvel_max             =   3.6081190780511E-01
(PID.TID 0000.0001) %MON dynstat_uvel_min             =  -1.8359862161702E-01
(PID.TID 0000.0001) %MON dynstat_uvel_mean            =  -4.1962424876272E-04
(PID.TID 0000.0001) %MON dynstat_uvel_sd              =   6.1287939884134E-02
(PID.TID 0000.0001) %MON dynstat_uvel_del2            =   2.2778831562233E-02
(PID.TID 0000.0001) %MON dynstat_vvel_max             =   1.1803712847091E-01
(PID.TID 0000.0001) %MON dynstat_vvel_min             =  -4.6185967510879E-01
(PID.TID 0000.0001) %MON dynstat_vvel_mean            =  -9.5703822706845E-03
(PID.TID 0000.0001) %MON dynstat_vvel_sd              =   6.8187323072176E-02
(PID.TID 0000.0001) %MON dynstat_vvel_del2            =   1.9585685515033E-02
(PID.TID 0000.0001) %MON dynstat_wvel_max             =   5.4441266361308E-03
(PID.TID 0000.0001) %MON dynstat_wvel_min             =  -7.1105354829450E-03
(PID.TID 0000.0001) %MON dynstat_wvel_mean            =   6.1292169440506E-20
(PID.TID 0000.0001) %MON dynstat_wvel_sd              =   3.2791162510773E-03
(PID.TID 0000.0001) %MON dynstat_wvel_del2            =   1.9183317400967E-03
(PID.TID 0000.0001) %MON dynstat_theta_max            =   2.9347485493989E+00
(PID.TID 0000.0001) %MON dynstat_theta_min            =   4.5566939147778E-01
(PID.TID 0000.0001) %MON dynstat_theta_mean           =   1.6698283234527E+00
(PID.TID 0000.0001) %MON dynstat_theta_sd             =   7.2339876263730E-01
(PID.TID 0000.0001) %MON dynstat_theta_del2           =   2.5972654831781E-02
(PID.TID 0000.0001) %MON dynstat_salt_max             =   3.5000000000000E+01
(PID.TID 0000.0001) %MON dynstat_salt_min             =   3.5000000000000E+01
(PID.TID 0000.0001) %MON dynstat_salt_mean            =   3.5000000000000E+01
(PID.TID 0000.0001) %MON dynstat_salt_sd              =   2.9425392598410E-14
(PID.TID 0000.0001) %MON dynstat_salt_del2            =   0.0000000000000E+00
(PID.TID 0000.0001) %MON dynstat_sst_max              =   2.9347485493989E+00
(PID.TID 0000.0001) %MON dynstat_sst_min              =   2.0141063693209E+00
(PID.TID 0000.0001) %MON dynstat_sst_mean             =   2.6278678227062E+00
(PID.TID 0000.0001) %MON dynstat_sst_sd               =   4.3399488571969E-01
(PID.TID 0000.0001) %MON dynstat_sst_del2             =   3.0688072669267E-01
(PID.TID 0000.0001) %MON dynstat_sss_max              =   3.5000000000000E+01
(PID.TID 0000.0001) %MON dynstat_sss_min              =   3.5000000000000E+01
(PID.TID 0000.0001) %MON dynstat_sss_mean             =   3.5000000000000E+01
(PID.TID 0000.0001) %MON dynstat_sss_sd               =   0.0000000000000E+00
(PID.TID 0000.0001) %MON dynstat_sss_del2             =   0.0000000000000E+00
(PID.TID 0000.0001) %MON extforcing_qnet_max          =   2.0000000000000E+02
(PID.TID 0000.0001) %MON extforcing_qnet_min          =   0.0000000000000E+00
(PID.TID 0000.0001) %MON extforcing_qnet_mean         =   6.6666666666667E+01
(PID.TID 0000.0001) %MON extforcing_qnet_sd           =   9.4280904158206E+01
(PID.TID 0000.0001) %MON extforcing_qnet_del2         =   6.6666666666667E+01
(PID.TID 0000.0001) %MON extforcing_qsw_max           =   0.0000000000000E+00
(PID.TID 0000.0001) %MON extforcing_qsw_min           =   0.0000000000000E+00
(PID.TID 0000.0001) %MON extforcing_qsw_mean          =   0.0000000000000E+00
(PID.TID 0000.0001) %MON extforcing_qsw_sd            =   0.0000000000000E+00
(PID.TID 0000.0001) %MON extforcing_qsw_del2          =   0.0000000000000E+00
(PID.TID 0000.0001) %MON extforcing_empmr_max         =   0.0000000000000E+00
(PID.TID 0000.0001) %MON extforcing_empmr_min         =   0.0000000000000E+00
(PID.TID 0000.0001) %MON extforcing_empmr_mean        =   0.0000000000000E+00
(PID.TID 0000.0001) %MON extforcing_empmr_sd          =   0.0000000000000E+00
(PID.TID 0000.0001) %MON extforcing_empmr_del2        =   0.0000000000000E+00
(PID.TID 0000.0001) %MON extforcing_fu_max            =   1.0000000000000E+00
(PID.TID 0000.0001) %MON extforcing_fu_min            =   0.0000000000000E+00
(PID.TID 0000.0001) %MON extforcing_fu_mean           =   6.6666666666667E-01
(PID.TID 0000.0001) %MON extforcing_fu_sd             =   4.7140452079103E-01
(PID.TID 0000.0001) %MON extforcing_fu_del2           =   3.3333333333333E-01
(PID.TID 0000.0001) %MON extforcing_fv_max            =   0.0000000000000E+00
(PID.TID 0000.0001) %MON extforcing_fv_min            =   0.0000000000000E+00
(PID.TID 0000.0001) %MON extforcing_fv_mean           =   0.0000000000000E+00
(PID.TID 0000.0001) %MON extforcing_fv_sd             =   0.0000000000000E+00
(PID.TID 0000.0001) %MON extforcing_fv_del2           =   0.0000000000000E+00
(PID.TID 0000.0001) %MON advcfl_uvel_max              =   8.6594857873226E-02
(PID.TID 0000.0001) %MON advcfl_vvel_max              =   1.1084632202611E-01
(PID.TID 0000.0001) %MON advcfl_wvel_max              =   1.7065285159068E-01
(PID.TID 0000.0001) %MON advcfl_W_hf_max              =   2.6131807853428E-01
(PID.TID 0000.0001) %MON pe_b_mean                    =   2.1838300973476E-07
(PID.TID 0000.0001) %MON ke_max                       =   1.4328144370878E-01
(PID.TID 0000.0001) %MON ke_mean                      =   4.2487454521539E-03
(PID.TID 0000.0001) %MON ke_vol                       =   7.5000000000000E+10
(PID.TID 0000.0001) %MON vort_r_min                   =  -6.0601044352566E-05
(PID.TID 0000.0001) %MON vort_r_max                   =   1.1597936071594E-04
(PID.TID 0000.0001) %MON vort_a_mean                  =   1.4000000000000E-04
(PID.TID 0000.0001) %MON vort_a_sd                    =   1.9959541632335E-05
(PID.TID 0000.0001) %MON vort_p_mean                  =   1.4000000000000E-04
(PID.TID 0000.0001) %MON vort_p_sd                    =   1.9959541632335E-05
(PID.TID 0000.0001) %MON surfExpan_theta_mean         =  -8.6001779269672E-09
(PID.TID 0000.0001) %MON surfExpan_salt_mean          =  -5.0595379737691E-18
(PID.TID 0000.0001) // =======================================================
(PID.TID 0000.0001) // End MONITOR dynamic field statistics
(PID.TID 0000.0001) // =======================================================
 cg2d: Sum(rhs),rhsMax =  -2.22044604925031E-16  2.76940680807727E-01
(PID.TID 0000.0001)                    cg2d_init_res =    7.54860068356451E-03
(PID.TID 0000.0001)                       cg2d_iters =     1
(PID.TID 0000.0001)                         cg2d_res =    1.59752398142514E-16
(PID.TID 0000.0001) // =======================================================
(PID.TID 0000.0001) // Begin MONITOR dynamic field statistics
(PID.TID 0000.0001) // =======================================================
(PID.TID 0000.0001) %MON time_tsnumber                =                    20
(PID.TID 0000.0001) %MON time_secondsf                =   2.4000000000000E+04
(PID.TID 0000.0001) %MON dynstat_eta_max              =   4.8215545698709E-03
(PID.TID 0000.0001) %MON dynstat_eta_min              =  -9.4046009679024E-03
(PID.TID 0000.0001) %MON dynstat_eta_mean             =   7.4505805969238E-18
(PID.TID 0000.0001) %MON dynstat_eta_sd               =   6.6507699334293E-03
(PID.TID 0000.0001) %MON dynstat_eta_del2             =   4.7023004839512E-03
(PID.TID 0000.0001) %MON dynstat_uvel_max             =   3.5482847515939E-01
(PID.TID 0000.0001) %MON dynstat_uvel_min             =  -1.8461257855905E-01
(PID.TID 0000.0001) %MON dynstat_uvel_mean            =  -1.2271183047083E-03
(PID.TID 0000.0001) %MON dynstat_uvel_sd              =   6.2850840171330E-02
(PID.TID 0000.0001) %MON dynstat_uvel_del2            =   2.3563683170698E-02
(PID.TID 0000.0001) %MON dynstat_vvel_max             =   1.4938602928431E-01
(PID.TID 0000.0001) %MON dynstat_vvel_min             =  -4.7669854699485E-01
(PID.TID 0000.0001) %MON dynstat_vvel_mean            =  -9.4296423440577E-03
(PID.TID 0000.0001) %MON dynstat_vvel_sd              =   7.1591596558839E-02
(PID.TID 0000.0001) %MON dynstat_vvel_del2            =   2.1446504739309E-02
(PID.TID 0000.0001) %MON dynstat_wvel_max             =   5.3944326615878E-03
(PID.TID 0000.0001) %MON dynstat_wvel_min             =  -7.5069535511886E-03
(PID.TID 0000.0001) %MON dynstat_wvel_mean            =   7.8804217852079E-20
(PID.TID 0000.0001) %MON dynstat_wvel_sd              =   3.4127042178691E-03
(PID.TID 0000.0001) %MON dynstat_wvel_del2            =   2.0207282860902E-03
(PID.TID 0000.0001) %MON dynstat_theta_max            =   2.9347479231593E+00
(PID.TID 0000.0001) %MON dynstat_theta_min            =   4.5567001771736E-01
(PID.TID 0000.0001) %MON dynstat_theta_mean           =   1.6698082894008E+00
(PID.TID 0000.0001) %MON dynstat_theta_sd             =   7.2321729011593E-01
(PID.TID 0000.0001) %MON dynstat_theta_del2           =   2.6089206999473E-02
(PID.TID 0000.0001) %MON dynstat_salt_max             =   3.5000000000000E+01
(PID.TID 0000.0001) %MON dynstat_salt_min             =   3.5000000000000E+01
(PID.TID 0000.0001) %MON dynstat_salt_mean            =   3.5000000000000E+01
(PID.TID 0000.0001) %MON dynstat_salt_sd              =   3.1776437161565E-14
(PID.TID 0000.0001) %MON dynstat_salt_del2            =   0.0000000000000E+00
(PID.TID 0000.0001) %MON dynstat_sst_max              =   2.9347479231593E+00
(PID.TID 0000.0001) %MON dynstat_sst_min              =   2.0283266982546E+00
(PID.TID 0000.0001) %MON dynstat_sst_mean             =   2.6326075148577E+00
(PID.TID 0000.0001) %MON dynstat_sst_sd               =   4.2729106316101E-01
(PID.TID 0000.0001) %MON dynstat_sst_del2             =   3.0214040830156E-01
(PID.TID 0000.0001) %MON dynstat_sss_max              =   3.5000000000000E+01
(PID.TID 0000.0001) %MON dynstat_sss_min              =   3.5000000000000E+01
(PID.TID 0000.0001) %MON dynstat_sss_mean             =   3.5000000000000E+01
(PID.TID 0000.0001) %MON dynstat_sss_sd               =   7.1054273576010E-15
(PID.TID 0000.0001) %MON dynstat_sss_del2             =   0.0000000000000E+00
(PID.TID 0000.0001) %MON extforcing_qnet_max          =   2.0000000000000E+02
(PID.TID 0000.0001) %MON extforcing_qnet_min          =   0.0000000000000E+00
(PID.TID 0000.0001) %MON extforcing_qnet_mean         =   6.6666666666667E+01
(PID.TID 0000.0001) %MON extforcing_qnet_sd           =   9.4280904158206E+01
(PID.TID 0000.0001) %MON extforcing_qnet_del2         =   6.6666666666667E+01
(PID.TID 0000.0001) %MON extforcing_qsw_max           =   0.0000000000000E+00
(PID.TID 0000.0001) %MON extforcing_qsw_min           =   0.0000000000000E+00
(PID.TID 0000.0001) %MON extforcing_qsw_mean          =   0.0000000000000E+00
(PID.TID 0000.0001) %MON extforcing_qsw_sd            =   0.0000000000000E+00
(PID.TID 0000.0001) %MON extforcing_qsw_del2          =   0.0000000000000E+00
(PID.TID 0000.0001) %MON extforcing_empmr_max         =   0.0000000000000E+00
(PID.TID 0000.0001) %MON extforcing_empmr_min         =   0.0000000000000E+00
(PID.TID 0000.0001) %MON extforcing_empmr_mean        =   0.0000000000000E+00
(PID.TID 0000.0001) %MON extforcing_empmr_sd          =   0.0000000000000E+00
(PID.TID 0000.0001) %MON extforcing_empmr_del2        =   0.0000000000000E+00
(PID.TID 0000.0001) %MON extforcing_fu_max            =   1.0000000000000E+00
(PID.TID 0000.0001) %MON extforcing_fu_min            =   0.0000000000000E+00
(PID.TID 0000.0001) %MON extforcing_fu_mean           =   6.6666666666667E-01
(PID.TID 0000.0001) %MON extforcing_fu_sd             =   4.7140452079103E-01
(PID.TID 0000.0001) %MON extforcing_fu_del2           =   3.3333333333333E-01
(PID.TID 0000.0001) %MON extforcing_fv_max            =   0.0000000000000E+00
(PID.TID 0000.0001) %MON extforcing_fv_min            =   0.0000000000000E+00
(PID.TID 0000.0001) %MON extforcing_fv_mean           =   0.0000000000000E+00
(PID.TID 0000.0001) %MON extforcing_fv_sd             =   0.0000000000000E+00
(PID.TID 0000.0001) %MON extforcing_fv_del2           =   0.0000000000000E+00
(PID.TID 0000.0001) %MON advcfl_uvel_max              =   8.5158834038253E-02
(PID.TID 0000.0001) %MON advcfl_vvel_max              =   1.1440765127876E-01
(PID.TID 0000.0001) %MON advcfl_wvel_max              =   1.8016688522853E-01
(PID.TID 0000.0001) %MON advcfl_W_hf_max              =   2.5893276775622E-01
(PID.TID 0000.0001) %MON pe_b_mean                    =   2.1696159316983E-07
(PID.TID 0000.0001) %MON ke_max                       =   1.5061000926992E-01
(PID.TID 0000.0001) %MON ke_mean                      =   4.5830043910781E-03
(PID.TID 0000.0001) %MON ke_vol                       =   7.5000000000000E+10
(PID.TID 0000.0001) %MON vort_r_min                   =  -6.4701175268206E-05
(PID.TID 0000.0001) %MON vort_r_max                   =   1.2521691525583E-04
(PID.TID 0000.0001) %MON vort_a_mean                  =   1.4000000000000E-04
(PID.TID 0000.0001) %MON vort_a_sd                    =   2.1654998022084E-05
(PID.TID 0000.0001) %MON vort_p_mean                  =   1.4000000000000E-04
(PID.TID 0000.0001) %MON vort_p_sd                    =   2.1654998022084E-05
(PID.TID 0000.0001) %MON surfExpan_theta_mean         =  -7.8931218646724E-09
(PID.TID 0000.0001) %MON surfExpan_salt_mean          =  -9.4867876517431E-18
(PID.TID 0000.0001) // =======================================================
(PID.TID 0000.0001) // End MONITOR dynamic field statistics
(PID.TID 0000.0001) // =======================================================
(PID.TID 0000.0001) %CHECKPOINT        20 ckptA
(PID.TID 0000.0001)   Seconds in section "ALL                    [THE_MODEL_MAIN]":
(PID.TID 0000.0001)           User time:  0.237963997
(PID.TID 0000.0001)         System time:  0.0169980003
(PID.TID 0000.0001)     Wall clock time:  0.312685013
(PID.TID 0000.0001)          No. starts: 1
(PID.TID 0000.0001)           No. stops: 1
(PID.TID 0000.0001)   Seconds in section "INITIALISE_FIXED       [THE_MODEL_MAIN]":
(PID.TID 0000.0001)           User time:  0.034995001
(PID.TID 0000.0001)         System time:  0.00499900011
(PID.TID 0000.0001)     Wall clock time:  0.0673320293
(PID.TID 0000.0001)          No. starts: 1
(PID.TID 0000.0001)           No. stops: 1
(PID.TID 0000.0001)   Seconds in section "THE_MAIN_LOOP          [THE_MODEL_MAIN]":
(PID.TID 0000.0001)           User time:  0.199969005
(PID.TID 0000.0001)         System time:  0.009999
(PID.TID 0000.0001)     Wall clock time:  0.229213953
(PID.TID 0000.0001)          No. starts: 1
(PID.TID 0000.0001)           No. stops: 1
(PID.TID 0000.0001)   Seconds in section "INITIALISE_VARIA    [THE_MAIN_LOOP]":
(PID.TID 0000.0001)           User time:  0.00399899855
(PID.TID 0000.0001)         System time:  0.
(PID.TID 0000.0001)     Wall clock time:  0.00396895409
(PID.TID 0000.0001)          No. starts: 1
(PID.TID 0000.0001)           No. stops: 1
(PID.TID 0000.0001)   Seconds in section "MAIN LOOP           [THE_MAIN_LOOP]":
(PID.TID 0000.0001)           User time:  0.189971007
(PID.TID 0000.0001)         System time:  0.00799900014
(PID.TID 0000.0001)     Wall clock time:  0.205188036
(PID.TID 0000.0001)          No. starts: 1
(PID.TID 0000.0001)           No. stops: 1
(PID.TID 0000.0001)   Seconds in section "FORWARD_STEP        [THE_MAIN_LOOP]":
(PID.TID 0000.0001)           User time:  0.189971007
(PID.TID 0000.0001)         System time:  0.00799900014
(PID.TID 0000.0001)     Wall clock time:  0.204473257
(PID.TID 0000.0001)          No. starts: 20
(PID.TID 0000.0001)           No. stops: 20
(PID.TID 0000.0001)   Seconds in section "LOAD_FIELDS_DRIVER  [FORWARD_STEP]":
(PID.TID 0000.0001)           User time:  0.00399900973
(PID.TID 0000.0001)         System time:  0.
(PID.TID 0000.0001)     Wall clock time:  0.00211286545
(PID.TID 0000.0001)          No. starts: 20
(PID.TID 0000.0001)           No. stops: 20
(PID.TID 0000.0001)   Seconds in section "EXTERNAL_FLDS_LOAD [LOAD_FLDS_DRIVER]":
(PID.TID 0000.0001)           User time:  0.00199900568
(PID.TID 0000.0001)         System time:  0.
(PID.TID 0000.0001)     Wall clock time:  0.000707149506
(PID.TID 0000.0001)          No. starts: 20
(PID.TID 0000.0001)           No. stops: 20
(PID.TID 0000.0001)   Seconds in section "DO_ATMOSPHERIC_PHYS [FORWARD_STEP]":
(PID.TID 0000.0001)           User time:  0.
(PID.TID 0000.0001)         System time:  0.
(PID.TID 0000.0001)     Wall clock time:  0.000686883926
(PID.TID 0000.0001)          No. starts: 20
(PID.TID 0000.0001)           No. stops: 20
(PID.TID 0000.0001)   Seconds in section "DO_OCEANIC_PHYS     [FORWARD_STEP]":
(PID.TID 0000.0001)           User time:  0.00399900228
(PID.TID 0000.0001)         System time:  0.
(PID.TID 0000.0001)     Wall clock time:  0.00182628632
(PID.TID 0000.0001)          No. starts: 20
(PID.TID 0000.0001)           No. stops: 20
(PID.TID 0000.0001)   Seconds in section "THERMODYNAMICS      [FORWARD_STEP]":
(PID.TID 0000.0001)           User time:  0.0279950164
(PID.TID 0000.0001)         System time:  0.00100000016
(PID.TID 0000.0001)     Wall clock time:  0.0279581547
(PID.TID 0000.0001)          No. starts: 20
(PID.TID 0000.0001)           No. stops: 20
(PID.TID 0000.0001)   Seconds in section "DYNAMICS            [FORWARD_STEP]":
(PID.TID 0000.0001)           User time:  0.0599919856
(PID.TID 0000.0001)         System time:  0.
(PID.TID 0000.0001)     Wall clock time:  0.0611352921
(PID.TID 0000.0001)          No. starts: 20
(PID.TID 0000.0001)           No. stops: 20
(PID.TID 0000.0001)   Seconds in section "SOLVE_FOR_PRESSURE  [FORWARD_STEP]":
(PID.TID 0000.0001)           User time:  0.00399900973
(PID.TID 0000.0001)         System time:  0.
(PID.TID 0000.0001)     Wall clock time:  0.00488114357
(PID.TID 0000.0001)          No. starts: 20
(PID.TID 0000.0001)           No. stops: 20
(PID.TID 0000.0001)   Seconds in section "MOM_CORRECTION_STEP [FORWARD_STEP]":
(PID.TID 0000.0001)           User time:  0.0039989911
(PID.TID 0000.0001)         System time:  0.
(PID.TID 0000.0001)     Wall clock time:  0.00357460976
(PID.TID 0000.0001)          No. starts: 20
(PID.TID 0000.0001)           No. stops: 20
(PID.TID 0000.0001)   Seconds in section "TRC_CORRECTION_STEP [FORWARD_STEP]":
(PID.TID 0000.0001)           User time:  0.0100000054
(PID.TID 0000.0001)         System time:  0.
(PID.TID 0000.0001)     Wall clock time:  0.0112764835
(PID.TID 0000.0001)          No. starts: 20
(PID.TID 0000.0001)           No. stops: 20
(PID.TID 0000.0001)   Seconds in section "BLOCKING_EXCHANGES  [FORWARD_STEP]":
(PID.TID 0000.0001)           User time:  0.0129959956
(PID.TID 0000.0001)         System time:  0.
(PID.TID 0000.0001)     Wall clock time:  0.0126628876
(PID.TID 0000.0001)          No. starts: 20
(PID.TID 0000.0001)           No. stops: 20
(PID.TID 0000.0001)   Seconds in section "DO_STATEVARS_TAVE   [FORWARD_STEP]":
(PID.TID 0000.0001)           User time:  0.000998996198
(PID.TID 0000.0001)         System time:  0.00100000016
(PID.TID 0000.0001)     Wall clock time:  0.00267386436
(PID.TID 0000.0001)          No. starts: 20
(PID.TID 0000.0001)           No. stops: 20
(PID.TID 0000.0001)   Seconds in section "MONITOR             [FORWARD_STEP]":
(PID.TID 0000.0001)           User time:  0.0519929975
(PID.TID 0000.0001)         System time:  0.00199900009
(PID.TID 0000.0001)     Wall clock time:  0.0541403294
(PID.TID 0000.0001)          No. starts: 20
(PID.TID 0000.0001)           No. stops: 20
(PID.TID 0000.0001)   Seconds in section "DO_THE_MODEL_IO     [FORWARD_STEP]":
(PID.TID 0000.0001)           User time:  0.0019999966
(PID.TID 0000.0001)         System time:  0.00200000033
(PID.TID 0000.0001)     Wall clock time:  0.0111370087
(PID.TID 0000.0001)          No. starts: 20
(PID.TID 0000.0001)           No. stops: 20
(PID.TID 0000.0001)   Seconds in section "DO_WRITE_PICKUP     [FORWARD_STEP]":
(PID.TID 0000.0001)           User time:  0.00199998915
(PID.TID 0000.0001)         System time:  0.
(PID.TID 0000.0001)     Wall clock time:  0.000706672668
(PID.TID 0000.0001)          No. starts: 20
(PID.TID 0000.0001)           No. stops: 20
(PID.TID 0000.0001)   Seconds in section "DO_WRITE_PICKUP        [THE_MODEL_MAIN]":
(PID.TID 0000.0001)           User time:  0.00299999118
(PID.TID 0000.0001)         System time:  0.00100000016
(PID.TID 0000.0001)     Wall clock time:  0.0159859657
(PID.TID 0000.0001)          No. starts: 1
(PID.TID 0000.0001)           No. stops: 1
(PID.TID 0000.0001) // ======================================================
(PID.TID 0000.0001) // Tile <-> Tile communication statistics
(PID.TID 0000.0001) // ======================================================
(PID.TID 0000.0001) // o Tile number: 000001
(PID.TID 0000.0001) //         No. X exchanges =              0
(PID.TID 0000.0001) //            Max. X spins =              0
(PID.TID 0000.0001) //            Min. X spins =     1000000000
(PID.TID 0000.0001) //          Total. X spins =              0
(PID.TID 0000.0001) //            Avg. X spins =       0.00E+00
(PID.TID 0000.0001) //         No. Y exchanges =              0
(PID.TID 0000.0001) //            Max. Y spins =              0
(PID.TID 0000.0001) //            Min. Y spins =     1000000000
(PID.TID 0000.0001) //          Total. Y spins =              0
(PID.TID 0000.0001) //            Avg. Y spins =       0.00E+00
(PID.TID 0000.0001) // o Thread number: 000001
(PID.TID 0000.0001) //            No. barriers =          11796
(PID.TID 0000.0001) //      Max. barrier spins =              1
(PID.TID 0000.0001) //      Min. barrier spins =              1
(PID.TID 0000.0001) //     Total barrier spins =          11796
(PID.TID 0000.0001) //      Avg. barrier spins =       1.00E+00
