(PID.TID 0000.0001) 
(PID.TID 0000.0001) // ======================================================
(PID.TID 0000.0001) //                      MITgcm UV
(PID.TID 0000.0001) //                      =========
(PID.TID 0000.0001) // ======================================================
(PID.TID 0000.0001) // execution environment starting up...
(PID.TID 0000.0001) 
(PID.TID 0000.0001) // MITgcmUV version:  checkpoint63a
(PID.TID 0000.0001) // Build user:        jmc
(PID.TID 0000.0001) // Build host:        baudelaire
(PID.TID 0000.0001) // Build date:        Sun Aug 28 14:04:34 EDT 2011
(PID.TID 0000.0001) 
(PID.TID 0000.0001) // =======================================================
(PID.TID 0000.0001) // Execution Environment parameter file "eedata"
(PID.TID 0000.0001) // =======================================================
(PID.TID 0000.0001) ># Example "eedata" file
(PID.TID 0000.0001) ># Lines beginning "#" are comments
(PID.TID 0000.0001) ># nTx - No. threads per process in X
(PID.TID 0000.0001) ># nTy - No. threads per process in Y
(PID.TID 0000.0001) > &EEPARMS
(PID.TID 0000.0001) > nTx=1,
(PID.TID 0000.0001) > nTy=1,
(PID.TID 0000.0001) > /
(PID.TID 0000.0001) ># Note: Some systems use & as the
(PID.TID 0000.0001) ># namelist terminator. Other systems
(PID.TID 0000.0001) ># use a / character (as shown here).
(PID.TID 0000.0001) 
(PID.TID 0000.0001) // =======================================================
(PID.TID 0000.0001) // Computational Grid Specification ( see files "SIZE.h" )
(PID.TID 0000.0001) //                                  ( and "eedata"       )
(PID.TID 0000.0001) // =======================================================
(PID.TID 0000.0001)      nPx =    1 ; /* No. processes in X */
(PID.TID 0000.0001)      nPy =    1 ; /* No. processes in Y */
(PID.TID 0000.0001)      nSx =    2 ; /* No. tiles in X per process */
(PID.TID 0000.0001)      nSy =    1 ; /* No. tiles in Y per process */
(PID.TID 0000.0001)      sNx =   45 ; /* Tile size in X */
(PID.TID 0000.0001)      sNy =   40 ; /* Tile size in Y */
(PID.TID 0000.0001)      OLx =    2 ; /* Tile overlap distance in X */
(PID.TID 0000.0001)      OLy =    2 ; /* Tile overlap distance in Y */
(PID.TID 0000.0001)      nTx =    1 ; /* No. threads in X per process */
(PID.TID 0000.0001)      nTy =    1 ; /* No. threads in Y per process */
(PID.TID 0000.0001)       Nr =   15 ; /* No. levels in the vertical   */
(PID.TID 0000.0001)       Nx =   90 ; /* Total domain size in X ( = nPx*nSx*sNx ) */
(PID.TID 0000.0001)       Ny =   40 ; /* Total domain size in Y ( = nPy*nSy*sNy ) */
(PID.TID 0000.0001)   nTiles =    2 ; /* Total no. tiles per process ( = nSx*nSy ) */
(PID.TID 0000.0001)   nProcs =    1 ; /* Total no. processes ( = nPx*nPy ) */
(PID.TID 0000.0001) nThreads =    1 ; /* Total no. threads per process ( = nTx*nTy ) */
(PID.TID 0000.0001) usingMPI =    F ; /* Flag used to control whether MPI is in use */
(PID.TID 0000.0001)                   /*  note: To execute a program with MPI calls */
(PID.TID 0000.0001)                   /*  it must be launched appropriately e.g     */
(PID.TID 0000.0001)                   /*  "mpirun -np 64 ......"                    */
(PID.TID 0000.0001) useCoupler=    F ;/* Flag used to control communications with   */
(PID.TID 0000.0001)                   /*  other model components, through a coupler */
(PID.TID 0000.0001) debugMode =    F ; /* print debug msg. (sequence of S/R calls)  */
(PID.TID 0000.0001) printMapIncludesZeros=    F ; /* print zeros in Std.Output maps */
(PID.TID 0000.0001) maxLengthPrt1D=   65 /* maxLength of 1D array printed to StdOut */
(PID.TID 0000.0001) 
(PID.TID 0000.0001) // ======================================================
(PID.TID 0000.0001) // Mapping of tiles to threads
(PID.TID 0000.0001) // ======================================================
(PID.TID 0000.0001) // -o- Thread   1, tiles (   1:   2,   1:   1)
(PID.TID 0000.0001) 
(PID.TID 0000.0001) // ======================================================
(PID.TID 0000.0001) // Tile <-> Tile connectvity table
(PID.TID 0000.0001) // ======================================================
(PID.TID 0000.0001) // Tile number: 000001 (process no. = 000001)
(PID.TID 0000.0001) //        WEST: Tile = 000002, Process = 000001, Comm = put
(PID.TID 0000.0001) //                bi = 000002, bj = 000001
(PID.TID 0000.0001) //        EAST: Tile = 000002, Process = 000001, Comm = put
(PID.TID 0000.0001) //                bi = 000002, bj = 000001
(PID.TID 0000.0001) //       SOUTH: Tile = 000001, Process = 000001, Comm = put
(PID.TID 0000.0001) //                bi = 000001, bj = 000001
(PID.TID 0000.0001) //       NORTH: Tile = 000001, Process = 000001, Comm = put
(PID.TID 0000.0001) //                bi = 000001, bj = 000001
(PID.TID 0000.0001) // Tile number: 000002 (process no. = 000001)
(PID.TID 0000.0001) //        WEST: Tile = 000001, Process = 000001, Comm = put
(PID.TID 0000.0001) //                bi = 000001, bj = 000001
(PID.TID 0000.0001) //        EAST: Tile = 000001, Process = 000001, Comm = put
(PID.TID 0000.0001) //                bi = 000001, bj = 000001
(PID.TID 0000.0001) //       SOUTH: Tile = 000002, Process = 000001, Comm = put
(PID.TID 0000.0001) //                bi = 000002, bj = 000001
(PID.TID 0000.0001) //       NORTH: Tile = 000002, Process = 000001, Comm = put
(PID.TID 0000.0001) //                bi = 000002, bj = 000001
(PID.TID 0000.0001) 
(PID.TID 0000.0001)  INI_PARMS: opening model parameter file "data"
(PID.TID 0000.0001)  OPEN_COPY_DATA_FILE: opening file data
(PID.TID 0000.0001) // =======================================================
(PID.TID 0000.0001) // Parameter file "data"
(PID.TID 0000.0001) // =======================================================
(PID.TID 0000.0001) ># ====================
(PID.TID 0000.0001) ># | Model parameters |
(PID.TID 0000.0001) ># ====================
(PID.TID 0000.0001) >#
(PID.TID 0000.0001) ># Continuous equation parameters
(PID.TID 0000.0001) > &PARM01
(PID.TID 0000.0001) > tRef = 15*20.,
(PID.TID 0000.0001) > sRef = 15*35.,
(PID.TID 0000.0001) > viscAr=1.E-3,
(PID.TID 0000.0001) > viscAh=5.E5,
(PID.TID 0000.0001) > diffKhT=0.,
(PID.TID 0000.0001) > diffKrT=3.E-5,
(PID.TID 0000.0001) > diffKhS=0.,
(PID.TID 0000.0001) > diffKrS=3.E-5,
(PID.TID 0000.0001) > rhoConst=1035.,
(PID.TID 0000.0001) > rhoConstFresh=1000.,
(PID.TID 0000.0001) > eosType = 'POLY3',
(PID.TID 0000.0001) > ivdc_kappa=10.,
(PID.TID 0000.0001) > implicitDiffusion=.TRUE.,
(PID.TID 0000.0001) > allowFreezing=.TRUE.,
(PID.TID 0000.0001) >#exactConserv=.TRUE.,
(PID.TID 0000.0001) >#- runoff missing in SSH forcing => comment out realFreshWaterFlux
(PID.TID 0000.0001) >#useRealFreshWaterFlux=.TRUE.,
(PID.TID 0000.0001) > useCDscheme=.TRUE.,
(PID.TID 0000.0001) ># turn on looped cells
(PID.TID 0000.0001) > hFacMin=.05,
(PID.TID 0000.0001) > hFacMindr=50.,
(PID.TID 0000.0001) ># set precision of data files
(PID.TID 0000.0001) > readBinaryPrec=32,
(PID.TID 0000.0001) > /
(PID.TID 0000.0001) >
(PID.TID 0000.0001) ># Elliptic solver parameters
(PID.TID 0000.0001) > &PARM02
(PID.TID 0000.0001) > cg2dMaxIters=500,
(PID.TID 0000.0001) > cg2dTargetResidual=1.E-13,
(PID.TID 0000.0001) > /
(PID.TID 0000.0001) >
(PID.TID 0000.0001) ># Time stepping parameters
(PID.TID 0000.0001) > &PARM03
(PID.TID 0000.0001) > nIter0 =      0,
(PID.TID 0000.0001) > nTimeSteps = 20,
(PID.TID 0000.0001) ># 100 years of integration will yield a reasonable flow field
(PID.TID 0000.0001) ># startTime  =          0.,
(PID.TID 0000.0001) ># endTime    = 3110400000.,
(PID.TID 0000.0001) > deltaTmom = 1200.,
(PID.TID 0000.0001) > tauCD =     321428.,
(PID.TID 0000.0001) > deltaTtracer = 43200.,
(PID.TID 0000.0001) > deltaTClock  = 43200.,
(PID.TID 0000.0001) > deltaTfreesurf=43200.,
(PID.TID 0000.0001) > abEps = 0.1,
(PID.TID 0000.0001) > pChkptFreq= 311040000.,
(PID.TID 0000.0001) > dumpFreq=   311040000.,
(PID.TID 0000.0001) > taveFreq=   311040000.,
(PID.TID 0000.0001) > dumpFreq=   864000.,
(PID.TID 0000.0001) > taveFreq=   864000.,
(PID.TID 0000.0001) >#monitorFreq=31104000.,
(PID.TID 0000.0001) > monitorFreq=1.,
(PID.TID 0000.0001) ># 2 months restoring timescale for temperature
(PID.TID 0000.0001) >#tauThetaClimRelax =  5184000.0,
(PID.TID 0000.0001) ># 6 months restoring timescale for salinity
(PID.TID 0000.0001) > tauSaltClimRelax = 15552000.0,
(PID.TID 0000.0001) >#periodicExternalForcing=.TRUE.,
(PID.TID 0000.0001) >#externForcingPeriod=2592000.,
(PID.TID 0000.0001) >#externForcingCycle=31104000.,
(PID.TID 0000.0001) > /
(PID.TID 0000.0001) >
(PID.TID 0000.0001) ># Gridding parameters
(PID.TID 0000.0001) > &PARM04
(PID.TID 0000.0001) > usingSphericalPolarGrid=.TRUE.,
(PID.TID 0000.0001) > delR= 50.,  70., 100., 140., 190.,
(PID.TID 0000.0001) >      240., 290., 340., 390., 440.,
(PID.TID 0000.0001) >      490., 540., 590., 640., 690.,
(PID.TID 0000.0001) > ygOrigin=-80.,
(PID.TID 0000.0001) > dySpacing=4.,
(PID.TID 0000.0001) > dxSpacing=4.,
(PID.TID 0000.0001) > /
(PID.TID 0000.0001) >
(PID.TID 0000.0001) ># Input datasets
(PID.TID 0000.0001) > &PARM05
(PID.TID 0000.0001) > bathyFile=      'Topog.bin',
(PID.TID 0000.0001) > hydrogThetaFile='Lev_clim_theta.bin',
(PID.TID 0000.0001) > hydrogSaltFile= 'Lev_clim_salt.bin',
(PID.TID 0000.0001) > zonalWindFile=  'Taux.bin',
(PID.TID 0000.0001) > meridWindFile=  'Tauy.bin',
(PID.TID 0000.0001) >#thetaClimFile=  'SST.bin',
(PID.TID 0000.0001) > saltClimFile=   'SSS.bin',
(PID.TID 0000.0001) > /
(PID.TID 0000.0001) 
(PID.TID 0000.0001)  INI_PARMS ; starts to read PARM01
(PID.TID 0000.0001)  INI_PARMS ; read PARM01 : OK
(PID.TID 0000.0001) S/R INI_PARMS: No request for barotropic solver
(PID.TID 0000.0001) S/R INI_PARMS: => Use implicitFreeSurface as default
(PID.TID 0000.0001)  INI_PARMS ; starts to read PARM02
(PID.TID 0000.0001)  INI_PARMS ; read PARM02 : OK
(PID.TID 0000.0001)  INI_PARMS ; starts to read PARM03
(PID.TID 0000.0001)  INI_PARMS ; read PARM03 : OK
(PID.TID 0000.0001)  INI_PARMS ; starts to read PARM04
(PID.TID 0000.0001)  INI_PARMS ; read PARM04 : OK
(PID.TID 0000.0001)  INI_PARMS ; starts to read PARM05
(PID.TID 0000.0001)  INI_PARMS ; read PARM05 : OK
(PID.TID 0000.0001)  INI_PARMS: finished reading file "data"
(PID.TID 0000.0001)  PACKAGES_BOOT: opening data.pkg
(PID.TID 0000.0001)  OPEN_COPY_DATA_FILE: opening file data.pkg
(PID.TID 0000.0001) // =======================================================
(PID.TID 0000.0001) // Parameter file "data.pkg"
(PID.TID 0000.0001) // =======================================================
(PID.TID 0000.0001) ># Packages
(PID.TID 0000.0001) > &PACKAGES
(PID.TID 0000.0001) > useGMRedi=.TRUE.,
(PID.TID 0000.0001) > useEBM=.TRUE.,
(PID.TID 0000.0001) > /
(PID.TID 0000.0001) >
(PID.TID 0000.0001) 
(PID.TID 0000.0001)  PACKAGES_BOOT: finished reading data.pkg
(PID.TID 0000.0001)  GM_READPARMS: opening data.gmredi
(PID.TID 0000.0001)  OPEN_COPY_DATA_FILE: opening file data.gmredi
(PID.TID 0000.0001) // =======================================================
(PID.TID 0000.0001) // Parameter file "data.gmredi"
(PID.TID 0000.0001) // =======================================================
(PID.TID 0000.0001) ># GM+Redi package parameters:
(PID.TID 0000.0001) >
(PID.TID 0000.0001) >#-from MOM :
(PID.TID 0000.0001) ># GM_background_K: 	G & Mc.W  diffusion coefficient
(PID.TID 0000.0001) ># GM_maxSlope    :	max slope of isopycnals
(PID.TID 0000.0001) ># GM_Scrit       :	transition for scaling diffusion coefficient
(PID.TID 0000.0001) ># GM_Sd          :	half width scaling for diffusion coefficient
(PID.TID 0000.0001) ># GM_taper_scheme:	slope clipping or one of the tapering schemes
(PID.TID 0000.0001) ># GM_Kmin_horiz  :	horizontal diffusion minimum value
(PID.TID 0000.0001) >
(PID.TID 0000.0001) >#-Option parameters (needs to "define" options in GMREDI_OPTIONS.h")
(PID.TID 0000.0001) ># GM_isopycK     :	isopycnal diffusion coefficient (default=GM_background_K)
(PID.TID 0000.0001) ># GM_AdvForm     :	turn on GM Advective form       (default=Skew flux form)
(PID.TID 0000.0001) >
(PID.TID 0000.0001) > &GM_PARM01
(PID.TID 0000.0001) >  GM_background_K    = 1.e+3,
(PID.TID 0000.0001) >  GM_taper_scheme    = 'gkw91',
(PID.TID 0000.0001) >  GM_maxSlope        = 1.e-2,
(PID.TID 0000.0001) >  GM_Kmin_horiz      = 50.,
(PID.TID 0000.0001) >  GM_Scrit           = 4.e-3,
(PID.TID 0000.0001) >  GM_Sd              = 1.e-3,
(PID.TID 0000.0001) ># GM_Visbeck_alpha   = 0.,
(PID.TID 0000.0001) ># GM_Visbeck_length  = 2.e+5,
(PID.TID 0000.0001) ># GM_Visbeck_depth   = 1.e+3,
(PID.TID 0000.0001) ># GM_Visbeck_maxval_K= 2.5e+3,
(PID.TID 0000.0001) > /
(PID.TID 0000.0001) >
(PID.TID 0000.0001) >
(PID.TID 0000.0001) 
(PID.TID 0000.0001)  GM_READPARMS: finished reading data.gmredi
(PID.TID 0000.0001)  ebm_readparms: opening data.ebm
(PID.TID 0000.0001)  OPEN_COPY_DATA_FILE: opening file data.ebm
(PID.TID 0000.0001) // =======================================================
(PID.TID 0000.0001) // Parameter file "data.ebm"
(PID.TID 0000.0001) // =======================================================
(PID.TID 0000.0001) ># Packages
(PID.TID 0000.0001) > &EBM_PARM01
(PID.TID 0000.0001) ># convert from mm/year to m/sec and change sign (see ebm_forcing_surf.F)
(PID.TID 0000.0001) > scale_runoff     = -3.170979198E-11,
(PID.TID 0000.0001) > tauThetaZonRelax = 5184000.0,
(PID.TID 0000.0001) > RunoffFile       = 'Runoff.bin',
(PID.TID 0000.0001) > /
(PID.TID 0000.0001) 
(PID.TID 0000.0001)  ebm_readparms: finished reading data.ebm
(PID.TID 0000.0001) SET_PARMS: done
(PID.TID 0000.0001) Enter INI_VERTICAL_GRID: setInterFDr=    T ; setCenterDr=    F
(PID.TID 0000.0001) %MON XC_max                       =   3.5800000000000E+02
(PID.TID 0000.0001) %MON XC_min                       =   2.0000000000000E+00
(PID.TID 0000.0001) %MON XC_mean                      =   1.8000000000000E+02
(PID.TID 0000.0001) %MON XC_sd                        =   1.0391663325314E+02
(PID.TID 0000.0001) %MON XG_max                       =   3.5600000000000E+02
(PID.TID 0000.0001) %MON XG_min                       =   0.0000000000000E+00
(PID.TID 0000.0001) %MON XG_mean                      =   1.7800000000000E+02
(PID.TID 0000.0001) %MON XG_sd                        =   1.0391663325314E+02
(PID.TID 0000.0001) %MON DXC_max                      =   4.4443898815675E+05
(PID.TID 0000.0001) %MON DXC_min                      =   9.2460385861875E+04
(PID.TID 0000.0001) %MON DXC_mean                     =   3.1372497618153E+05
(PID.TID 0000.0001) %MON DXC_sd                       =   1.1216447457560E+05
(PID.TID 0000.0001) %MON DXF_max                      =   4.4443898815675E+05
(PID.TID 0000.0001) %MON DXF_min                      =   9.2460385861875E+04
(PID.TID 0000.0001) %MON DXF_mean                     =   3.1372497618153E+05
(PID.TID 0000.0001) %MON DXF_sd                       =   1.1216447457560E+05
(PID.TID 0000.0001) %MON DXG_max                      =   4.4470989340816E+05
(PID.TID 0000.0001) %MON DXG_min                      =   7.7223062580781E+04
(PID.TID 0000.0001) %MON DXG_mean                     =   3.1353386340261E+05
(PID.TID 0000.0001) %MON DXG_sd                       =   1.1256651772502E+05
(PID.TID 0000.0001) %MON DXV_max                      =   4.4470989340816E+05
(PID.TID 0000.0001) %MON DXV_min                      =   7.7223062580781E+04
(PID.TID 0000.0001) %MON DXV_mean                     =   3.1353386340261E+05
(PID.TID 0000.0001) %MON DXV_sd                       =   1.1256651772502E+05
(PID.TID 0000.0001) %MON YC_max                       =   7.8000000000000E+01
(PID.TID 0000.0001) %MON YC_min                       =  -7.8000000000000E+01
(PID.TID 0000.0001) %MON YC_mean                      =   0.0000000000000E+00
(PID.TID 0000.0001) %MON YC_sd                        =   4.6173585522461E+01
(PID.TID 0000.0001) %MON YG_max                       =   7.6000000000000E+01
(PID.TID 0000.0001) %MON YG_min                       =  -8.0000000000000E+01
(PID.TID 0000.0001) %MON YG_mean                      =  -2.0000000000000E+00
(PID.TID 0000.0001) %MON YG_sd                        =   4.6173585522461E+01
(PID.TID 0000.0001) %MON DYC_max                      =   4.4470989340816E+05
(PID.TID 0000.0001) %MON DYC_min                      =   4.4470989340816E+05
(PID.TID 0000.0001) %MON DYC_mean                     =   4.4470989340817E+05
(PID.TID 0000.0001) %MON DYC_sd                       =   1.4668330550194E-08
(PID.TID 0000.0001) %MON DYF_max                      =   4.4470989340816E+05
(PID.TID 0000.0001) %MON DYF_min                      =   4.4470989340816E+05
(PID.TID 0000.0001) %MON DYF_mean                     =   4.4470989340817E+05
(PID.TID 0000.0001) %MON DYF_sd                       =   1.4668330550194E-08
(PID.TID 0000.0001) %MON DYG_max                      =   4.4470989340816E+05
(PID.TID 0000.0001) %MON DYG_min                      =   4.4470989340816E+05
(PID.TID 0000.0001) %MON DYG_mean                     =   4.4470989340817E+05
(PID.TID 0000.0001) %MON DYG_sd                       =   1.4668330550194E-08
(PID.TID 0000.0001) %MON DYU_max                      =   4.4470989340816E+05
(PID.TID 0000.0001) %MON DYU_min                      =   4.4470989340816E+05
(PID.TID 0000.0001) %MON DYU_mean                     =   4.4470989340817E+05
(PID.TID 0000.0001) %MON DYU_sd                       =   1.4668330550194E-08
(PID.TID 0000.0001) %MON RA_max                       =   1.9760627980089E+11
(PID.TID 0000.0001) %MON RA_min                       =   4.1109698667290E+10
(PID.TID 0000.0001) %MON RA_mean                      =   1.3948826965196E+11
(PID.TID 0000.0001) %MON RA_sd                        =   4.9870522472902E+10
(PID.TID 0000.0001) %MON RAW_max                      =   1.9760627980089E+11
(PID.TID 0000.0001) %MON RAW_min                      =   4.1109698667290E+10
(PID.TID 0000.0001) %MON RAW_mean                     =   1.3948826965196E+11
(PID.TID 0000.0001) %MON RAW_sd                       =   4.9870522472902E+10
(PID.TID 0000.0001) %MON RAS_max                      =   1.9772672958215E+11
(PID.TID 0000.0001) %MON RAS_min                      =   3.4334886267983E+10
(PID.TID 0000.0001) %MON RAS_mean                     =   1.3940329716694E+11
(PID.TID 0000.0001) %MON RAS_sd                       =   5.0049278732353E+10
(PID.TID 0000.0001) %MON RAZ_max                      =   1.9772672958215E+11
(PID.TID 0000.0001) %MON RAZ_min                      =   3.4334886267983E+10
(PID.TID 0000.0001) %MON RAZ_mean                     =   1.3940329716694E+11
(PID.TID 0000.0001) %MON RAZ_sd                       =   5.0049278732353E+10
(PID.TID 0000.0001) %MON AngleCS_max                  =   1.0000000000000E+00
(PID.TID 0000.0001) %MON AngleCS_min                  =   1.0000000000000E+00
(PID.TID 0000.0001) %MON AngleCS_mean                 =   1.0000000000000E+00
(PID.TID 0000.0001) %MON AngleCS_sd                   =   0.0000000000000E+00
(PID.TID 0000.0001) %MON AngleSN_max                  =   0.0000000000000E+00
(PID.TID 0000.0001) %MON AngleSN_min                  =   0.0000000000000E+00
(PID.TID 0000.0001) %MON AngleSN_mean                 =   0.0000000000000E+00
(PID.TID 0000.0001) %MON AngleSN_sd                   =   0.0000000000000E+00
(PID.TID 0000.0001)  MDS_READ_FIELD: opening global file: Topog.bin
(PID.TID 0000.0001) // =======================================================
(PID.TID 0000.0001) // Field Model R_low (ini_masks_etc)
(PID.TID 0000.0001) // CMIN =         -5.200000000000000E+03
(PID.TID 0000.0001) // CMAX =         -5.000000000000000E+01
(PID.TID 0000.0001) // CINT =          1.907407407407407E+02
(PID.TID 0000.0001) // SYMBOLS (CMIN->CMAX): -abcdefghijklmnopqrstuvwxyz+
(PID.TID 0000.0001) //                  0.0: .
(PID.TID 0000.0001) // RANGE I (Lo:Hi:Step):(    -1:    92:     1)
(PID.TID 0000.0001) // RANGE J (Lo:Hi:Step):(    42:    -1:    -1)
(PID.TID 0000.0001) // RANGE K (Lo:Hi:Step):(   1:   1:   1)
(PID.TID 0000.0001) // =======================================================
(PID.TID 0000.0001) K =   1
(PID.TID 0000.0001) //                I=8       I=18      I=28      I=38      I=44      I=54      I=64      I=74      I=84
(PID.TID 0000.0001) // |--J--|101234567|901234567|901234567|901234567|901234567|567890123|567890123|567890123|567890123|56789012
(PID.TID 0000.0001) //     42 .............................................yywvyywvqnkk...........................wvss..........
(PID.TID 0000.0001) //     41 ..................................................................................................
(PID.TID 0000.0001) //     40 ..................................................................................................
(PID.TID 0000.0001) //     39 nkkknqxz.......................................................................qsv.........vqnnkkk
(PID.TID 0000.0001) //     38 kkkkkq..........................................................................uv........vvsqkkkk
(PID.TID 0000.0001) //     37 kknv............................................................................wqq...qnqu..sukknv
(PID.TID 0000.0001) //     36 wwz..........................................kknqkknqz..........................unkk.kknqqnnqswwz.
(PID.TID 0000.0001) //     35 ..++.................................yvwz.hdkkkkkkkkkkuq.ddhhkq..................nhhhhknkknqnq..++
(PID.TID 0000.0001) //     34 ......................................vvv--d-------------ddhhhkn..................wkhhhhhhhdkv....
(PID.TID 0000.0001) //     33 d.....................................kk-------------------ddhhnq...............zz.skhdhhhddddd...
(PID.TID 0000.0001) //     32 ......................................h---------------------dhhhn...............nhdhd-dhkkhd-d....
(PID.TID 0000.0001) //     31 ......................................------------------------ddd.............hd------dhnhd--.....
(PID.TID 0000.0001) //     30 .....................................---------d---d-------------d............d--------hkh-----....
(PID.TID 0000.0001) //     29 .................................zudh--------------------------dhhk.........n-------dhhdh--dhh....
(PID.TID 0000.0001) //     28 ................................yqdd-------------------------dddhhh......nk.d-------dd-----hk.....
(PID.TID 0000.0001) //     27 .................................---------------------ddd-----ddhhhhk...hhkqq-------hd----dh......
(PID.TID 0000.0001) //     26 .................hkk....s.....khd----d--------d---d-----d-------dhhhkh..k.hddh-----dhd----dk......
(PID.TID 0000.0001) //     25 ...............hhhhh..kknn...qhh.----d--------------------------ddhhhhh....hhhd----dh-----hh......
(PID.TID 0000.0001) //     24 ..............nhhhhhs.hhkn...hhh.----------dd------------------dddhhhhkhdh.khh.-nd--dd----dh......
(PID.TID 0000.0001) //     23 ...............-dhddknhhhh.++nnhh----hdd----h----------d-----dddddhhhhkhhhk......khddhh---ddd.....
(PID.TID 0000.0001) //     22 dddh..........--dhhhkhhhhh..++..----dd-dhhddhd---d------hd--ddhhhhhhhhkkhhkk.......khhdhhhd--ddddh
(PID.TID 0000.0001) //     21 --dh.........d--ddhhddddddd.....nnhhdhd-hnhhhd---d-------dddhhhhddhhhhhkkkkk........hhhhdhd-----dh
(PID.TID 0000.0001) //     20 -dddh.......h--dhdhdd--dd--.......-...qqkqhhh-------------ddddddddhhhhhhhhh............h----dd-ddd
(PID.TID 0000.0001) //     19 d---d.......hddhhhhk---------.hhhd-s...--hhh--d---d---dd----hhdddhhhhhhhhhh-...........d---dhhd---
(PID.TID 0000.0001) //     18 ----d.......khhhhhhh---d--------ku....khhk--hhhhdhhhd--h--dddhhhhhhhhhhhhhddd..........d---dhh----
(PID.TID 0000.0001) //     17 d---d.......k..dhhhdd--d--------s......ddhddhkkn-kkn----dddhhhhhhhhkhhhhhdddh..........d---dhhd---
(PID.TID 0000.0001) //     16 d---d......kn.--hhkhdd-d------h........vkkkd-hhn-hhn---ddddddhhhhhhkhhhhhdhhd-........hd---dhhd---
(PID.TID 0000.0001) //     15 ---hd......hh.---dhhhdddd----d..........ddnkddhq-dhq----dddddhhhhhkkhhhhhhhhdh.......nhd---dhd---h
(PID.TID 0000.0001) //     14 d---dh....qddh---ddhhhhddd----...........dnhhdh--dh------dddhhhhhhkkkhhhhhhhh-......khhd--dhhhd---
(PID.TID 0000.0001) //     13 dh---h...hk-dhddhddddhhhhhd---..........-dshhhh--hh------d--ddhhhhhkkhhhhhhhhd.....khhhddddhkhdh--
(PID.TID 0000.0001) //     12 hd---dhdhh---khdd-ddhkhhhhh----.----....---nqsk--sk----------ddddhhhkhhhhhhhhd....n----dhhhkhhhd--
(PID.TID 0000.0001) //     11 hd--dd--hd--dkhd--dhhkhhhhhdddd-------xhd--hv.kd-.kd-d--d------ddhhhhhhdhhhhh....n-------hhkkhhd--
(PID.TID 0000.0001) //     10 hhddd------hkkkd--hhhkkkkhhhhhddddddddhh---h.snk-snk----d------ddhhhhhhdddhhh...+d------ddhhkhhhdd
(PID.TID 0000.0001) //      9 hhhhd-----ddhhhhdhknkkhhhhkhkhhhhhhhdhhd--dhvsn--sn--------ddddddhhkhhhhdddhh...xd--------dhhkhhhh
(PID.TID 0000.0001) //      8 nkhhhhhh---dhhdddddhqnhdhhhhhhhhhhhhhhhhdddhvd---d--------ddhhhhhhkhhdd--dddh..zxqnkkhddddhhhhnkhh
(PID.TID 0000.0001) //      7 hhd----d---------dddhkd--hhhhhhddddhhhhhhhd------------dddhhhhhhkkhh-------ddhhhhhdhhhhd---dhhhhd-
(PID.TID 0000.0001) //      6 ------------------dddhnhddhhhhhdddddhhhhhk-----dd--dddddhkkhhdd--------------ddhhhhhhhhhh--d------
(PID.TID 0000.0001) //      5 -------------d--dhdhhkkkkhh.hhhhhhhhhhhhkknhhhhhhhhhhkkkhhhhhdd------d---ddddhhh.xnhhddddd--------
(PID.TID 0000.0001) //      4 dhhhhhdddh.h..............................qnkkkhhkkhhhhhhhhhhhhdddddddddhdhhhk...wkhhhhddddddddhhh
(PID.TID 0000.0001) //      3 .............................................nnkhnnkhhhhhhhhhhhhkknkkkk..........vnkhhhhhhhh......
(PID.TID 0000.0001) //      2 .............................................yywvyywvqnkk...........................wvss..........
(PID.TID 0000.0001) //      1 ..................................................................................................
(PID.TID 0000.0001) //      0 ..................................................................................................
(PID.TID 0000.0001) //     -1 nkkknqxz.......................................................................qsv.........vqnnkkk
(PID.TID 0000.0001) // =======================================================
(PID.TID 0000.0001) // END OF FIELD                                          =
(PID.TID 0000.0001) // =======================================================
(PID.TID 0000.0001) 
(PID.TID 0000.0001) // =======================================================
(PID.TID 0000.0001) // Field Model Ro_surf (ini_masks_etc)
(PID.TID 0000.0001) // CMIN =          1.000000000000000E+32
(PID.TID 0000.0001) // CMAX =         -1.000000000000000E+32
(PID.TID 0000.0001) // CINT =          0.000000000000000E+00
(PID.TID 0000.0001) // SYMBOLS (CMIN->CMAX): -abcdefghijklmnopqrstuvwxyz+
(PID.TID 0000.0001) //                  0.0: .
(PID.TID 0000.0001) // RANGE I (Lo:Hi:Step):(    -1:    92:     1)
(PID.TID 0000.0001) // RANGE J (Lo:Hi:Step):(    42:    -1:    -1)
(PID.TID 0000.0001) // RANGE K (Lo:Hi:Step):(   1:   1:   1)
(PID.TID 0000.0001) // =======================================================
(PID.TID 0000.0001) // =======================================================
(PID.TID 0000.0001) // END OF FIELD                                          =
(PID.TID 0000.0001) // =======================================================
(PID.TID 0000.0001) 
(PID.TID 0000.0001) // =======================================================
(PID.TID 0000.0001) // Field hFacC at iteration          0
(PID.TID 0000.0001) // CMIN =          1.000000000000000E+00
(PID.TID 0000.0001) // CMAX =          1.000000000000000E+00
(PID.TID 0000.0001) // CINT =          0.000000000000000E+00
(PID.TID 0000.0001) // SYMBOLS (CMIN->CMAX): -abcdefghijklmnopqrstuvwxyz+
(PID.TID 0000.0001) //                  0.0: .
(PID.TID 0000.0001) // RANGE I (Lo:Hi:Step):(    -1:    92:     1)
(PID.TID 0000.0001) // RANGE J (Lo:Hi:Step):(    42:    -1:    -1)
(PID.TID 0000.0001) // RANGE K (Lo:Hi:Step):(   1:   1:   1)
(PID.TID 0000.0001) // =======================================================
(PID.TID 0000.0001) // =======================================================
(PID.TID 0000.0001) // END OF FIELD                                          =
(PID.TID 0000.0001) // =======================================================
(PID.TID 0000.0001) 
(PID.TID 0000.0001) // =======================================================
(PID.TID 0000.0001) // Field hFacW at iteration          0
(PID.TID 0000.0001) // CMIN =          1.000000000000000E+00
(PID.TID 0000.0001) // CMAX =          1.000000000000000E+00
(PID.TID 0000.0001) // CINT =          0.000000000000000E+00
(PID.TID 0000.0001) // SYMBOLS (CMIN->CMAX): -abcdefghijklmnopqrstuvwxyz+
(PID.TID 0000.0001) //                  0.0: .
(PID.TID 0000.0001) // RANGE I (Lo:Hi:Step):(    -1:    92:     1)
(PID.TID 0000.0001) // RANGE J (Lo:Hi:Step):(    42:    -1:    -1)
(PID.TID 0000.0001) // RANGE K (Lo:Hi:Step):(   1:   1:   1)
(PID.TID 0000.0001) // =======================================================
(PID.TID 0000.0001) // =======================================================
(PID.TID 0000.0001) // END OF FIELD                                          =
(PID.TID 0000.0001) // =======================================================
(PID.TID 0000.0001) 
(PID.TID 0000.0001) // =======================================================
(PID.TID 0000.0001) // Field hFacS at iteration          0
(PID.TID 0000.0001) // CMIN =          1.000000000000000E+00
(PID.TID 0000.0001) // CMAX =          1.000000000000000E+00
(PID.TID 0000.0001) // CINT =          0.000000000000000E+00
(PID.TID 0000.0001) // SYMBOLS (CMIN->CMAX): -abcdefghijklmnopqrstuvwxyz+
(PID.TID 0000.0001) //                  0.0: .
(PID.TID 0000.0001) // RANGE I (Lo:Hi:Step):(    -1:    92:     1)
(PID.TID 0000.0001) // RANGE J (Lo:Hi:Step):(    42:    -1:    -1)
(PID.TID 0000.0001) // RANGE K (Lo:Hi:Step):(   1:   1:   1)
(PID.TID 0000.0001) // =======================================================
(PID.TID 0000.0001) // =======================================================
(PID.TID 0000.0001) // END OF FIELD                                          =
(PID.TID 0000.0001) // =======================================================
(PID.TID 0000.0001) 
(PID.TID 0000.0001) GAD_INIT_FIXED: GAD_OlMinSize=  1  0  1
(PID.TID 0000.0001) 
(PID.TID 0000.0001) // ===================================
(PID.TID 0000.0001) // GAD parameters :
(PID.TID 0000.0001) // ===================================
(PID.TID 0000.0001) tempAdvScheme =   /* Temp. Horiz.Advection scheme selector */
(PID.TID 0000.0001)                       2
(PID.TID 0000.0001)     ;
(PID.TID 0000.0001) tempVertAdvScheme =   /* Temp. Vert. Advection scheme selector */
(PID.TID 0000.0001)                       2
(PID.TID 0000.0001)     ;
(PID.TID 0000.0001) tempMultiDimAdvec =   /* use Muti-Dim Advec method for Temp */
(PID.TID 0000.0001)                   F
(PID.TID 0000.0001)     ;
(PID.TID 0000.0001) tempSOM_Advection = /* use 2nd Order Moment Advection for Temp */
(PID.TID 0000.0001)                   F
(PID.TID 0000.0001)     ;
(PID.TID 0000.0001) AdamsBashforthGt = /* apply Adams-Bashforth extrapolation on Gt */
(PID.TID 0000.0001)                   T
(PID.TID 0000.0001)     ;
(PID.TID 0000.0001) AdamsBashforth_T = /* apply Adams-Bashforth extrapolation on Temp */
(PID.TID 0000.0001)                   F
(PID.TID 0000.0001)     ;
(PID.TID 0000.0001) saltAdvScheme =   /* Salt. Horiz.advection scheme selector */
(PID.TID 0000.0001)                       2
(PID.TID 0000.0001)     ;
(PID.TID 0000.0001) saltVertAdvScheme =   /* Salt. Vert. Advection scheme selector */
(PID.TID 0000.0001)                       2
(PID.TID 0000.0001)     ;
(PID.TID 0000.0001) saltMultiDimAdvec =   /* use Muti-Dim Advec method for Salt */
(PID.TID 0000.0001)                   F
(PID.TID 0000.0001)     ;
(PID.TID 0000.0001) saltSOM_Advection = /* use 2nd Order Moment Advection for Salt */
(PID.TID 0000.0001)                   F
(PID.TID 0000.0001)     ;
(PID.TID 0000.0001) AdamsBashforthGs = /* apply Adams-Bashforth extrapolation on Gs */
(PID.TID 0000.0001)                   T
(PID.TID 0000.0001)     ;
(PID.TID 0000.0001) AdamsBashforth_S = /* apply Adams-Bashforth extrapolation on Salt */
(PID.TID 0000.0001)                   F
(PID.TID 0000.0001)     ;
(PID.TID 0000.0001) // ===================================
(PID.TID 0000.0001) %MON fCori_max                    =   1.4265546244797E-04
(PID.TID 0000.0001) %MON fCori_min                    =  -1.4265546244797E-04
(PID.TID 0000.0001) %MON fCori_mean                   =  -1.5058363506743E-21
(PID.TID 0000.0001) %MON fCori_sd                     =   9.6599226301546E-05
(PID.TID 0000.0001) %MON fCoriG_max                   =   1.4151032568025E-04
(PID.TID 0000.0001) %MON fCoriG_min                   =  -1.4362679550910E-04
(PID.TID 0000.0001) %MON fCoriG_mean                  =  -3.5906698877274E-06
(PID.TID 0000.0001) %MON fCoriG_sd                    =   9.6548915696246E-05
(PID.TID 0000.0001) %MON fCoriCos_max                 =   1.4575362704741E-04
(PID.TID 0000.0001) %MON fCoriCos_min                 =   3.0322354601388E-05
(PID.TID 0000.0001) %MON fCoriCos_mean                =   1.0288600773632E-04
(PID.TID 0000.0001) %MON fCoriCos_sd                  =   3.6784304327266E-05
(PID.TID 0000.0001) INI_CG2D: CG2D normalisation factor =  9.0544177972206531E-05
(PID.TID 0000.0001) 
(PID.TID 0000.0001) // =======================================================
(PID.TID 0000.0001) // Model configuration
(PID.TID 0000.0001) // =======================================================
(PID.TID 0000.0001) //
(PID.TID 0000.0001) // "Physical" paramters ( PARM01 in namelist )
(PID.TID 0000.0001) //
(PID.TID 0000.0001) buoyancyRelation = /* Type of relation to get Buoyancy */
(PID.TID 0000.0001)               'OCEANIC'
(PID.TID 0000.0001)     ;
(PID.TID 0000.0001) fluidIsAir   =  /* fluid major constituent is Air */
(PID.TID 0000.0001)                   F
(PID.TID 0000.0001)     ;
(PID.TID 0000.0001) fluidIsWater =  /* fluid major constituent is Water */
(PID.TID 0000.0001)                   T
(PID.TID 0000.0001)     ;
(PID.TID 0000.0001) usingPCoords =  /* use p (or p*) vertical coordinate */
(PID.TID 0000.0001)                   F
(PID.TID 0000.0001)     ;
(PID.TID 0000.0001) usingZCoords =  /* use z (or z*) vertical coordinate */
(PID.TID 0000.0001)                   T
(PID.TID 0000.0001)     ;
(PID.TID 0000.0001) tRef =   /* Reference temperature profile ( oC or K ) */
(PID.TID 0000.0001)    15 @  2.000000000000000E+01              /* K =  1: 15 */
(PID.TID 0000.0001)     ;
(PID.TID 0000.0001) sRef =   /* Reference salinity profile ( psu ) */
(PID.TID 0000.0001)    15 @  3.500000000000000E+01              /* K =  1: 15 */
(PID.TID 0000.0001)     ;
(PID.TID 0000.0001) viscAh  =   /* Lateral eddy viscosity ( m^2/s ) */
(PID.TID 0000.0001)                 5.000000000000000E+05
(PID.TID 0000.0001)     ;
(PID.TID 0000.0001) viscAhMax = /* Maximum lateral eddy viscosity ( m^2/s ) */
(PID.TID 0000.0001)                 1.000000000000000E+21
(PID.TID 0000.0001)     ;
(PID.TID 0000.0001) viscAhGrid = /* Grid dependent lateral eddy viscosity ( non-dim. ) */
(PID.TID 0000.0001)                 0.000000000000000E+00
(PID.TID 0000.0001)     ;
(PID.TID 0000.0001) useFullLeith = /* Use Full Form of Leith Viscosity on/off flag*/
(PID.TID 0000.0001)                   F
(PID.TID 0000.0001)     ;
(PID.TID 0000.0001) useStrainTensionVisc= /* Use StrainTension Form of Viscous Operator flag*/
(PID.TID 0000.0001)                   F
(PID.TID 0000.0001)     ;
(PID.TID 0000.0001) useAreaViscLength = /* Use area for visc length instead of geom. mean*/
(PID.TID 0000.0001)                   F
(PID.TID 0000.0001)     ;
(PID.TID 0000.0001) viscC2leith = /* Leith harmonic visc. factor (on grad(vort),non-dim.) */
(PID.TID 0000.0001)                 0.000000000000000E+00
(PID.TID 0000.0001)     ;
(PID.TID 0000.0001) viscC2leithD = /* Leith harmonic viscosity factor (on grad(div),non-dim.)*/
(PID.TID 0000.0001)                 0.000000000000000E+00
(PID.TID 0000.0001)     ;
(PID.TID 0000.0001) viscC2smag = /* Smagorinsky harmonic viscosity factor (non-dim.) */
(PID.TID 0000.0001)                 0.000000000000000E+00
(PID.TID 0000.0001)     ;
(PID.TID 0000.0001) viscA4  =   /* Lateral biharmonic viscosity ( m^4/s ) */
(PID.TID 0000.0001)                 0.000000000000000E+00
(PID.TID 0000.0001)     ;
(PID.TID 0000.0001) viscA4Max = /* Maximum biharmonic viscosity ( m^2/s ) */
(PID.TID 0000.0001)                 1.000000000000000E+21
(PID.TID 0000.0001)     ;
(PID.TID 0000.0001) viscA4Grid = /* Grid dependent biharmonic viscosity ( non-dim. ) */
(PID.TID 0000.0001)                 0.000000000000000E+00
(PID.TID 0000.0001)     ;
(PID.TID 0000.0001) viscC4leith = /* Leith biharm viscosity factor (on grad(vort), non-dim.)*/
(PID.TID 0000.0001)                 0.000000000000000E+00
(PID.TID 0000.0001)     ;
(PID.TID 0000.0001) viscC4leithD = /* Leith biharm viscosity factor (on grad(div), non-dim.) */
(PID.TID 0000.0001)                 0.000000000000000E+00
(PID.TID 0000.0001)     ;
(PID.TID 0000.0001) viscC4Smag = /* Smagorinsky biharm viscosity factor (non-dim) */
(PID.TID 0000.0001)                 0.000000000000000E+00
(PID.TID 0000.0001)     ;
(PID.TID 0000.0001) no_slip_sides =  /* Viscous BCs: No-slip sides */
(PID.TID 0000.0001)                   T
(PID.TID 0000.0001)     ;
(PID.TID 0000.0001) sideDragFactor = /* side-drag scaling factor (non-dim) */
(PID.TID 0000.0001)                 2.000000000000000E+00
(PID.TID 0000.0001)     ;
(PID.TID 0000.0001) viscArNr = /* vertical profile of vertical viscosity ( m^2/s )*/
(PID.TID 0000.0001)    15 @  1.000000000000000E-03              /* K =  1: 15 */
(PID.TID 0000.0001)     ;
(PID.TID 0000.0001) no_slip_bottom =  /* Viscous BCs: No-slip bottom */
(PID.TID 0000.0001)                   T
(PID.TID 0000.0001)     ;
(PID.TID 0000.0001) bottomDragLinear = /* linear bottom-drag coefficient ( m/s ) */
(PID.TID 0000.0001)                 0.000000000000000E+00
(PID.TID 0000.0001)     ;
(PID.TID 0000.0001) bottomDragQuadratic = /* quadratic bottom-drag coefficient (-) */
(PID.TID 0000.0001)                 0.000000000000000E+00
(PID.TID 0000.0001)     ;
(PID.TID 0000.0001) diffKhT =   /* Laplacian diffusion of heat laterally ( m^2/s ) */
(PID.TID 0000.0001)                 0.000000000000000E+00
(PID.TID 0000.0001)     ;
(PID.TID 0000.0001) diffK4T =   /* Biharmonic diffusion of heat laterally ( m^4/s ) */
(PID.TID 0000.0001)                 0.000000000000000E+00
(PID.TID 0000.0001)     ;
(PID.TID 0000.0001) diffKhS =   /* Laplacian diffusion of salt laterally ( m^2/s ) */
(PID.TID 0000.0001)                 0.000000000000000E+00
(PID.TID 0000.0001)     ;
(PID.TID 0000.0001) diffK4S =   /* Biharmonic diffusion of salt laterally ( m^4/s ) */
(PID.TID 0000.0001)                 0.000000000000000E+00
(PID.TID 0000.0001)     ;
(PID.TID 0000.0001) diffKrNrT = /* vertical profile of vertical diffusion of Temp ( m^2/s )*/
(PID.TID 0000.0001)    15 @  3.000000000000000E-05              /* K =  1: 15 */
(PID.TID 0000.0001)     ;
(PID.TID 0000.0001) diffKrNrS = /* vertical profile of vertical diffusion of Salt ( m^2/s )*/
(PID.TID 0000.0001)    15 @  3.000000000000000E-05              /* K =  1: 15 */
(PID.TID 0000.0001)     ;
(PID.TID 0000.0001) diffKrBL79surf = /* Surface diffusion for Bryan and Lewis 79 ( m^2/s ) */
(PID.TID 0000.0001)                 0.000000000000000E+00
(PID.TID 0000.0001)     ;
(PID.TID 0000.0001) diffKrBL79deep = /* Deep diffusion for Bryan and Lewis 1979 ( m^2/s ) */
(PID.TID 0000.0001)                 0.000000000000000E+00
(PID.TID 0000.0001)     ;
(PID.TID 0000.0001) diffKrBL79scl = /* Depth scale for Bryan and Lewis 1979 ( m ) */
(PID.TID 0000.0001)                 2.000000000000000E+02
(PID.TID 0000.0001)     ;
(PID.TID 0000.0001) diffKrBL79Ho = /* Turning depth for Bryan and Lewis 1979 ( m ) */
(PID.TID 0000.0001)                -2.000000000000000E+03
(PID.TID 0000.0001)     ;
(PID.TID 0000.0001) ivdc_kappa = /* Implicit Vertical Diffusivity for Convection ( m^2/s) */
(PID.TID 0000.0001)                 1.000000000000000E+01
(PID.TID 0000.0001)     ;
(PID.TID 0000.0001) hMixCriteria=  /* Criteria for mixed-layer diagnostic */
(PID.TID 0000.0001)                -8.000000000000000E-01
(PID.TID 0000.0001)     ;
(PID.TID 0000.0001) dRhoSmall =  /* Parameter for mixed-layer diagnostic */
(PID.TID 0000.0001)                 1.000000000000000E-06
(PID.TID 0000.0001)     ;
(PID.TID 0000.0001) hMixSmooth=  /* Smoothing parameter for mixed-layer diagnostic */
(PID.TID 0000.0001)                 0.000000000000000E+00
(PID.TID 0000.0001)     ;
(PID.TID 0000.0001) eosType =  /* Type of Equation of State */
(PID.TID 0000.0001)               'POLY3 '
(PID.TID 0000.0001)     ;
(PID.TID 0000.0001) tAlpha =   /* Linear EOS thermal expansion coefficient ( 1/oC ) */
(PID.TID 0000.0001)                 1.234567000000000E+05
(PID.TID 0000.0001)     ;
(PID.TID 0000.0001) sBeta =   /* Linear EOS haline contraction coefficient ( 1/psu ) */
(PID.TID 0000.0001)                 1.234567000000000E+05
(PID.TID 0000.0001)     ;
(PID.TID 0000.0001)   1  13.497  32.600  24.548  -0.202   0.773  -0.005  -0.002   0.000   0.000   0.000   0.000   0.000
(PID.TID 0000.0001)   2  13.488  32.600  24.819  -0.204   0.773  -0.005  -0.002   0.000   0.000   0.000   0.000   0.000
(PID.TID 0000.0001)   3  13.476  32.600  25.201  -0.205   0.772  -0.005  -0.002   0.000   0.000   0.000   0.000   0.000
(PID.TID 0000.0001)   4   8.469  35.150  28.642  -0.163   0.784  -0.005  -0.002  -0.000   0.000   0.000   0.000   0.000
(PID.TID 0000.0001)   5   8.451  35.150  29.393  -0.167   0.782  -0.005  -0.002  -0.000   0.000   0.000   0.000   0.000
(PID.TID 0000.0001)   6   5.940  34.900  30.563  -0.144   0.786  -0.005  -0.002  -0.001   0.000   0.000   0.000   0.000
(PID.TID 0000.0001)   7   4.425  34.900  31.985  -0.134   0.788  -0.005  -0.003  -0.000   0.000   0.000   0.000   0.000
(PID.TID 0000.0001)   8   2.911  34.750  33.505  -0.125   0.789  -0.006  -0.003  -0.000   0.000   0.000   0.000   0.000
(PID.TID 0000.0001)   9   1.893  34.800  35.341  -0.123   0.789  -0.006  -0.003   0.000   0.000   0.000   0.000   0.000
(PID.TID 0000.0001)  10   1.367  34.800  37.299  -0.129   0.787  -0.006  -0.003   0.000   0.000   0.000   0.000   0.000
(PID.TID 0000.0001)  11   1.327  34.800  39.405  -0.141   0.783  -0.005  -0.003   0.000   0.000   0.000   0.000   0.000
(PID.TID 0000.0001)  12   0.791  34.800  41.788  -0.149   0.780  -0.005  -0.003   0.000   0.000   0.000   0.000   0.000
(PID.TID 0000.0001)  13   0.736  34.750  44.259  -0.164   0.776  -0.005  -0.002   0.000   0.000   0.000   0.000   0.000
(PID.TID 0000.0001)  14   0.186  34.750  47.044  -0.175   0.773  -0.005  -0.002   0.000   0.000   0.000   0.000   0.000
(PID.TID 0000.0001)  15   0.595  34.750  49.835  -0.196   0.767  -0.004  -0.002   0.000   0.000   0.000   0.000   0.000
(PID.TID 0000.0001) rhonil =   /* Reference density ( kg/m^3 ) */
(PID.TID 0000.0001)                 9.998000000000000E+02
(PID.TID 0000.0001)     ;
(PID.TID 0000.0001) rhoConst =   /* Reference density ( kg/m^3 ) */
(PID.TID 0000.0001)                 1.035000000000000E+03
(PID.TID 0000.0001)     ;
(PID.TID 0000.0001) rhoFacC = /* normalized Reference density @ cell-Center (-) */
(PID.TID 0000.0001)    15 @  1.000000000000000E+00              /* K =  1: 15 */
(PID.TID 0000.0001)     ;
(PID.TID 0000.0001) rhoFacF = /* normalized Reference density @ W-Interface (-) */
(PID.TID 0000.0001)    16 @  1.000000000000000E+00              /* K =  1: 16 */
(PID.TID 0000.0001)     ;
(PID.TID 0000.0001) rhoConstFresh =   /* Reference density ( kg/m^3 ) */
(PID.TID 0000.0001)                 1.000000000000000E+03
(PID.TID 0000.0001)     ;
(PID.TID 0000.0001) gravity =   /* Gravitational acceleration ( m/s^2 ) */
(PID.TID 0000.0001)                 9.810000000000000E+00
(PID.TID 0000.0001)     ;
(PID.TID 0000.0001) gBaro =   /* Barotropic gravity ( m/s^2 ) */
(PID.TID 0000.0001)                 9.810000000000000E+00
(PID.TID 0000.0001)     ;
(PID.TID 0000.0001) rotationPeriod =   /* Rotation Period ( s ) */
(PID.TID 0000.0001)                 8.616400000000000E+04
(PID.TID 0000.0001)     ;
(PID.TID 0000.0001) omega =   /* Angular velocity ( rad/s ) */
(PID.TID 0000.0001)                 7.292123516990375E-05
(PID.TID 0000.0001)     ;
(PID.TID 0000.0001) f0 =   /* Reference coriolis parameter ( 1/s ) */
(PID.TID 0000.0001)                 1.000000000000000E-04
(PID.TID 0000.0001)     ;
(PID.TID 0000.0001) beta =   /* Beta ( 1/(m.s) ) */
(PID.TID 0000.0001)                 9.999999999999999E-12
(PID.TID 0000.0001)     ;
(PID.TID 0000.0001) fPrime =   /* Second coriolis parameter ( 1/s ) */
(PID.TID 0000.0001)                 0.000000000000000E+00
(PID.TID 0000.0001)     ;
(PID.TID 0000.0001) rigidLid =   /* Rigid lid on/off flag */
(PID.TID 0000.0001)                   F
(PID.TID 0000.0001)     ;
(PID.TID 0000.0001) implicitFreeSurface =   /* Implicit free surface on/off flag */
(PID.TID 0000.0001)                   T
(PID.TID 0000.0001)     ;
(PID.TID 0000.0001) freeSurfFac =   /* Implicit free surface factor */
(PID.TID 0000.0001)                 1.000000000000000E+00
(PID.TID 0000.0001)     ;
(PID.TID 0000.0001) implicSurfPress =  /* Surface Pressure implicit factor (0-1)*/
(PID.TID 0000.0001)                 1.000000000000000E+00
(PID.TID 0000.0001)     ;
(PID.TID 0000.0001) implicDiv2Dflow =  /* Barot. Flow Div. implicit factor (0-1)*/
(PID.TID 0000.0001)                 1.000000000000000E+00
(PID.TID 0000.0001)     ;
(PID.TID 0000.0001) exactConserv =  /* Exact Volume Conservation on/off flag*/
(PID.TID 0000.0001)                   F
(PID.TID 0000.0001)     ;
(PID.TID 0000.0001) linFSConserveTr = /* Tracer correction for Lin Free Surface on/off flag*/
(PID.TID 0000.0001)                   F
(PID.TID 0000.0001)     ;
(PID.TID 0000.0001) uniformLin_PhiSurf = /* use uniform Bo_surf on/off flag*/
(PID.TID 0000.0001)                   T
(PID.TID 0000.0001)     ;
(PID.TID 0000.0001) hFacMin =   /* minimum partial cell factor (hFac) */
(PID.TID 0000.0001)                 5.000000000000000E-02
(PID.TID 0000.0001)     ;
(PID.TID 0000.0001) hFacMinDr = /* minimum partial cell thickness ( m) */
(PID.TID 0000.0001)                 5.000000000000000E-02
(PID.TID 0000.0001)     ;
(PID.TID 0000.0001) nonlinFreeSurf = /* Non-linear Free Surf. options (-1,0,1,2,3)*/
(PID.TID 0000.0001)                       0
(PID.TID 0000.0001)      -1,0= Off ; 1,2,3= On, 2=+rescale gU,gV, 3=+update cg2d solv.
(PID.TID 0000.0001)     ;
(PID.TID 0000.0001) hFacInf =   /* lower threshold for hFac (nonlinFreeSurf only)*/
(PID.TID 0000.0001)                 2.000000000000000E-01
(PID.TID 0000.0001)     ;
(PID.TID 0000.0001) hFacSup =   /* upper threshold for hFac (nonlinFreeSurf only)*/
(PID.TID 0000.0001)                 2.000000000000000E+00
(PID.TID 0000.0001)     ;
(PID.TID 0000.0001) select_rStar = /* r* Vertical coord. options (=0 r coord.; >0 uses r*)*/
(PID.TID 0000.0001)                       0
(PID.TID 0000.0001)     ;
(PID.TID 0000.0001) selectAddFluid = /* option for mass source/sink of fluid (=0: off) */
(PID.TID 0000.0001)                       0
(PID.TID 0000.0001)     ;
(PID.TID 0000.0001) useRealFreshWaterFlux = /* Real Fresh Water Flux on/off flag*/
(PID.TID 0000.0001)                   F
(PID.TID 0000.0001)     ;
(PID.TID 0000.0001) temp_EvPrRn = /* Temp. of Evap/Prec/R (UNSET=use local T)(oC)*/
(PID.TID 0000.0001)                 1.234567000000000E+05
(PID.TID 0000.0001)     ;
(PID.TID 0000.0001) salt_EvPrRn = /* Salin. of Evap/Prec/R (UNSET=use local S)(psu)*/
(PID.TID 0000.0001)                 0.000000000000000E+00
(PID.TID 0000.0001)     ;
(PID.TID 0000.0001) temp_addMass = /* Temp. of addMass array (UNSET=use local T)(oC)*/
(PID.TID 0000.0001)                 1.234567000000000E+05
(PID.TID 0000.0001)     ;
(PID.TID 0000.0001) salt_addMass = /* Salin. of addMass array (UNSET=use local S)(psu)*/
(PID.TID 0000.0001)                 0.000000000000000E+00
(PID.TID 0000.0001)     ;
(PID.TID 0000.0001) convertFW2Salt = /* convert F.W. Flux to Salt Flux (-1=use local S)(psu)*/
(PID.TID 0000.0001)                 3.500000000000000E+01
(PID.TID 0000.0001)     ;
(PID.TID 0000.0001) use3Dsolver = /* use 3-D pressure solver on/off flag */
(PID.TID 0000.0001)                   F
(PID.TID 0000.0001)     ;
(PID.TID 0000.0001) nonHydrostatic =  /* Non-Hydrostatic on/off flag */
(PID.TID 0000.0001)                   F
(PID.TID 0000.0001)     ;
(PID.TID 0000.0001) nh_Am2 = /* Non-Hydrostatic terms scaling factor */
(PID.TID 0000.0001)                 1.000000000000000E+00
(PID.TID 0000.0001)     ;
(PID.TID 0000.0001) implicitNHPress = /* Non-Hyd Pressure implicit factor (0-1)*/
(PID.TID 0000.0001)                 1.000000000000000E+00
(PID.TID 0000.0001)     ;
(PID.TID 0000.0001) selectNHfreeSurf = /* Non-Hyd (free-)Surface option */
(PID.TID 0000.0001)                       0
(PID.TID 0000.0001)     ;
(PID.TID 0000.0001) quasiHydrostatic = /* Quasi-Hydrostatic on/off flag */
(PID.TID 0000.0001)                   F
(PID.TID 0000.0001)     ;
(PID.TID 0000.0001) momStepping =  /* Momentum equation on/off flag */
(PID.TID 0000.0001)                   T
(PID.TID 0000.0001)     ;
(PID.TID 0000.0001) vectorInvariantMomentum= /* Vector-Invariant Momentum on/off */
(PID.TID 0000.0001)                   F
(PID.TID 0000.0001)     ;
(PID.TID 0000.0001) momAdvection =  /* Momentum advection on/off flag */
(PID.TID 0000.0001)                   T
(PID.TID 0000.0001)     ;
(PID.TID 0000.0001) momViscosity =  /* Momentum viscosity on/off flag */
(PID.TID 0000.0001)                   T
(PID.TID 0000.0001)     ;
(PID.TID 0000.0001) momImplVertAdv= /* Momentum implicit vert. advection on/off*/
(PID.TID 0000.0001)                   F
(PID.TID 0000.0001)     ;
(PID.TID 0000.0001) implicitViscosity = /* Implicit viscosity on/off flag */
(PID.TID 0000.0001)                   F
(PID.TID 0000.0001)     ;
(PID.TID 0000.0001) metricTerms =  /* metric-Terms on/off flag */
(PID.TID 0000.0001)                   T
(PID.TID 0000.0001)     ;
(PID.TID 0000.0001) useNHMTerms = /* Non-Hydrostatic Metric-Terms on/off */
(PID.TID 0000.0001)                   F
(PID.TID 0000.0001)     ;
(PID.TID 0000.0001) selectCoriMap = /* Coriolis Map options (0,1,2,3)*/
(PID.TID 0000.0001)                       2
(PID.TID 0000.0001)     0= f-Plane ; 1= Beta-Plane ; 2= Spherical ; 3= read from file
(PID.TID 0000.0001)     ;
(PID.TID 0000.0001) use3dCoriolis = /* 3-D Coriolis on/off flag */
(PID.TID 0000.0001)                   F
(PID.TID 0000.0001)     ;
(PID.TID 0000.0001) useCoriolis =  /* Coriolis on/off flag */
(PID.TID 0000.0001)                   T
(PID.TID 0000.0001)     ;
(PID.TID 0000.0001) useCDscheme =  /* CD scheme on/off flag */
(PID.TID 0000.0001)                   T
(PID.TID 0000.0001)     ;
(PID.TID 0000.0001) useEnergyConservingCoriolis= /* Flx-Form Coriolis scheme flag */
(PID.TID 0000.0001)                   F
(PID.TID 0000.0001)     ;
(PID.TID 0000.0001) useJamartWetPoints= /* Coriolis WetPoints method flag */
(PID.TID 0000.0001)                   F
(PID.TID 0000.0001)     ;
(PID.TID 0000.0001) useJamartMomAdv= /* V.I Non-linear terms Jamart flag */
(PID.TID 0000.0001)                   F
(PID.TID 0000.0001)     ;
(PID.TID 0000.0001) useAbsVorticity= /* V.I Works with f+zeta in Coriolis */
(PID.TID 0000.0001)                   F
(PID.TID 0000.0001)     ;
(PID.TID 0000.0001) selectVortScheme= /* V.I Scheme selector for Vorticity-Term */
(PID.TID 0000.0001)               123456789
(PID.TID 0000.0001)    = 0 : enstrophy (Shallow-Water Eq.) conserving scheme by Sadourny, JAS 75
(PID.TID 0000.0001)    = 1 : same as 0 with modified hFac
(PID.TID 0000.0001)    = 2 : energy conserving scheme (used by Sadourny in JAS 75 paper)
(PID.TID 0000.0001)    = 3 : energy (general) and enstrophy (2D, nonDiv.) conserving scheme
(PID.TID 0000.0001)          from Sadourny (Burridge & Haseler, ECMWF Rep.4, 1977)
(PID.TID 0000.0001)     ;
(PID.TID 0000.0001) upwindVorticity= /* V.I Upwind bias vorticity flag */
(PID.TID 0000.0001)                   F
(PID.TID 0000.0001)     ;
(PID.TID 0000.0001) highOrderVorticity= /* V.I High order vort. advect. flag */
(PID.TID 0000.0001)                   F
(PID.TID 0000.0001)     ;
(PID.TID 0000.0001) upwindShear= /* V.I Upwind vertical Shear advection flag */
(PID.TID 0000.0001)                   F
(PID.TID 0000.0001)     ;
(PID.TID 0000.0001) selectKEscheme= /* V.I Kinetic Energy scheme selector */
(PID.TID 0000.0001)                       0
(PID.TID 0000.0001)     ;
(PID.TID 0000.0001) momForcing =  /* Momentum forcing on/off flag */
(PID.TID 0000.0001)                   T
(PID.TID 0000.0001)     ;
(PID.TID 0000.0001) momPressureForcing =  /* Momentum pressure term on/off flag */
(PID.TID 0000.0001)                   T
(PID.TID 0000.0001)     ;
(PID.TID 0000.0001) implicitIntGravWave= /* Implicit Internal Gravity Wave flag */
(PID.TID 0000.0001)                   F
(PID.TID 0000.0001)     ;
(PID.TID 0000.0001) staggerTimeStep =   /* Stagger time stepping on/off flag */
(PID.TID 0000.0001)                   F
(PID.TID 0000.0001)     ;
(PID.TID 0000.0001) multiDimAdvection =   /* enable/disable Multi-Dim Advection */
(PID.TID 0000.0001)                   T
(PID.TID 0000.0001)     ;
(PID.TID 0000.0001) useMultiDimAdvec =   /* Multi-Dim Advection is/is-not used */
(PID.TID 0000.0001)                   F
(PID.TID 0000.0001)     ;
(PID.TID 0000.0001) implicitDiffusion = /* Implicit Diffusion on/off flag */
(PID.TID 0000.0001)                   T
(PID.TID 0000.0001)     ;
(PID.TID 0000.0001) tempStepping =  /* Temperature equation on/off flag */
(PID.TID 0000.0001)                   T
(PID.TID 0000.0001)     ;
(PID.TID 0000.0001) tempAdvection=  /* Temperature advection on/off flag */
(PID.TID 0000.0001)                   T
(PID.TID 0000.0001)     ;
(PID.TID 0000.0001) tempImplVertAdv = /* Temp. implicit vert. advection on/off */
(PID.TID 0000.0001)                   F
(PID.TID 0000.0001)     ;
(PID.TID 0000.0001) tempForcing  =  /* Temperature forcing on/off flag */
(PID.TID 0000.0001)                   T
(PID.TID 0000.0001)     ;
(PID.TID 0000.0001) tempIsActiveTr = /* Temp. is a dynamically Active Tracer */
(PID.TID 0000.0001)                   T
(PID.TID 0000.0001)     ;
(PID.TID 0000.0001) saltStepping =  /* Salinity equation on/off flag */
(PID.TID 0000.0001)                   T
(PID.TID 0000.0001)     ;
(PID.TID 0000.0001) saltAdvection=  /* Salinity advection on/off flag */
(PID.TID 0000.0001)                   T
(PID.TID 0000.0001)     ;
(PID.TID 0000.0001) saltImplVertAdv = /* Sali. implicit vert. advection on/off */
(PID.TID 0000.0001)                   F
(PID.TID 0000.0001)     ;
(PID.TID 0000.0001) saltForcing  =  /* Salinity forcing on/off flag */
(PID.TID 0000.0001)                   T
(PID.TID 0000.0001)     ;
(PID.TID 0000.0001) saltIsActiveTr = /* Salt  is a dynamically Active Tracer */
(PID.TID 0000.0001)                   T
(PID.TID 0000.0001)     ;
(PID.TID 0000.0001)  readBinaryPrec = /* Precision used for reading binary files */
(PID.TID 0000.0001)                      32
(PID.TID 0000.0001)     ;
(PID.TID 0000.0001) writeBinaryPrec = /* Precision used for writing binary files */
(PID.TID 0000.0001)                      32
(PID.TID 0000.0001)     ;
(PID.TID 0000.0001)  globalFiles = /* write "global" (=not per tile) files */
(PID.TID 0000.0001)                   F
(PID.TID 0000.0001)     ;
(PID.TID 0000.0001)  useSingleCpuIO = /* only master MPI process does I/O */
(PID.TID 0000.0001)                   F
(PID.TID 0000.0001)     ;
(PID.TID 0000.0001) /* debLev[*]  : level of debug & auxiliary message printing */
(PID.TID 0000.0001) debLevZero =  0 ; /* level of disabled aux. msg printing */
(PID.TID 0000.0001)    debLevA =  1 ; /* level of minimum  aux. msg printing */
(PID.TID 0000.0001)    debLevB =  2 ; /* level of low aux. print (report read-file opening)*/
(PID.TID 0000.0001)    debLevC =  3 ; /* level of moderate debug prt (most pkgs debug msg) */
(PID.TID 0000.0001)    debLevD =  4 ; /* level of enhanced debug prt (add DEBUG_STATS prt) */
(PID.TID 0000.0001)    debLevE =  5 ; /* level of extensive debug printing */
(PID.TID 0000.0001) debugLevel =  /* select debug printing level */
(PID.TID 0000.0001)                       2
(PID.TID 0000.0001)     ;
(PID.TID 0000.0001) //
(PID.TID 0000.0001) // Elliptic solver(s) paramters ( PARM02 in namelist )
(PID.TID 0000.0001) //
(PID.TID 0000.0001) cg2dMaxIters =   /* Upper limit on 2d con. grad iterations  */
(PID.TID 0000.0001)                     500
(PID.TID 0000.0001)     ;
(PID.TID 0000.0001) cg2dChkResFreq =   /* 2d con. grad convergence test frequency */
(PID.TID 0000.0001)                       1
(PID.TID 0000.0001)     ;
(PID.TID 0000.0001) cg2dTargetResidual =   /* 2d con. grad target residual  */
(PID.TID 0000.0001)                 1.000000000000000E-13
(PID.TID 0000.0001)     ;
(PID.TID 0000.0001) cg2dTargetResWunit =   /* CG2d target residual [W units] */
(PID.TID 0000.0001)                -1.000000000000000E+00
(PID.TID 0000.0001)     ;
(PID.TID 0000.0001) cg2dPreCondFreq =   /* Freq. for updating cg2d preconditioner */
(PID.TID 0000.0001)                       1
(PID.TID 0000.0001)     ;
(PID.TID 0000.0001) useSRCGSolver =  /* use single reduction CG solver(s) */
(PID.TID 0000.0001)                   F
(PID.TID 0000.0001)     ;
(PID.TID 0000.0001) printResidualFreq = /* Freq. for printing CG residual */
(PID.TID 0000.0001)                       0
(PID.TID 0000.0001)     ;
(PID.TID 0000.0001) //
(PID.TID 0000.0001) // Time stepping paramters ( PARM03 in namelist )
(PID.TID 0000.0001) //
(PID.TID 0000.0001) deltaTmom =   /* Momentum equation timestep ( s ) */
(PID.TID 0000.0001)                 1.200000000000000E+03
(PID.TID 0000.0001)     ;
(PID.TID 0000.0001) deltaTfreesurf = /* FreeSurface equation timestep ( s ) */
(PID.TID 0000.0001)                 4.320000000000000E+04
(PID.TID 0000.0001)     ;
(PID.TID 0000.0001) dTtracerLev =  /* Tracer equation timestep ( s ) */
(PID.TID 0000.0001)    15 @  4.320000000000000E+04              /* K =  1: 15 */
(PID.TID 0000.0001)     ;
(PID.TID 0000.0001) deltaTClock  =   /* Model clock timestep ( s ) */
(PID.TID 0000.0001)                 4.320000000000000E+04
(PID.TID 0000.0001)     ;
(PID.TID 0000.0001) cAdjFreq =   /* Convective adjustment interval ( s ) */
(PID.TID 0000.0001)                 0.000000000000000E+00
(PID.TID 0000.0001)     ;
(PID.TID 0000.0001) momForcingOutAB = /* =1: take Momentum Forcing out of Adams-Bash. stepping */
(PID.TID 0000.0001)                       0
(PID.TID 0000.0001)     ;
(PID.TID 0000.0001) tracForcingOutAB = /* =1: take T,S,pTr Forcing out of Adams-Bash. stepping */
(PID.TID 0000.0001)                       0
(PID.TID 0000.0001)     ;
(PID.TID 0000.0001) momDissip_In_AB = /* put Dissipation Tendency in Adams-Bash. stepping */
(PID.TID 0000.0001)                   T
(PID.TID 0000.0001)     ;
(PID.TID 0000.0001) doAB_onGtGs = /* apply AB on Tendencies (rather than on T,S)*/
(PID.TID 0000.0001)                   T
(PID.TID 0000.0001)     ;
(PID.TID 0000.0001) abEps =   /* Adams-Bashforth-2 stabilizing weight */
(PID.TID 0000.0001)                 1.000000000000000E-01
(PID.TID 0000.0001)     ;
(PID.TID 0000.0001) tauCD =   /* CD coupling time-scale ( s ) */
(PID.TID 0000.0001)                 3.214280000000000E+05
(PID.TID 0000.0001)     ;
(PID.TID 0000.0001) rCD =   /* Normalised CD coupling parameter */
(PID.TID 0000.0001)                 9.962666600296178E-01
(PID.TID 0000.0001)     ;
(PID.TID 0000.0001) epsAB_CD = /* AB-2 stabilizing weight for CD-scheme*/
(PID.TID 0000.0001)                 1.000000000000000E-01
(PID.TID 0000.0001)     ;
(PID.TID 0000.0001) pickupStrictlyMatch= /* stop if pickup do not strictly match */
(PID.TID 0000.0001)                   T
(PID.TID 0000.0001)     ;
(PID.TID 0000.0001) nIter0   =   /* Run starting timestep number */
(PID.TID 0000.0001)                       0
(PID.TID 0000.0001)     ;
(PID.TID 0000.0001) nTimeSteps = /* Number of timesteps */
(PID.TID 0000.0001)                      20
(PID.TID 0000.0001)     ;
(PID.TID 0000.0001) nEndIter =   /* Run ending timestep number */
(PID.TID 0000.0001)                      20
(PID.TID 0000.0001)     ;
(PID.TID 0000.0001) baseTime =   /* Model base time ( s ) */
(PID.TID 0000.0001)                 0.000000000000000E+00
(PID.TID 0000.0001)     ;
(PID.TID 0000.0001) startTime =  /* Run start time ( s ) */
(PID.TID 0000.0001)                 0.000000000000000E+00
(PID.TID 0000.0001)     ;
(PID.TID 0000.0001) endTime  =   /* Integration ending time ( s ) */
(PID.TID 0000.0001)                 8.640000000000000E+05
(PID.TID 0000.0001)     ;
(PID.TID 0000.0001) pChkPtFreq = /* Permanent restart/pickup file interval ( s ) */
(PID.TID 0000.0001)                 3.110400000000000E+08
(PID.TID 0000.0001)     ;
(PID.TID 0000.0001) chkPtFreq  = /* Rolling restart/pickup file interval ( s ) */
(PID.TID 0000.0001)                 0.000000000000000E+00
(PID.TID 0000.0001)     ;
(PID.TID 0000.0001) pickup_write_mdsio =   /* Model IO flag. */
(PID.TID 0000.0001)                   T
(PID.TID 0000.0001)     ;
(PID.TID 0000.0001) pickup_read_mdsio =   /* Model IO flag. */
(PID.TID 0000.0001)                   T
(PID.TID 0000.0001)     ;
(PID.TID 0000.0001) pickup_write_immed =   /* Model IO flag. */
(PID.TID 0000.0001)                   F
(PID.TID 0000.0001)     ;
(PID.TID 0000.0001) writePickupAtEnd =   /* Model IO flag. */
(PID.TID 0000.0001)                   T
(PID.TID 0000.0001)     ;
(PID.TID 0000.0001) dumpFreq =   /* Model state write out interval ( s ). */
(PID.TID 0000.0001)                 8.640000000000000E+05
(PID.TID 0000.0001)     ;
(PID.TID 0000.0001) dumpInitAndLast= /* write out Initial & Last iter. model state */
(PID.TID 0000.0001)                   T
(PID.TID 0000.0001)     ;
(PID.TID 0000.0001) snapshot_mdsio =   /* Model IO flag. */
(PID.TID 0000.0001)                   T
(PID.TID 0000.0001)     ;
(PID.TID 0000.0001) monitorFreq =   /* Monitor output interval ( s ). */
(PID.TID 0000.0001)                 1.000000000000000E+00
(PID.TID 0000.0001)     ;
(PID.TID 0000.0001) monitorSelect = /* select group of variables to monitor */
(PID.TID 0000.0001)                       3
(PID.TID 0000.0001)     ;
(PID.TID 0000.0001) monitor_stdio =   /* Model IO flag. */
(PID.TID 0000.0001)                   T
(PID.TID 0000.0001)     ;
(PID.TID 0000.0001) externForcingPeriod =   /* forcing period (s) */
(PID.TID 0000.0001)                 0.000000000000000E+00
(PID.TID 0000.0001)     ;
(PID.TID 0000.0001) externForcingCycle =   /* period of the cyle (s). */
(PID.TID 0000.0001)                 0.000000000000000E+00
(PID.TID 0000.0001)     ;
(PID.TID 0000.0001) tauThetaClimRelax =   /* relaxation time scale (s) */
(PID.TID 0000.0001)                 0.000000000000000E+00
(PID.TID 0000.0001)     ;
(PID.TID 0000.0001) tauSaltClimRelax =   /* relaxation time scale (s) */
(PID.TID 0000.0001)                 1.555200000000000E+07
(PID.TID 0000.0001)     ;
(PID.TID 0000.0001) latBandClimRelax =   /* max. Lat. where relaxation */
(PID.TID 0000.0001)                 1.800000000000000E+02
(PID.TID 0000.0001)     ;
(PID.TID 0000.0001) //
(PID.TID 0000.0001) // Gridding paramters ( PARM04 in namelist )
(PID.TID 0000.0001) //
(PID.TID 0000.0001) usingCartesianGrid = /* Cartesian coordinates flag ( True/False ) */
(PID.TID 0000.0001)                   F
(PID.TID 0000.0001)     ;
(PID.TID 0000.0001) usingCylindricalGrid = /* Cylindrical coordinates flag ( True/False ) */
(PID.TID 0000.0001)                   F
(PID.TID 0000.0001)     ;
(PID.TID 0000.0001) usingSphericalPolarGrid = /* Spherical coordinates flag ( True/False ) */
(PID.TID 0000.0001)                   T
(PID.TID 0000.0001)     ;
(PID.TID 0000.0001) usingCurvilinearGrid = /* Curvilinear coordinates flag ( True/False ) */
(PID.TID 0000.0001)                   F
(PID.TID 0000.0001)     ;
(PID.TID 0000.0001) selectSigmaCoord = /* Hybrid-Sigma Vert. Coordinate option */
(PID.TID 0000.0001)                       0
(PID.TID 0000.0001)     ;
(PID.TID 0000.0001) Ro_SeaLevel = /* r(1) ( units of r ==  m ) */
(PID.TID 0000.0001)                 0.000000000000000E+00
(PID.TID 0000.0001)     ;
(PID.TID 0000.0001) rSigmaBnd = /* r/sigma transition ( units of r ==  m ) */
(PID.TID 0000.0001)                 1.234567000000000E+05
(PID.TID 0000.0001)     ;
(PID.TID 0000.0001) rkSign =   /* index orientation relative to vertical coordinate */
(PID.TID 0000.0001)                -1.000000000000000E+00
(PID.TID 0000.0001)     ;
(PID.TID 0000.0001) gravitySign = /* gravity orientation relative to vertical coordinate */
(PID.TID 0000.0001)                -1.000000000000000E+00
(PID.TID 0000.0001)     ;
(PID.TID 0000.0001) mass2rUnit = /* convert mass per unit area [kg/m2] to r-units [m] */
(PID.TID 0000.0001)                 9.661835748792270E-04
(PID.TID 0000.0001)     ;
(PID.TID 0000.0001) rUnit2mass = /* convert r-units [m] to mass per unit area [kg/m2] */
(PID.TID 0000.0001)                 1.035000000000000E+03
(PID.TID 0000.0001)     ;
(PID.TID 0000.0001) drC =   /* C spacing ( units of r ) */
(PID.TID 0000.0001)                 2.500000000000000E+01,      /* K =  1 */
(PID.TID 0000.0001)                 6.000000000000000E+01,      /* K =  2 */
(PID.TID 0000.0001)                 8.500000000000000E+01,      /* K =  3 */
(PID.TID 0000.0001)                 1.200000000000000E+02,      /* K =  4 */
(PID.TID 0000.0001)                 1.650000000000000E+02,      /* K =  5 */
(PID.TID 0000.0001)                 2.150000000000000E+02,      /* K =  6 */
(PID.TID 0000.0001)                 2.650000000000000E+02,      /* K =  7 */
(PID.TID 0000.0001)                 3.150000000000000E+02,      /* K =  8 */
(PID.TID 0000.0001)                 3.650000000000000E+02,      /* K =  9 */
(PID.TID 0000.0001)                 4.150000000000000E+02,      /* K = 10 */
(PID.TID 0000.0001)                 4.650000000000000E+02,      /* K = 11 */
(PID.TID 0000.0001)                 5.150000000000000E+02,      /* K = 12 */
(PID.TID 0000.0001)                 5.650000000000000E+02,      /* K = 13 */
(PID.TID 0000.0001)                 6.150000000000000E+02,      /* K = 14 */
(PID.TID 0000.0001)                 6.650000000000000E+02       /* K = 15 */
(PID.TID 0000.0001)     ;
(PID.TID 0000.0001) drF =   /* W spacing ( units of r ) */
(PID.TID 0000.0001)                 5.000000000000000E+01,      /* K =  1 */
(PID.TID 0000.0001)                 7.000000000000000E+01,      /* K =  2 */
(PID.TID 0000.0001)                 1.000000000000000E+02,      /* K =  3 */
(PID.TID 0000.0001)                 1.400000000000000E+02,      /* K =  4 */
(PID.TID 0000.0001)                 1.900000000000000E+02,      /* K =  5 */
(PID.TID 0000.0001)                 2.400000000000000E+02,      /* K =  6 */
(PID.TID 0000.0001)                 2.900000000000000E+02,      /* K =  7 */
(PID.TID 0000.0001)                 3.400000000000000E+02,      /* K =  8 */
(PID.TID 0000.0001)                 3.900000000000000E+02,      /* K =  9 */
(PID.TID 0000.0001)                 4.400000000000000E+02,      /* K = 10 */
(PID.TID 0000.0001)                 4.900000000000000E+02,      /* K = 11 */
(PID.TID 0000.0001)                 5.400000000000000E+02,      /* K = 12 */
(PID.TID 0000.0001)                 5.900000000000000E+02,      /* K = 13 */
(PID.TID 0000.0001)                 6.400000000000000E+02,      /* K = 14 */
(PID.TID 0000.0001)                 6.900000000000000E+02       /* K = 15 */
(PID.TID 0000.0001)     ;
(PID.TID 0000.0001) delX = /* U spacing ( m - cartesian, degrees - spherical ) */
(PID.TID 0000.0001)    90 @  4.000000000000000E+00              /* I =  1: 90 */
(PID.TID 0000.0001)     ;
(PID.TID 0000.0001) delY = /* V spacing ( m - cartesian, degrees - spherical ) */
(PID.TID 0000.0001)    40 @  4.000000000000000E+00              /* J =  1: 40 */
(PID.TID 0000.0001)     ;
(PID.TID 0000.0001) xgOrigin = /* X-axis origin of West  edge (cartesian: m, lat-lon: deg.) */
(PID.TID 0000.0001)                 0.000000000000000E+00
(PID.TID 0000.0001)     ;
(PID.TID 0000.0001) ygOrigin = /* Y-axis origin of South edge (cartesian: m, lat-lon: deg.) */
(PID.TID 0000.0001)                -8.000000000000000E+01
(PID.TID 0000.0001)     ;
(PID.TID 0000.0001) rSphere =  /* Radius ( ignored - cartesian, m - spherical ) */
(PID.TID 0000.0001)                 6.370000000000000E+06
(PID.TID 0000.0001)     ;
(PID.TID 0000.0001) deepAtmosphere = /* Deep/Shallow Atmosphere flag (True/False) */
(PID.TID 0000.0001)                   F
(PID.TID 0000.0001)     ;
(PID.TID 0000.0001) xC =  /* xC(:,1,:,1) : P-point X coord ( deg. or m if cartesian) */
(PID.TID 0000.0001)                 2.000000000000000E+00,      /* I =  1 */
(PID.TID 0000.0001)                 6.000000000000000E+00,      /* I =  2 */
(PID.TID 0000.0001)                 1.000000000000000E+01,      /* I =  3 */
(PID.TID 0000.0001)      . . .
(PID.TID 0000.0001)                 8.200000000000000E+01,      /* I = 21 */
(PID.TID 0000.0001)                 8.600000000000000E+01,      /* I = 22 */
(PID.TID 0000.0001)                 9.000000000000000E+01,      /* I = 23 */
(PID.TID 0000.0001)                 9.400000000000000E+01,      /* I = 24 */
(PID.TID 0000.0001)                 9.800000000000000E+01,      /* I = 25 */
(PID.TID 0000.0001)                 1.020000000000000E+02,      /* I = 26 */
(PID.TID 0000.0001)      . . .
(PID.TID 0000.0001)                 1.700000000000000E+02,      /* I = 43 */
(PID.TID 0000.0001)                 1.740000000000000E+02,      /* I = 44 */
(PID.TID 0000.0001)                 1.780000000000000E+02,      /* I = 45 */
(PID.TID 0000.0001)                 1.820000000000000E+02,      /* I = 46 */
(PID.TID 0000.0001)                 1.860000000000000E+02,      /* I = 47 */
(PID.TID 0000.0001)                 1.900000000000000E+02,      /* I = 48 */
(PID.TID 0000.0001)      . . .
(PID.TID 0000.0001)                 2.580000000000000E+02,      /* I = 65 */
(PID.TID 0000.0001)                 2.620000000000000E+02,      /* I = 66 */
(PID.TID 0000.0001)                 2.660000000000000E+02,      /* I = 67 */
(PID.TID 0000.0001)                 2.700000000000000E+02,      /* I = 68 */
(PID.TID 0000.0001)                 2.740000000000000E+02,      /* I = 69 */
(PID.TID 0000.0001)                 2.780000000000000E+02,      /* I = 70 */
(PID.TID 0000.0001)      . . .
(PID.TID 0000.0001)                 3.500000000000000E+02,      /* I = 88 */
(PID.TID 0000.0001)                 3.540000000000000E+02,      /* I = 89 */
(PID.TID 0000.0001)                 3.580000000000000E+02       /* I = 90 */
(PID.TID 0000.0001)     ;
(PID.TID 0000.0001) yC =  /* yC(1,:,1,:) : P-point Y coord ( deg. or m if cartesian) */
(PID.TID 0000.0001)                -7.800000000000000E+01,      /* J =  1 */
(PID.TID 0000.0001)                -7.400000000000000E+01,      /* J =  2 */
(PID.TID 0000.0001)                -7.000000000000000E+01,      /* J =  3 */
(PID.TID 0000.0001)                -6.600000000000000E+01,      /* J =  4 */
(PID.TID 0000.0001)                -6.200000000000000E+01,      /* J =  5 */
(PID.TID 0000.0001)                -5.800000000000000E+01,      /* J =  6 */
(PID.TID 0000.0001)                -5.400000000000000E+01,      /* J =  7 */
(PID.TID 0000.0001)                -5.000000000000000E+01,      /* J =  8 */
(PID.TID 0000.0001)                -4.600000000000000E+01,      /* J =  9 */
(PID.TID 0000.0001)                -4.200000000000000E+01,      /* J = 10 */
(PID.TID 0000.0001)                -3.800000000000000E+01,      /* J = 11 */
(PID.TID 0000.0001)                -3.400000000000000E+01,      /* J = 12 */
(PID.TID 0000.0001)                -3.000000000000000E+01,      /* J = 13 */
(PID.TID 0000.0001)                -2.600000000000000E+01,      /* J = 14 */
(PID.TID 0000.0001)                -2.200000000000000E+01,      /* J = 15 */
(PID.TID 0000.0001)                -1.800000000000000E+01,      /* J = 16 */
(PID.TID 0000.0001)                -1.400000000000000E+01,      /* J = 17 */
(PID.TID 0000.0001)                -1.000000000000000E+01,      /* J = 18 */
(PID.TID 0000.0001)                -6.000000000000000E+00,      /* J = 19 */
(PID.TID 0000.0001)                -2.000000000000000E+00,      /* J = 20 */
(PID.TID 0000.0001)                 2.000000000000000E+00,      /* J = 21 */
(PID.TID 0000.0001)                 6.000000000000000E+00,      /* J = 22 */
(PID.TID 0000.0001)                 1.000000000000000E+01,      /* J = 23 */
(PID.TID 0000.0001)                 1.400000000000000E+01,      /* J = 24 */
(PID.TID 0000.0001)                 1.800000000000000E+01,      /* J = 25 */
(PID.TID 0000.0001)                 2.200000000000000E+01,      /* J = 26 */
(PID.TID 0000.0001)                 2.600000000000000E+01,      /* J = 27 */
(PID.TID 0000.0001)                 3.000000000000000E+01,      /* J = 28 */
(PID.TID 0000.0001)                 3.400000000000000E+01,      /* J = 29 */
(PID.TID 0000.0001)                 3.800000000000000E+01,      /* J = 30 */
(PID.TID 0000.0001)                 4.200000000000000E+01,      /* J = 31 */
(PID.TID 0000.0001)                 4.600000000000000E+01,      /* J = 32 */
(PID.TID 0000.0001)                 5.000000000000000E+01,      /* J = 33 */
(PID.TID 0000.0001)                 5.400000000000000E+01,      /* J = 34 */
(PID.TID 0000.0001)                 5.800000000000000E+01,      /* J = 35 */
(PID.TID 0000.0001)                 6.200000000000000E+01,      /* J = 36 */
(PID.TID 0000.0001)                 6.600000000000000E+01,      /* J = 37 */
(PID.TID 0000.0001)                 7.000000000000000E+01,      /* J = 38 */
(PID.TID 0000.0001)                 7.400000000000000E+01,      /* J = 39 */
(PID.TID 0000.0001)                 7.800000000000000E+01       /* J = 40 */
(PID.TID 0000.0001)     ;
(PID.TID 0000.0001) rcoord = /* P-point R coordinate (  units of r ) */
(PID.TID 0000.0001)                -2.500000000000000E+01,      /* K =  1 */
(PID.TID 0000.0001)                -8.500000000000000E+01,      /* K =  2 */
(PID.TID 0000.0001)                -1.700000000000000E+02,      /* K =  3 */
(PID.TID 0000.0001)                -2.900000000000000E+02,      /* K =  4 */
(PID.TID 0000.0001)                -4.550000000000000E+02,      /* K =  5 */
(PID.TID 0000.0001)                -6.700000000000000E+02,      /* K =  6 */
(PID.TID 0000.0001)                -9.350000000000000E+02,      /* K =  7 */
(PID.TID 0000.0001)                -1.250000000000000E+03,      /* K =  8 */
(PID.TID 0000.0001)                -1.615000000000000E+03,      /* K =  9 */
(PID.TID 0000.0001)                -2.030000000000000E+03,      /* K = 10 */
(PID.TID 0000.0001)                -2.495000000000000E+03,      /* K = 11 */
(PID.TID 0000.0001)                -3.010000000000000E+03,      /* K = 12 */
(PID.TID 0000.0001)                -3.575000000000000E+03,      /* K = 13 */
(PID.TID 0000.0001)                -4.190000000000000E+03,      /* K = 14 */
(PID.TID 0000.0001)                -4.855000000000000E+03       /* K = 15 */
(PID.TID 0000.0001)     ;
(PID.TID 0000.0001) rF =   /* W-Interf. R coordinate (  units of r ) */
(PID.TID 0000.0001)                 0.000000000000000E+00,      /* K =  1 */
(PID.TID 0000.0001)                -5.000000000000000E+01,      /* K =  2 */
(PID.TID 0000.0001)                -1.200000000000000E+02,      /* K =  3 */
(PID.TID 0000.0001)                -2.200000000000000E+02,      /* K =  4 */
(PID.TID 0000.0001)                -3.600000000000000E+02,      /* K =  5 */
(PID.TID 0000.0001)                -5.500000000000000E+02,      /* K =  6 */
(PID.TID 0000.0001)                -7.900000000000000E+02,      /* K =  7 */
(PID.TID 0000.0001)                -1.080000000000000E+03,      /* K =  8 */
(PID.TID 0000.0001)                -1.420000000000000E+03,      /* K =  9 */
(PID.TID 0000.0001)                -1.810000000000000E+03,      /* K = 10 */
(PID.TID 0000.0001)                -2.250000000000000E+03,      /* K = 11 */
(PID.TID 0000.0001)                -2.740000000000000E+03,      /* K = 12 */
(PID.TID 0000.0001)                -3.280000000000000E+03,      /* K = 13 */
(PID.TID 0000.0001)                -3.870000000000000E+03,      /* K = 14 */
(PID.TID 0000.0001)                -4.510000000000000E+03,      /* K = 15 */
(PID.TID 0000.0001)                -5.200000000000000E+03       /* K = 16 */
(PID.TID 0000.0001)     ;
(PID.TID 0000.0001) deepFacC = /* deep-model grid factor @ cell-Center (-) */
(PID.TID 0000.0001)    15 @  1.000000000000000E+00              /* K =  1: 15 */
(PID.TID 0000.0001)     ;
(PID.TID 0000.0001) deepFacF = /* deep-model grid factor @ W-Interface (-) */
(PID.TID 0000.0001)    16 @  1.000000000000000E+00              /* K =  1: 16 */
(PID.TID 0000.0001)     ;
(PID.TID 0000.0001) rVel2wUnit = /* convert units: rVel -> wSpeed (=1 if z-coord)*/
(PID.TID 0000.0001)    16 @  1.000000000000000E+00              /* K =  1: 16 */
(PID.TID 0000.0001)     ;
(PID.TID 0000.0001) wUnit2rVel = /* convert units: wSpeed -> rVel (=1 if z-coord)*/
(PID.TID 0000.0001)    16 @  1.000000000000000E+00              /* K =  1: 16 */
(PID.TID 0000.0001)     ;
(PID.TID 0000.0001) dBdrRef = /* Vertical grad. of reference buoyancy [(m/s/r)^2] */
(PID.TID 0000.0001)    15 @  0.000000000000000E+00              /* K =  1: 15 */
(PID.TID 0000.0001)     ;
(PID.TID 0000.0001) rotateGrid = /* use rotated grid ( True/False ) */
(PID.TID 0000.0001)                   F
(PID.TID 0000.0001)     ;
(PID.TID 0000.0001) phiEuler = /* Euler angle, rotation about original z-coordinate [rad] */
(PID.TID 0000.0001)                 0.000000000000000E+00
(PID.TID 0000.0001)     ;
(PID.TID 0000.0001) thetaEuler = /* Euler angle, rotation about new x-coordinate [rad] */
(PID.TID 0000.0001)                 0.000000000000000E+00
(PID.TID 0000.0001)     ;
(PID.TID 0000.0001) psiEuler = /* Euler angle, rotation about new z-coordinate [rad] */
(PID.TID 0000.0001)                 0.000000000000000E+00
(PID.TID 0000.0001)     ;
(PID.TID 0000.0001) dxF =  /* dxF(:,1,:,1) ( units: m ) */
(PID.TID 0000.0001)    90 @  9.246038586187513E+04              /* I =  1: 90 */
(PID.TID 0000.0001)     ;
(PID.TID 0000.0001) dxF =  /* dxF(1,:,1,:) ( units: m ) */
(PID.TID 0000.0001)                 9.246038586187513E+04,      /* J =  1 */
(PID.TID 0000.0001)                 1.225786591246834E+05,      /* J =  2 */
(PID.TID 0000.0001)                 1.520997414818001E+05,      /* J =  3 */
(PID.TID 0000.0001)                 1.808798091874300E+05,      /* J =  4 */
(PID.TID 0000.0001)                 2.087786486446736E+05,      /* J =  5 */
(PID.TID 0000.0001)                 2.356603395120765E+05,      /* J =  6 */
(PID.TID 0000.0001)                 2.613939168938713E+05,      /* J =  7 */
(PID.TID 0000.0001)                 2.858540093877838E+05,      /* J =  8 */
(PID.TID 0000.0001)                 3.089214498819034E+05,      /* J =  9 */
(PID.TID 0000.0001)                 3.304838561248741E+05,      /* J = 10 */
(PID.TID 0000.0001)                 3.504361782409254E+05,      /* J = 11 */
(PID.TID 0000.0001)                 3.686812105223082E+05,      /* J = 12 */
(PID.TID 0000.0001)                 3.851300650057323E+05,      /* J = 13 */
(PID.TID 0000.0001)                 3.997026045255871E+05,      /* J = 14 */
(PID.TID 0000.0001)                 4.123278331341585E+05,      /* J = 15 */
(PID.TID 0000.0001)                 4.229442419867491E+05,      /* J = 16 */
(PID.TID 0000.0001)                 4.315001090065870E+05,      /* J = 17 */
(PID.TID 0000.0001)                 4.379537508695838E+05,      /* J = 18 */
(PID.TID 0000.0001)                 4.422737260813012E+05,      /* J = 19 */
(PID.TID 0000.0001)     2 @  4.444389881567502E+05,             /* J = 20: 21 */
(PID.TID 0000.0001)                 4.422737260813012E+05,      /* J = 22 */
(PID.TID 0000.0001)                 4.379537508695838E+05,      /* J = 23 */
(PID.TID 0000.0001)                 4.315001090065870E+05,      /* J = 24 */
(PID.TID 0000.0001)                 4.229442419867491E+05,      /* J = 25 */
(PID.TID 0000.0001)                 4.123278331341585E+05,      /* J = 26 */
(PID.TID 0000.0001)                 3.997026045255871E+05,      /* J = 27 */
(PID.TID 0000.0001)                 3.851300650057323E+05,      /* J = 28 */
(PID.TID 0000.0001)                 3.686812105223082E+05,      /* J = 29 */
(PID.TID 0000.0001)                 3.504361782409254E+05,      /* J = 30 */
(PID.TID 0000.0001)                 3.304838561248741E+05,      /* J = 31 */
(PID.TID 0000.0001)                 3.089214498819034E+05,      /* J = 32 */
(PID.TID 0000.0001)                 2.858540093877838E+05,      /* J = 33 */
(PID.TID 0000.0001)                 2.613939168938713E+05,      /* J = 34 */
(PID.TID 0000.0001)                 2.356603395120765E+05,      /* J = 35 */
(PID.TID 0000.0001)                 2.087786486446736E+05,      /* J = 36 */
(PID.TID 0000.0001)                 1.808798091874300E+05,      /* J = 37 */
(PID.TID 0000.0001)                 1.520997414818001E+05,      /* J = 38 */
(PID.TID 0000.0001)                 1.225786591246834E+05,      /* J = 39 */
(PID.TID 0000.0001)                 9.246038586187513E+04       /* J = 40 */
(PID.TID 0000.0001)     ;
(PID.TID 0000.0001) dyF =  /* dyF(:,1,:,1) ( units: m ) */
(PID.TID 0000.0001)    90 @  4.447098934081552E+05              /* I =  1: 90 */
(PID.TID 0000.0001)     ;
(PID.TID 0000.0001) dyF =  /* dyF(1,:,1,:) ( units: m ) */
(PID.TID 0000.0001)    40 @  4.447098934081552E+05              /* J =  1: 40 */
(PID.TID 0000.0001)     ;
(PID.TID 0000.0001) dxG =  /* dxG(:,1,:,1) ( units: m ) */
(PID.TID 0000.0001)    90 @  7.722306258078101E+04              /* I =  1: 90 */
(PID.TID 0000.0001)     ;
(PID.TID 0000.0001) dxG =  /* dxG(1,:,1,:) ( units: m ) */
(PID.TID 0000.0001)                 7.722306258078101E+04,      /* J =  1 */
(PID.TID 0000.0001)                 1.075850604052271E+05,      /* J =  2 */
(PID.TID 0000.0001)                 1.374229146297914E+05,      /* J =  3 */
(PID.TID 0000.0001)                 1.665912582279823E+05,      /* J =  4 */
(PID.TID 0000.0001)                 1.949479859617814E+05,      /* J =  5 */
(PID.TID 0000.0001)                 2.223549467040777E+05,      /* J =  6 */
(PID.TID 0000.0001)                 2.486786164970726E+05,      /* J =  7 */
(PID.TID 0000.0001)                 2.737907490675810E+05,      /* J =  8 */
(PID.TID 0000.0001)                 2.975690006299821E+05,      /* J =  9 */
(PID.TID 0000.0001)                 3.198975259328452E+05,      /* J = 10 */
(PID.TID 0000.0001)                 3.406675426453503E+05,      /* J = 11 */
(PID.TID 0000.0001)                 3.597778613338690E+05,      /* J = 12 */
(PID.TID 0000.0001)                 3.771353784467131E+05,      /* J = 13 */
(PID.TID 0000.0001)                 3.926555299052806E+05,      /* J = 14 */
(PID.TID 0000.0001)                 4.062627030917454E+05,      /* J = 15 */
(PID.TID 0000.0001)                 4.178906052261313E+05,      /* J = 16 */
(PID.TID 0000.0001)                 4.274825863380723E+05,      /* J = 17 */
(PID.TID 0000.0001)                 4.349919152597734E+05,      /* J = 18 */
(PID.TID 0000.0001)                 4.403820072955634E+05,      /* J = 19 */
(PID.TID 0000.0001)                 4.436266024588540E+05,      /* J = 20 */
(PID.TID 0000.0001)                 4.447098934081552E+05,      /* J = 21 */
(PID.TID 0000.0001)                 4.436266024588540E+05,      /* J = 22 */
(PID.TID 0000.0001)                 4.403820072955634E+05,      /* J = 23 */
(PID.TID 0000.0001)                 4.349919152597734E+05,      /* J = 24 */
(PID.TID 0000.0001)                 4.274825863380723E+05,      /* J = 25 */
(PID.TID 0000.0001)                 4.178906052261313E+05,      /* J = 26 */
(PID.TID 0000.0001)                 4.062627030917454E+05,      /* J = 27 */
(PID.TID 0000.0001)                 3.926555299052806E+05,      /* J = 28 */
(PID.TID 0000.0001)                 3.771353784467131E+05,      /* J = 29 */
(PID.TID 0000.0001)                 3.597778613338690E+05,      /* J = 30 */
(PID.TID 0000.0001)                 3.406675426453503E+05,      /* J = 31 */
(PID.TID 0000.0001)                 3.198975259328452E+05,      /* J = 32 */
(PID.TID 0000.0001)                 2.975690006299821E+05,      /* J = 33 */
(PID.TID 0000.0001)                 2.737907490675810E+05,      /* J = 34 */
(PID.TID 0000.0001)                 2.486786164970726E+05,      /* J = 35 */
(PID.TID 0000.0001)                 2.223549467040777E+05,      /* J = 36 */
(PID.TID 0000.0001)                 1.949479859617814E+05,      /* J = 37 */
(PID.TID 0000.0001)                 1.665912582279823E+05,      /* J = 38 */
(PID.TID 0000.0001)                 1.374229146297914E+05,      /* J = 39 */
(PID.TID 0000.0001)                 1.075850604052271E+05       /* J = 40 */
(PID.TID 0000.0001)     ;
(PID.TID 0000.0001) dyG =  /* dyG(:,1,:,1) ( units: m ) */
(PID.TID 0000.0001)    90 @  4.447098934081552E+05              /* I =  1: 90 */
(PID.TID 0000.0001)     ;
(PID.TID 0000.0001) dyG =  /* dyG(1,:,1,:) ( units: m ) */
(PID.TID 0000.0001)    40 @  4.447098934081552E+05              /* J =  1: 40 */
(PID.TID 0000.0001)     ;
(PID.TID 0000.0001) dxC =  /* dxC(:,1,:,1) ( units: m ) */
(PID.TID 0000.0001)    90 @  9.246038586187513E+04              /* I =  1: 90 */
(PID.TID 0000.0001)     ;
(PID.TID 0000.0001) dxC =  /* dxC(1,:,1,:) ( units: m ) */
(PID.TID 0000.0001)                 9.246038586187513E+04,      /* J =  1 */
(PID.TID 0000.0001)                 1.225786591246834E+05,      /* J =  2 */
(PID.TID 0000.0001)                 1.520997414818001E+05,      /* J =  3 */
(PID.TID 0000.0001)                 1.808798091874300E+05,      /* J =  4 */
(PID.TID 0000.0001)                 2.087786486446736E+05,      /* J =  5 */
(PID.TID 0000.0001)                 2.356603395120765E+05,      /* J =  6 */
(PID.TID 0000.0001)                 2.613939168938713E+05,      /* J =  7 */
(PID.TID 0000.0001)                 2.858540093877838E+05,      /* J =  8 */
(PID.TID 0000.0001)                 3.089214498819034E+05,      /* J =  9 */
(PID.TID 0000.0001)                 3.304838561248741E+05,      /* J = 10 */
(PID.TID 0000.0001)                 3.504361782409254E+05,      /* J = 11 */
(PID.TID 0000.0001)                 3.686812105223082E+05,      /* J = 12 */
(PID.TID 0000.0001)                 3.851300650057323E+05,      /* J = 13 */
(PID.TID 0000.0001)                 3.997026045255871E+05,      /* J = 14 */
(PID.TID 0000.0001)                 4.123278331341585E+05,      /* J = 15 */
(PID.TID 0000.0001)                 4.229442419867491E+05,      /* J = 16 */
(PID.TID 0000.0001)                 4.315001090065870E+05,      /* J = 17 */
(PID.TID 0000.0001)                 4.379537508695838E+05,      /* J = 18 */
(PID.TID 0000.0001)                 4.422737260813012E+05,      /* J = 19 */
(PID.TID 0000.0001)     2 @  4.444389881567502E+05,             /* J = 20: 21 */
(PID.TID 0000.0001)                 4.422737260813012E+05,      /* J = 22 */
(PID.TID 0000.0001)                 4.379537508695838E+05,      /* J = 23 */
(PID.TID 0000.0001)                 4.315001090065870E+05,      /* J = 24 */
(PID.TID 0000.0001)                 4.229442419867491E+05,      /* J = 25 */
(PID.TID 0000.0001)                 4.123278331341585E+05,      /* J = 26 */
(PID.TID 0000.0001)                 3.997026045255871E+05,      /* J = 27 */
(PID.TID 0000.0001)                 3.851300650057323E+05,      /* J = 28 */
(PID.TID 0000.0001)                 3.686812105223082E+05,      /* J = 29 */
(PID.TID 0000.0001)                 3.504361782409254E+05,      /* J = 30 */
(PID.TID 0000.0001)                 3.304838561248741E+05,      /* J = 31 */
(PID.TID 0000.0001)                 3.089214498819034E+05,      /* J = 32 */
(PID.TID 0000.0001)                 2.858540093877838E+05,      /* J = 33 */
(PID.TID 0000.0001)                 2.613939168938713E+05,      /* J = 34 */
(PID.TID 0000.0001)                 2.356603395120765E+05,      /* J = 35 */
(PID.TID 0000.0001)                 2.087786486446736E+05,      /* J = 36 */
(PID.TID 0000.0001)                 1.808798091874300E+05,      /* J = 37 */
(PID.TID 0000.0001)                 1.520997414818001E+05,      /* J = 38 */
(PID.TID 0000.0001)                 1.225786591246834E+05,      /* J = 39 */
(PID.TID 0000.0001)                 9.246038586187513E+04       /* J = 40 */
(PID.TID 0000.0001)     ;
(PID.TID 0000.0001) dyC =  /* dyC(:,1,:,1) ( units: m ) */
(PID.TID 0000.0001)    90 @  4.447098934081552E+05              /* I =  1: 90 */
(PID.TID 0000.0001)     ;
(PID.TID 0000.0001) dyC =  /* dyC(1,:,1,:) ( units: m ) */
(PID.TID 0000.0001)    40 @  4.447098934081552E+05              /* J =  1: 40 */
(PID.TID 0000.0001)     ;
(PID.TID 0000.0001) dxV =  /* dxV(:,1,:,1) ( units: m ) */
(PID.TID 0000.0001)    90 @  7.722306258078101E+04              /* I =  1: 90 */
(PID.TID 0000.0001)     ;
(PID.TID 0000.0001) dxV =  /* dxV(1,:,1,:) ( units: m ) */
(PID.TID 0000.0001)                 7.722306258078101E+04,      /* J =  1 */
(PID.TID 0000.0001)                 1.075850604052271E+05,      /* J =  2 */
(PID.TID 0000.0001)                 1.374229146297914E+05,      /* J =  3 */
(PID.TID 0000.0001)                 1.665912582279823E+05,      /* J =  4 */
(PID.TID 0000.0001)                 1.949479859617814E+05,      /* J =  5 */
(PID.TID 0000.0001)                 2.223549467040777E+05,      /* J =  6 */
(PID.TID 0000.0001)                 2.486786164970726E+05,      /* J =  7 */
(PID.TID 0000.0001)                 2.737907490675810E+05,      /* J =  8 */
(PID.TID 0000.0001)                 2.975690006299821E+05,      /* J =  9 */
(PID.TID 0000.0001)                 3.198975259328452E+05,      /* J = 10 */
(PID.TID 0000.0001)                 3.406675426453503E+05,      /* J = 11 */
(PID.TID 0000.0001)                 3.597778613338690E+05,      /* J = 12 */
(PID.TID 0000.0001)                 3.771353784467131E+05,      /* J = 13 */
(PID.TID 0000.0001)                 3.926555299052806E+05,      /* J = 14 */
(PID.TID 0000.0001)                 4.062627030917454E+05,      /* J = 15 */
(PID.TID 0000.0001)                 4.178906052261313E+05,      /* J = 16 */
(PID.TID 0000.0001)                 4.274825863380723E+05,      /* J = 17 */
(PID.TID 0000.0001)                 4.349919152597734E+05,      /* J = 18 */
(PID.TID 0000.0001)                 4.403820072955634E+05,      /* J = 19 */
(PID.TID 0000.0001)                 4.436266024588540E+05,      /* J = 20 */
(PID.TID 0000.0001)                 4.447098934081552E+05,      /* J = 21 */
(PID.TID 0000.0001)                 4.436266024588540E+05,      /* J = 22 */
(PID.TID 0000.0001)                 4.403820072955634E+05,      /* J = 23 */
(PID.TID 0000.0001)                 4.349919152597734E+05,      /* J = 24 */
(PID.TID 0000.0001)                 4.274825863380723E+05,      /* J = 25 */
(PID.TID 0000.0001)                 4.178906052261313E+05,      /* J = 26 */
(PID.TID 0000.0001)                 4.062627030917454E+05,      /* J = 27 */
(PID.TID 0000.0001)                 3.926555299052806E+05,      /* J = 28 */
(PID.TID 0000.0001)                 3.771353784467131E+05,      /* J = 29 */
(PID.TID 0000.0001)                 3.597778613338690E+05,      /* J = 30 */
(PID.TID 0000.0001)                 3.406675426453503E+05,      /* J = 31 */
(PID.TID 0000.0001)                 3.198975259328452E+05,      /* J = 32 */
(PID.TID 0000.0001)                 2.975690006299821E+05,      /* J = 33 */
(PID.TID 0000.0001)                 2.737907490675810E+05,      /* J = 34 */
(PID.TID 0000.0001)                 2.486786164970726E+05,      /* J = 35 */
(PID.TID 0000.0001)                 2.223549467040777E+05,      /* J = 36 */
(PID.TID 0000.0001)                 1.949479859617814E+05,      /* J = 37 */
(PID.TID 0000.0001)                 1.665912582279823E+05,      /* J = 38 */
(PID.TID 0000.0001)                 1.374229146297914E+05,      /* J = 39 */
(PID.TID 0000.0001)                 1.075850604052271E+05       /* J = 40 */
(PID.TID 0000.0001)     ;
(PID.TID 0000.0001) dyU =  /* dyU(:,1,:,1) ( units: m ) */
(PID.TID 0000.0001)    90 @  4.447098934081552E+05              /* I =  1: 90 */
(PID.TID 0000.0001)     ;
(PID.TID 0000.0001) dyU =  /* dyU(1,:,1,:) ( units: m ) */
(PID.TID 0000.0001)    40 @  4.447098934081552E+05              /* J =  1: 40 */
(PID.TID 0000.0001)     ;
(PID.TID 0000.0001) rA  =  /* rA (:,1,:,1) ( units: m^2 ) */
(PID.TID 0000.0001)    90 @  4.110969866729047E+10              /* I =  1: 90 */
(PID.TID 0000.0001)     ;
(PID.TID 0000.0001) rA  =  /* rA (1,:,1,:) ( units: m^2 ) */
(PID.TID 0000.0001)                 4.110969866729047E+10,      /* J =  1 */
(PID.TID 0000.0001)                 5.450087291636665E+10,      /* J =  2 */
(PID.TID 0000.0001)                 6.762652439100235E+10,      /* J =  3 */
(PID.TID 0000.0001)                 8.042270623659998E+10,      /* J =  4 */
(PID.TID 0000.0001)                 9.282707674147523E+10,      /* J =  5 */
(PID.TID 0000.0001)                 1.047792030594103E+11,      /* J =  6 */
(PID.TID 0000.0001)                 1.162208556324093E+11,      /* J =  7 */
(PID.TID 0000.0001)                 1.270962918792468E+11,      /* J =  8 */
(PID.TID 0000.0001)                 1.373525277677229E+11,      /* J =  9 */
(PID.TID 0000.0001)                 1.469395959475426E+11,      /* J = 10 */
(PID.TID 0000.0001)                 1.558107891862220E+11,      /* J = 11 */
(PID.TID 0000.0001)                 1.639228879220326E+11,      /* J = 12 */
(PID.TID 0000.0001)                 1.712363708253573E+11,      /* J = 13 */
(PID.TID 0000.0001)                 1.777156073426415E+11,      /* J = 14 */
(PID.TID 0000.0001)                 1.833290312848623E+11,      /* J = 15 */
(PID.TID 0000.0001)                 1.880492946148330E+11,      /* J = 16 */
(PID.TID 0000.0001)                 1.918534006840893E+11,      /* J = 17 */
(PID.TID 0000.0001)                 1.947228162702492E+11,      /* J = 18 */
(PID.TID 0000.0001)                 1.966435618690094E+11,      /* J = 19 */
(PID.TID 0000.0001)     2 @  1.976062798008856E+11,             /* J = 20: 21 */
(PID.TID 0000.0001)                 1.966435618690094E+11,      /* J = 22 */
(PID.TID 0000.0001)                 1.947228162702492E+11,      /* J = 23 */
(PID.TID 0000.0001)                 1.918534006840893E+11,      /* J = 24 */
(PID.TID 0000.0001)                 1.880492946148330E+11,      /* J = 25 */
(PID.TID 0000.0001)                 1.833290312848623E+11,      /* J = 26 */
(PID.TID 0000.0001)                 1.777156073426415E+11,      /* J = 27 */
(PID.TID 0000.0001)                 1.712363708253573E+11,      /* J = 28 */
(PID.TID 0000.0001)                 1.639228879220326E+11,      /* J = 29 */
(PID.TID 0000.0001)                 1.558107891862220E+11,      /* J = 30 */
(PID.TID 0000.0001)                 1.469395959475426E+11,      /* J = 31 */
(PID.TID 0000.0001)                 1.373525277677229E+11,      /* J = 32 */
(PID.TID 0000.0001)                 1.270962918792468E+11,      /* J = 33 */
(PID.TID 0000.0001)                 1.162208556324093E+11,      /* J = 34 */
(PID.TID 0000.0001)                 1.047792030594103E+11,      /* J = 35 */
(PID.TID 0000.0001)                 9.282707674147523E+10,      /* J = 36 */
(PID.TID 0000.0001)                 8.042270623659998E+10,      /* J = 37 */
(PID.TID 0000.0001)                 6.762652439100235E+10,      /* J = 38 */
(PID.TID 0000.0001)                 5.450087291636665E+10,      /* J = 39 */
(PID.TID 0000.0001)                 4.110969866729047E+10       /* J = 40 */
(PID.TID 0000.0001)     ;
(PID.TID 0000.0001) rAw =  /* rAw(:,1,:,1) ( units: m^2 ) */
(PID.TID 0000.0001)    90 @  4.110969866729047E+10              /* I =  1: 90 */
(PID.TID 0000.0001)     ;
(PID.TID 0000.0001) rAw =  /* rAw(1,:,1,:) ( units: m^2 ) */
(PID.TID 0000.0001)                 4.110969866729047E+10,      /* J =  1 */
(PID.TID 0000.0001)                 5.450087291636665E+10,      /* J =  2 */
(PID.TID 0000.0001)                 6.762652439100235E+10,      /* J =  3 */
(PID.TID 0000.0001)                 8.042270623659998E+10,      /* J =  4 */
(PID.TID 0000.0001)                 9.282707674147523E+10,      /* J =  5 */
(PID.TID 0000.0001)                 1.047792030594103E+11,      /* J =  6 */
(PID.TID 0000.0001)                 1.162208556324093E+11,      /* J =  7 */
(PID.TID 0000.0001)                 1.270962918792468E+11,      /* J =  8 */
(PID.TID 0000.0001)                 1.373525277677229E+11,      /* J =  9 */
(PID.TID 0000.0001)                 1.469395959475426E+11,      /* J = 10 */
(PID.TID 0000.0001)                 1.558107891862220E+11,      /* J = 11 */
(PID.TID 0000.0001)                 1.639228879220326E+11,      /* J = 12 */
(PID.TID 0000.0001)                 1.712363708253573E+11,      /* J = 13 */
(PID.TID 0000.0001)                 1.777156073426415E+11,      /* J = 14 */
(PID.TID 0000.0001)                 1.833290312848623E+11,      /* J = 15 */
(PID.TID 0000.0001)                 1.880492946148330E+11,      /* J = 16 */
(PID.TID 0000.0001)                 1.918534006840893E+11,      /* J = 17 */
(PID.TID 0000.0001)                 1.947228162702492E+11,      /* J = 18 */
(PID.TID 0000.0001)                 1.966435618690094E+11,      /* J = 19 */
(PID.TID 0000.0001)     2 @  1.976062798008856E+11,             /* J = 20: 21 */
(PID.TID 0000.0001)                 1.966435618690094E+11,      /* J = 22 */
(PID.TID 0000.0001)                 1.947228162702492E+11,      /* J = 23 */
(PID.TID 0000.0001)                 1.918534006840893E+11,      /* J = 24 */
(PID.TID 0000.0001)                 1.880492946148330E+11,      /* J = 25 */
(PID.TID 0000.0001)                 1.833290312848623E+11,      /* J = 26 */
(PID.TID 0000.0001)                 1.777156073426415E+11,      /* J = 27 */
(PID.TID 0000.0001)                 1.712363708253573E+11,      /* J = 28 */
(PID.TID 0000.0001)                 1.639228879220326E+11,      /* J = 29 */
(PID.TID 0000.0001)                 1.558107891862220E+11,      /* J = 30 */
(PID.TID 0000.0001)                 1.469395959475426E+11,      /* J = 31 */
(PID.TID 0000.0001)                 1.373525277677229E+11,      /* J = 32 */
(PID.TID 0000.0001)                 1.270962918792468E+11,      /* J = 33 */
(PID.TID 0000.0001)                 1.162208556324093E+11,      /* J = 34 */
(PID.TID 0000.0001)                 1.047792030594103E+11,      /* J = 35 */
(PID.TID 0000.0001)                 9.282707674147523E+10,      /* J = 36 */
(PID.TID 0000.0001)                 8.042270623659998E+10,      /* J = 37 */
(PID.TID 0000.0001)                 6.762652439100235E+10,      /* J = 38 */
(PID.TID 0000.0001)                 5.450087291636665E+10,      /* J = 39 */
(PID.TID 0000.0001)                 4.110969866729047E+10       /* J = 40 */
(PID.TID 0000.0001)     ;
(PID.TID 0000.0001) rAs =  /* rAs(:,1,:,1) ( units: m^2 ) */
(PID.TID 0000.0001)    90 @  3.433488626798250E+10              /* I =  1: 90 */
(PID.TID 0000.0001)     ;
(PID.TID 0000.0001) rAs =  /* rAs(1,:,1,:) ( units: m^2 ) */
(PID.TID 0000.0001)                 3.433488626798250E+10,      /* J =  1 */
(PID.TID 0000.0001)                 4.783442523123625E+10,      /* J =  2 */
(PID.TID 0000.0001)                 6.110091968306414E+10,      /* J =  3 */
(PID.TID 0000.0001)                 7.406973659603818E+10,      /* J =  4 */
(PID.TID 0000.0001)                 8.667769319778079E+10,      /* J =  5 */
(PID.TID 0000.0001)                 9.886336479107463E+10,      /* J =  6 */
(PID.TID 0000.0001)                 1.105673840088173E+11,      /* J =  7 */
(PID.TID 0000.0001)                 1.217327300458638E+11,      /* J =  8 */
(PID.TID 0000.0001)                 1.323050064586578E+11,      /* J =  9 */
(PID.TID 0000.0001)                 1.422327061792377E+11,      /* J = 10 */
(PID.TID 0000.0001)                 1.514674624524945E+11,      /* J = 11 */
(PID.TID 0000.0001)                 1.599642844741385E+11,      /* J = 12 */
(PID.TID 0000.0001)                 1.676817765813788E+11,      /* J = 13 */
(PID.TID 0000.0001)                 1.745823399284268E+11,      /* J = 14 */
(PID.TID 0000.0001)                 1.806323556642996E+11,      /* J = 15 */
(PID.TID 0000.0001)                 1.858023487204767E+11,      /* J = 16 */
(PID.TID 0000.0001)                 1.900671314104743E+11,      /* J = 17 */
(PID.TID 0000.0001)                 1.934059261417216E+11,      /* J = 18 */
(PID.TID 0000.0001)                 1.958024666419019E+11,      /* J = 19 */
(PID.TID 0000.0001)                 1.972450772065981E+11,      /* J = 20 */
(PID.TID 0000.0001)                 1.977267295821495E+11,      /* J = 21 */
(PID.TID 0000.0001)                 1.972450772065981E+11,      /* J = 22 */
(PID.TID 0000.0001)                 1.958024666419019E+11,      /* J = 23 */
(PID.TID 0000.0001)                 1.934059261417216E+11,      /* J = 24 */
(PID.TID 0000.0001)                 1.900671314104743E+11,      /* J = 25 */
(PID.TID 0000.0001)                 1.858023487204767E+11,      /* J = 26 */
(PID.TID 0000.0001)                 1.806323556642996E+11,      /* J = 27 */
(PID.TID 0000.0001)                 1.745823399284268E+11,      /* J = 28 */
(PID.TID 0000.0001)                 1.676817765813788E+11,      /* J = 29 */
(PID.TID 0000.0001)                 1.599642844741385E+11,      /* J = 30 */
(PID.TID 0000.0001)                 1.514674624524945E+11,      /* J = 31 */
(PID.TID 0000.0001)                 1.422327061792377E+11,      /* J = 32 */
(PID.TID 0000.0001)                 1.323050064586578E+11,      /* J = 33 */
(PID.TID 0000.0001)                 1.217327300458638E+11,      /* J = 34 */
(PID.TID 0000.0001)                 1.105673840088173E+11,      /* J = 35 */
(PID.TID 0000.0001)                 9.886336479107463E+10,      /* J = 36 */
(PID.TID 0000.0001)                 8.667769319778079E+10,      /* J = 37 */
(PID.TID 0000.0001)                 7.406973659603818E+10,      /* J = 38 */
(PID.TID 0000.0001)                 6.110091968306414E+10,      /* J = 39 */
(PID.TID 0000.0001)                 4.783442523123625E+10       /* J = 40 */
(PID.TID 0000.0001)     ;
(PID.TID 0000.0001) globalArea = /* Integrated horizontal Area (m^2) */
(PID.TID 0000.0001)                 3.335490855875293E+14
(PID.TID 0000.0001)     ;
(PID.TID 0000.0001) // =======================================================
(PID.TID 0000.0001) // End of Model config. summary
(PID.TID 0000.0001) // =======================================================
(PID.TID 0000.0001) 
(PID.TID 0000.0001) == Packages configuration : Check & print summary ==
(PID.TID 0000.0001) 
(PID.TID 0000.0001) GMREDI_CHECK: #define GMREDI
(PID.TID 0000.0001) GM_AdvForm =     /* if FALSE => use SkewFlux Form */
(PID.TID 0000.0001)                   F
(PID.TID 0000.0001)     ;
(PID.TID 0000.0001) GM_InMomAsStress = /* if TRUE => apply as Eddy Stress */
(PID.TID 0000.0001)                   F
(PID.TID 0000.0001)     ;
(PID.TID 0000.0001) GM_AdvSeparate = /* Calc Bolus & Euler Adv. separately */
(PID.TID 0000.0001)                   F
(PID.TID 0000.0001)     ;
(PID.TID 0000.0001) GM_ExtraDiag =   /* Tensor Extra Diag (line 1&2) non 0 */
(PID.TID 0000.0001)                   F
(PID.TID 0000.0001)     ;
(PID.TID 0000.0001) GM_isopycK =    /* Background Isopyc. Diffusivity [m^2/s] */
(PID.TID 0000.0001)                 1.000000000000000E+03
(PID.TID 0000.0001)     ;
(PID.TID 0000.0001) GM_skewflx*K =  /* Background GM_SkewFlx Diffusivity [m^2/s] */
(PID.TID 0000.0001)                 1.000000000000000E+03
(PID.TID 0000.0001)     ;
(PID.TID 0000.0001) GM_advec*K =    /* Backg. GM-Advec(=Bolus) Diffusivity [m^2/s]*/
(PID.TID 0000.0001)                 0.000000000000000E+00
(PID.TID 0000.0001)     ;
(PID.TID 0000.0001) GM_Kmin_horiz = /* Minimum Horizontal Diffusivity [m^2/s] */
(PID.TID 0000.0001)                 5.000000000000000E+01
(PID.TID 0000.0001)     ;
(PID.TID 0000.0001) GM_Visbeck_alpha = /* Visbeck alpha coeff. [-] */
(PID.TID 0000.0001)                 0.000000000000000E+00
(PID.TID 0000.0001)     ;
(PID.TID 0000.0001) GM_Small_Number =  /* epsilon used in slope calc */
(PID.TID 0000.0001)                 9.999999999999999E-21
(PID.TID 0000.0001)     ;
(PID.TID 0000.0001) GM_slopeSqCutoff = /* Slope^2 cut-off value */
(PID.TID 0000.0001)                 1.000000000000000E+48
(PID.TID 0000.0001)     ;
(PID.TID 0000.0001) GM_taper_scheme =  /* Type of Tapering/Clipping scheme */
(PID.TID 0000.0001)               'gkw91                                   '
(PID.TID 0000.0001)     ;
(PID.TID 0000.0001) GM_maxSlope =  /* Maximum Slope (Tapering/Clipping) */
(PID.TID 0000.0001)                 1.000000000000000E-02
(PID.TID 0000.0001)     ;
(PID.TID 0000.0001) GM_facTrL2dz = /* Minimum Trans.Layer Thick. (factor of dz) */
(PID.TID 0000.0001)                 1.000000000000000E+00
(PID.TID 0000.0001)     ;
(PID.TID 0000.0001) GM_facTrL2ML = /* Max.Trans.Layer Thick. (factor of MxL Depth)*/
(PID.TID 0000.0001)                 5.000000000000000E+00
(PID.TID 0000.0001)     ;
(PID.TID 0000.0001) GM_maxTransLay = /* Maximum Transition Layer Thickness [m] */
(PID.TID 0000.0001)                 5.000000000000000E+02
(PID.TID 0000.0001)     ;
(PID.TID 0000.0001) GM_UseBVP = /* if TRUE => use bvp a la Ferrari et al. (2010) */
(PID.TID 0000.0001)                   F
(PID.TID 0000.0001)     ;
(PID.TID 0000.0001) GM_BVP_ModeNumber = /* Vertical mode number for BVP wave speed */
(PID.TID 0000.0001)                       1
(PID.TID 0000.0001)     ;
(PID.TID 0000.0001) GM_BVP_cMin = /* Minimum wave speed for BVP [m/s] */
(PID.TID 0000.0001)                 1.000000000000000E-01
(PID.TID 0000.0001)     ;
(PID.TID 0000.0001) GM_useSubMeso = /* if TRUE => use Sub-Meso param. (B.Fox-Kemper) */
(PID.TID 0000.0001)                   F
(PID.TID 0000.0001)     ;
(PID.TID 0000.0001) subMeso_Ceff = /* efficiency coeff. of Mixed-Layer Eddies [-] */
(PID.TID 0000.0001)                 7.000000000000001E-02
(PID.TID 0000.0001)     ;
(PID.TID 0000.0001) subMeso_invTau = /* inverse of Sub-Meso mixing time-scale [/s] */
(PID.TID 0000.0001)                 2.000000000000000E-06
(PID.TID 0000.0001)     ;
(PID.TID 0000.0001) subMeso_LfMin = /* minimum length-scale "Lf" [m] */
(PID.TID 0000.0001)                 1.000000000000000E+03
(PID.TID 0000.0001)     ;
(PID.TID 0000.0001) subMeso_Lmax = /* maximum grid-scale length [m] */
(PID.TID 0000.0001)                 1.100000000000000E+05
(PID.TID 0000.0001)     ;
(PID.TID 0000.0001) GAD_CHECK: #define ALLOW_GENERIC_ADVDIFF
(PID.TID 0000.0001) // =======================================================
(PID.TID 0000.0001) // CONFIG_CHECK : Normal End
(PID.TID 0000.0001) // =======================================================
(PID.TID 0000.0001) 
(PID.TID 0000.0001)  MDS_READ_FIELD: opening global file: Lev_clim_theta.bin
(PID.TID 0000.0001)  MDS_READ_FIELD: opening global file: Lev_clim_salt.bin
(PID.TID 0000.0001) Start initial hydrostatic pressure computation
(PID.TID 0000.0001) Pressure is predetermined for buoyancyRelation OCEANIC
(PID.TID 0000.0001) 
(PID.TID 0000.0001)  MDS_READ_FIELD: opening global file: Taux.bin
(PID.TID 0000.0001)  MDS_READ_FIELD: opening global file: Tauy.bin
(PID.TID 0000.0001)  MDS_READ_FIELD: opening global file: SSS.bin
(PID.TID 0000.0001)  MDS_READ_FIELD: opening global file: SSS.bin
(PID.TID 0000.0001)  MDS_READ_FIELD: opening global file: Runoff.bin
(PID.TID 0000.0001)  MDS_READ_FIELD: opening global file: Taux.bin
(PID.TID 0000.0001)  MDS_READ_FIELD: opening global file: Tauy.bin
 SH   5.2213892178558012        23.296536408581801     
 NH   10.477982531836687        25.564398561832434     
 SH   5.2213892178558012        23.296536408581801     
 NH   10.477982531836687        25.564398561832434     
   5.2213953213714035        23.296542512097403     
   10.477988635352290        25.564404665348036     
(PID.TID 0000.0001) // =======================================================
(PID.TID 0000.0001) // Model current state
(PID.TID 0000.0001) // =======================================================
(PID.TID 0000.0001) 
(PID.TID 0000.0001) // =======================================================
(PID.TID 0000.0001) // Begin MONITOR dynamic field statistics
(PID.TID 0000.0001) // =======================================================
(PID.TID 0000.0001) %MON time_tsnumber                =                     0
(PID.TID 0000.0001) %MON time_secondsf                =   0.0000000000000E+00
(PID.TID 0000.0001) %MON dynstat_eta_max              =   0.0000000000000E+00
(PID.TID 0000.0001) %MON dynstat_eta_min              =   0.0000000000000E+00
(PID.TID 0000.0001) %MON dynstat_eta_mean             =   0.0000000000000E+00
(PID.TID 0000.0001) %MON dynstat_eta_sd               =   0.0000000000000E+00
(PID.TID 0000.0001) %MON dynstat_eta_del2             =   0.0000000000000E+00
(PID.TID 0000.0001) %MON dynstat_uvel_max             =   0.0000000000000E+00
(PID.TID 0000.0001) %MON dynstat_uvel_min             =   0.0000000000000E+00
(PID.TID 0000.0001) %MON dynstat_uvel_mean            =   0.0000000000000E+00
(PID.TID 0000.0001) %MON dynstat_uvel_sd              =   0.0000000000000E+00
(PID.TID 0000.0001) %MON dynstat_uvel_del2            =   0.0000000000000E+00
(PID.TID 0000.0001) %MON dynstat_vvel_max             =   0.0000000000000E+00
(PID.TID 0000.0001) %MON dynstat_vvel_min             =   0.0000000000000E+00
(PID.TID 0000.0001) %MON dynstat_vvel_mean            =   0.0000000000000E+00
(PID.TID 0000.0001) %MON dynstat_vvel_sd              =   0.0000000000000E+00
(PID.TID 0000.0001) %MON dynstat_vvel_del2            =   0.0000000000000E+00
(PID.TID 0000.0001) %MON dynstat_wvel_max             =  -0.0000000000000E+00
(PID.TID 0000.0001) %MON dynstat_wvel_min             =  -0.0000000000000E+00
(PID.TID 0000.0001) %MON dynstat_wvel_mean            =   0.0000000000000E+00
(PID.TID 0000.0001) %MON dynstat_wvel_sd              =   0.0000000000000E+00
(PID.TID 0000.0001) %MON dynstat_wvel_del2            =   0.0000000000000E+00
(PID.TID 0000.0001) %MON dynstat_theta_max            =   2.9329580307007E+01
(PID.TID 0000.0001) %MON dynstat_theta_min            =  -1.8507585525513E+00
(PID.TID 0000.0001) %MON dynstat_theta_mean           =   3.4385862740247E+00
(PID.TID 0000.0001) %MON dynstat_theta_sd             =   4.1126810597649E+00
(PID.TID 0000.0001) %MON dynstat_theta_del2           =   5.2167403232000E-03
(PID.TID 0000.0001) %MON dynstat_salt_max             =   3.7439460754395E+01
(PID.TID 0000.0001) %MON dynstat_salt_min             =   3.1028352737427E+01
(PID.TID 0000.0001) %MON dynstat_salt_mean            =   3.4715046474651E+01
(PID.TID 0000.0001) %MON dynstat_salt_sd              =   2.7634376761930E-01
(PID.TID 0000.0001) %MON dynstat_salt_del2            =   8.6201567836572E-04
(PID.TID 0000.0001) %MON forcing_qnet_max             =   1.3199679941600E+02
(PID.TID 0000.0001) %MON forcing_qnet_min             =  -3.5049627091214E+01
(PID.TID 0000.0001) %MON forcing_qnet_mean            =  -6.8984510202484E-01
(PID.TID 0000.0001) %MON forcing_qnet_sd              =   2.2692302782162E+01
(PID.TID 0000.0001) %MON forcing_qnet_del2            =   1.1257799519057E-01
(PID.TID 0000.0001) %MON forcing_qsw_max              =   0.0000000000000E+00
(PID.TID 0000.0001) %MON forcing_qsw_min              =   0.0000000000000E+00
(PID.TID 0000.0001) %MON forcing_qsw_mean             =   0.0000000000000E+00
(PID.TID 0000.0001) %MON forcing_qsw_sd               =   0.0000000000000E+00
(PID.TID 0000.0001) %MON forcing_qsw_del2             =   0.0000000000000E+00
(PID.TID 0000.0001) %MON forcing_empmr_max            =   3.7600374110707E-05
(PID.TID 0000.0001) %MON forcing_empmr_min            =  -1.7559553618097E-05
(PID.TID 0000.0001) %MON forcing_empmr_mean           =   1.5643147523703E-06
(PID.TID 0000.0001) %MON forcing_empmr_sd             =   1.1909008207927E-05
(PID.TID 0000.0001) %MON forcing_empmr_del2           =   7.3093651236608E-08
(PID.TID 0000.0001) %MON forcing_fu_max               =   1.6004334390163E-01
(PID.TID 0000.0001) %MON forcing_fu_min               =  -1.0329221189022E-01
(PID.TID 0000.0001) %MON forcing_fu_mean              =   4.1280488583042E-03
(PID.TID 0000.0001) %MON forcing_fu_sd                =   5.5800359441598E-02
(PID.TID 0000.0001) %MON forcing_fu_del2              =   3.2370368543277E-04
(PID.TID 0000.0001) %MON forcing_fv_max               =   8.4633164107800E-02
(PID.TID 0000.0001) %MON forcing_fv_min               =  -7.0490099489689E-02
(PID.TID 0000.0001) %MON forcing_fv_mean              =   2.8803575798275E-03
(PID.TID 0000.0001) %MON forcing_fv_sd                =   2.2193297771215E-02
(PID.TID 0000.0001) %MON forcing_fv_del2              =   2.1170835219132E-04
(PID.TID 0000.0001) %MON advcfl_uvel_max              =   0.0000000000000E+00
(PID.TID 0000.0001) %MON advcfl_vvel_max              =   0.0000000000000E+00
(PID.TID 0000.0001) %MON advcfl_wvel_max              =   0.0000000000000E+00
(PID.TID 0000.0001) %MON advcfl_W_hf_max              =   0.0000000000000E+00
(PID.TID 0000.0001) %MON pe_b_mean                    =   0.0000000000000E+00
(PID.TID 0000.0001) %MON ke_max                       =   0.0000000000000E+00
(PID.TID 0000.0001) %MON ke_mean                      =   0.0000000000000E+00
(PID.TID 0000.0001) %MON ke_vol                       =   1.4101703507225E+18
(PID.TID 0000.0001) %MON vort_r_min                   =   0.0000000000000E+00
(PID.TID 0000.0001) %MON vort_r_max                   =   0.0000000000000E+00
(PID.TID 0000.0001) %MON vort_a_mean                  =  -1.9976608796705E-05
(PID.TID 0000.0001) %MON vort_a_sd                    =   7.3718720794773E-05
(PID.TID 0000.0001) %MON vort_p_mean                  =  -2.3730263022063E-05
(PID.TID 0000.0001) %MON vort_p_sd                    =   1.0369776513329E-04
(PID.TID 0000.0001) %MON surfExpan_theta_mean         =   0.0000000000000E+00
(PID.TID 0000.0001) %MON surfExpan_salt_mean          =   0.0000000000000E+00
(PID.TID 0000.0001) // =======================================================
(PID.TID 0000.0001) // End MONITOR dynamic field statistics
(PID.TID 0000.0001) // =======================================================
 SH   5.2213892178558012        23.296536408581801     
 NH   10.477982531836687        25.564398561832434     
 SH   5.2213892178558012        23.296536408581801     
 NH   10.477982531836687        25.564398561832434     
(PID.TID 0000.0001) SOLVE_FOR_PRESSURE: putPmEinXvector =    F
 cg2d: Sum(rhs),rhsMax =  -3.24046345312468E-15  7.56835956534411E+00
(PID.TID 0000.0001)                    cg2d_init_res =    2.96842763780421E+00
(PID.TID 0000.0001)                       cg2d_iters =    95
(PID.TID 0000.0001)                         cg2d_res =    9.68515664755991E-14
(PID.TID 0000.0001) // =======================================================
(PID.TID 0000.0001) // Begin MONITOR dynamic field statistics
(PID.TID 0000.0001) // =======================================================
(PID.TID 0000.0001) %MON time_tsnumber                =                     1
(PID.TID 0000.0001) %MON time_secondsf                =   4.3200000000000E+04
(PID.TID 0000.0001) %MON dynstat_eta_max              =   1.1734654972328E+00
(PID.TID 0000.0001) %MON dynstat_eta_min              =  -6.1083455986299E-01
(PID.TID 0000.0001) %MON dynstat_eta_mean             =  -2.9277924665266E-16
(PID.TID 0000.0001) %MON dynstat_eta_sd               =   1.8086538112799E-01
(PID.TID 0000.0001) %MON dynstat_eta_del2             =   2.5405042422902E-03
(PID.TID 0000.0001) %MON dynstat_uvel_max             =   2.9638354449143E-02
(PID.TID 0000.0001) %MON dynstat_uvel_min             =  -5.2399461270080E-02
(PID.TID 0000.0001) %MON dynstat_uvel_mean            =  -3.0856308327881E-04
(PID.TID 0000.0001) %MON dynstat_uvel_sd              =   1.0693688309095E-03
(PID.TID 0000.0001) %MON dynstat_uvel_del2            =   1.3729176223124E-05
(PID.TID 0000.0001) %MON dynstat_vvel_max             =   4.5969616304124E-02
(PID.TID 0000.0001) %MON dynstat_vvel_min             =  -7.1169967576867E-02
(PID.TID 0000.0001) %MON dynstat_vvel_mean            =   6.8138676927834E-04
(PID.TID 0000.0001) %MON dynstat_vvel_sd              =   2.2168508759033E-03
(PID.TID 0000.0001) %MON dynstat_vvel_del2            =   1.6160101042295E-05
(PID.TID 0000.0001) %MON dynstat_wvel_max             =   2.0713710361838E-04
(PID.TID 0000.0001) %MON dynstat_wvel_min             =  -1.2808451778962E-04
(PID.TID 0000.0001) %MON dynstat_wvel_mean            =   1.0796143655154E-22
(PID.TID 0000.0001) %MON dynstat_wvel_sd              =   8.1931557832248E-06
(PID.TID 0000.0001) %MON dynstat_wvel_del2            =   1.0181853719726E-07
(PID.TID 0000.0001) %MON dynstat_theta_max            =   2.9312844900415E+01
(PID.TID 0000.0001) %MON dynstat_theta_min            =  -1.8502991284254E+00
(PID.TID 0000.0001) %MON dynstat_theta_mean           =   3.4385879792238E+00
(PID.TID 0000.0001) %MON dynstat_theta_sd             =   4.1125533541681E+00
(PID.TID 0000.0001) %MON dynstat_theta_del2           =   5.2116106719109E-03
(PID.TID 0000.0001) %MON dynstat_salt_max             =   3.7439890879488E+01
(PID.TID 0000.0001) %MON dynstat_salt_min             =   3.1029393242552E+01
(PID.TID 0000.0001) %MON dynstat_salt_mean            =   3.4715046965609E+01
(PID.TID 0000.0001) %MON dynstat_salt_sd              =   2.7633933123421E-01
(PID.TID 0000.0001) %MON dynstat_salt_del2            =   8.6146688215155E-04
(PID.TID 0000.0001) %MON forcing_qnet_max             =   1.3199679941600E+02
(PID.TID 0000.0001) %MON forcing_qnet_min             =  -3.5049627091214E+01
(PID.TID 0000.0001) %MON forcing_qnet_mean            =  -6.8984510202484E-01
(PID.TID 0000.0001) %MON forcing_qnet_sd              =   2.2692302782162E+01
(PID.TID 0000.0001) %MON forcing_qnet_del2            =   1.1257799519057E-01
(PID.TID 0000.0001) %MON forcing_qsw_max              =   0.0000000000000E+00
(PID.TID 0000.0001) %MON forcing_qsw_min              =   0.0000000000000E+00
(PID.TID 0000.0001) %MON forcing_qsw_mean             =   0.0000000000000E+00
(PID.TID 0000.0001) %MON forcing_qsw_sd               =   0.0000000000000E+00
(PID.TID 0000.0001) %MON forcing_qsw_del2             =   0.0000000000000E+00
(PID.TID 0000.0001) %MON forcing_empmr_max            =   3.7600374110707E-05
(PID.TID 0000.0001) %MON forcing_empmr_min            =  -1.7559553618097E-05
(PID.TID 0000.0001) %MON forcing_empmr_mean           =   1.5643147523703E-06
(PID.TID 0000.0001) %MON forcing_empmr_sd             =   1.1909008207927E-05
(PID.TID 0000.0001) %MON forcing_empmr_del2           =   7.3093651236608E-08
(PID.TID 0000.0001) %MON forcing_fu_max               =   1.6004334390163E-01
(PID.TID 0000.0001) %MON forcing_fu_min               =  -1.0329221189022E-01
(PID.TID 0000.0001) %MON forcing_fu_mean              =   4.1280488583042E-03
(PID.TID 0000.0001) %MON forcing_fu_sd                =   5.5800359441598E-02
(PID.TID 0000.0001) %MON forcing_fu_del2              =   3.2370368543277E-04
(PID.TID 0000.0001) %MON forcing_fv_max               =   8.4633164107800E-02
(PID.TID 0000.0001) %MON forcing_fv_min               =  -7.0490099489689E-02
(PID.TID 0000.0001) %MON forcing_fv_mean              =   2.8803575798275E-03
(PID.TID 0000.0001) %MON forcing_fv_sd                =   2.2193297771215E-02
(PID.TID 0000.0001) %MON forcing_fv_del2              =   2.1170835219132E-04
(PID.TID 0000.0001) %MON advcfl_uvel_max              =   5.1687118157404E-03
(PID.TID 0000.0001) %MON advcfl_vvel_max              =   6.9135916355673E-03
(PID.TID 0000.0001) %MON advcfl_wvel_max              =   4.6938619889308E-02
(PID.TID 0000.0001) %MON advcfl_W_hf_max              =   3.0023085863752E-02
(PID.TID 0000.0001) %MON pe_b_mean                    =   3.7952298452302E-05
(PID.TID 0000.0001) %MON ke_max                       =   1.4097262290227E-03
(PID.TID 0000.0001) %MON ke_mean                      =   3.0190998929754E-06
(PID.TID 0000.0001) %MON ke_vol                       =   1.4101703507225E+18
(PID.TID 0000.0001) %MON vort_r_min                   =  -1.6792868582097E-07
(PID.TID 0000.0001) %MON vort_r_max                   =   1.5950690305693E-07
(PID.TID 0000.0001) %MON vort_a_mean                  =  -1.9976608796705E-05
(PID.TID 0000.0001) %MON vort_a_sd                    =   7.3718651705461E-05
(PID.TID 0000.0001) %MON vort_p_mean                  =  -2.3730263022063E-05
(PID.TID 0000.0001) %MON vort_p_sd                    =   1.0369763372502E-04
(PID.TID 0000.0001) %MON surfExpan_theta_mean         =   2.4652669020311E-05
(PID.TID 0000.0001) %MON surfExpan_salt_mean          =   1.8656646704176E-06
(PID.TID 0000.0001) // =======================================================
(PID.TID 0000.0001) // End MONITOR dynamic field statistics
(PID.TID 0000.0001) // =======================================================
 SH   5.2201194813001734        23.297498110483730     
 NH   10.466538306882399        25.565240031177950     
 SH   5.2201194813001734        23.297498110483730     
 NH   10.466538306882399        25.565240031177950     
 cg2d: Sum(rhs),rhsMax =   3.05311331771918E-14  8.72197575655387E+00
(PID.TID 0000.0001)                    cg2d_init_res =    4.87952061303422E-01
(PID.TID 0000.0001)                       cg2d_iters =    92
(PID.TID 0000.0001)                         cg2d_res =    8.28392889930174E-14
(PID.TID 0000.0001) // =======================================================
(PID.TID 0000.0001) // Begin MONITOR dynamic field statistics
(PID.TID 0000.0001) // =======================================================
(PID.TID 0000.0001) %MON time_tsnumber                =                     2
(PID.TID 0000.0001) %MON time_secondsf                =   8.6400000000000E+04
(PID.TID 0000.0001) %MON dynstat_eta_max              =   1.5127992813880E+00
(PID.TID 0000.0001) %MON dynstat_eta_min              =  -1.0207055791418E+00
(PID.TID 0000.0001) %MON dynstat_eta_mean             =  -1.3809811506113E-15
(PID.TID 0000.0001) %MON dynstat_eta_sd               =   3.4250410910898E-01
(PID.TID 0000.0001) %MON dynstat_eta_del2             =   2.8011779769251E-03
(PID.TID 0000.0001) %MON dynstat_uvel_max             =   6.2220179259143E-02
(PID.TID 0000.0001) %MON dynstat_uvel_min             =  -9.9990521907814E-02
(PID.TID 0000.0001) %MON dynstat_uvel_mean            =  -5.8871693451922E-04
(PID.TID 0000.0001) %MON dynstat_uvel_sd              =   2.1072459602650E-03
(PID.TID 0000.0001) %MON dynstat_uvel_del2            =   2.7412874660645E-05
(PID.TID 0000.0001) %MON dynstat_vvel_max             =   8.8321951319710E-02
(PID.TID 0000.0001) %MON dynstat_vvel_min             =  -1.3512639555603E-01
(PID.TID 0000.0001) %MON dynstat_vvel_mean            =   1.0338910516244E-03
(PID.TID 0000.0001) %MON dynstat_vvel_sd              =   3.7810827301828E-03
(PID.TID 0000.0001) %MON dynstat_vvel_del2            =   3.2160830862552E-05
(PID.TID 0000.0001) %MON dynstat_wvel_max             =   3.9771112849048E-04
(PID.TID 0000.0001) %MON dynstat_wvel_min             =  -2.5072766201124E-04
(PID.TID 0000.0001) %MON dynstat_wvel_mean            =   3.4093085226801E-22
(PID.TID 0000.0001) %MON dynstat_wvel_sd              =   1.4311041929936E-05
(PID.TID 0000.0001) %MON dynstat_wvel_del2            =   1.8667528235646E-07
(PID.TID 0000.0001) %MON dynstat_theta_max            =   2.9294050165785E+01
(PID.TID 0000.0001) %MON dynstat_theta_min            =  -1.8498031274074E+00
(PID.TID 0000.0001) %MON dynstat_theta_mean           =   3.4381866703957E+00
(PID.TID 0000.0001) %MON dynstat_theta_sd             =   4.1115896246372E+00
(PID.TID 0000.0001) %MON dynstat_theta_del2           =   5.1931334320423E-03
(PID.TID 0000.0001) %MON dynstat_salt_max             =   3.7440184208913E+01
(PID.TID 0000.0001) %MON dynstat_salt_min             =   3.1028967454739E+01
(PID.TID 0000.0001) %MON dynstat_salt_mean            =   3.4715016947886E+01
(PID.TID 0000.0001) %MON dynstat_salt_sd              =   2.7634364484275E-01
(PID.TID 0000.0001) %MON dynstat_salt_del2            =   8.6065344033530E-04
(PID.TID 0000.0001) %MON forcing_qnet_max             =   1.3078311401276E+02
(PID.TID 0000.0001) %MON forcing_qnet_min             =  -3.5027305383591E+01
(PID.TID 0000.0001) %MON forcing_qnet_mean            =  -6.9821893006721E-01
(PID.TID 0000.0001) %MON forcing_qnet_sd              =   2.2554382928799E+01
(PID.TID 0000.0001) %MON forcing_qnet_del2            =   1.1211932913852E-01
(PID.TID 0000.0001) %MON forcing_qsw_max              =   0.0000000000000E+00
(PID.TID 0000.0001) %MON forcing_qsw_min              =   0.0000000000000E+00
(PID.TID 0000.0001) %MON forcing_qsw_mean             =   0.0000000000000E+00
(PID.TID 0000.0001) %MON forcing_qsw_sd               =   0.0000000000000E+00
(PID.TID 0000.0001) %MON forcing_qsw_del2             =   0.0000000000000E+00
(PID.TID 0000.0001) %MON forcing_empmr_max            =   3.7600374110707E-05
(PID.TID 0000.0001) %MON forcing_empmr_min            =  -1.7559553618097E-05
(PID.TID 0000.0001) %MON forcing_empmr_mean           =   1.5643147523703E-06
(PID.TID 0000.0001) %MON forcing_empmr_sd             =   1.1909008207927E-05
(PID.TID 0000.0001) %MON forcing_empmr_del2           =   7.3093651236608E-08
(PID.TID 0000.0001) %MON forcing_fu_max               =   1.6004334390163E-01
(PID.TID 0000.0001) %MON forcing_fu_min               =  -1.0329221189022E-01
(PID.TID 0000.0001) %MON forcing_fu_mean              =   4.1280488583042E-03
(PID.TID 0000.0001) %MON forcing_fu_sd                =   5.5800359441598E-02
(PID.TID 0000.0001) %MON forcing_fu_del2              =   3.2370368543277E-04
(PID.TID 0000.0001) %MON forcing_fv_max               =   8.4633164107800E-02
(PID.TID 0000.0001) %MON forcing_fv_min               =  -7.0490099489689E-02
(PID.TID 0000.0001) %MON forcing_fv_mean              =   2.8803575798275E-03
(PID.TID 0000.0001) %MON forcing_fv_sd                =   2.2193297771215E-02
(PID.TID 0000.0001) %MON forcing_fv_del2              =   2.1170835219132E-04
(PID.TID 0000.0001) %MON advcfl_uvel_max              =   9.8631203359733E-03
(PID.TID 0000.0001) %MON advcfl_vvel_max              =   1.3126445744851E-02
(PID.TID 0000.0001) %MON advcfl_wvel_max              =   4.3761872030278E-02
(PID.TID 0000.0001) %MON advcfl_W_hf_max              =   4.6979656738387E-02
(PID.TID 0000.0001) %MON pe_b_mean                    =   1.3610019869823E-04
(PID.TID 0000.0001) %MON ke_max                       =   5.0387199217777E-03
(PID.TID 0000.0001) %MON ke_mean                      =   9.2009751719030E-06
(PID.TID 0000.0001) %MON ke_vol                       =   1.4101703507225E+18
(PID.TID 0000.0001) %MON vort_r_min                   =  -3.1668876290645E-07
(PID.TID 0000.0001) %MON vort_r_max                   =   3.0100474228896E-07
(PID.TID 0000.0001) %MON vort_a_mean                  =  -1.9976608796705E-05
(PID.TID 0000.0001) %MON vort_a_sd                    =   7.3718593208048E-05
(PID.TID 0000.0001) %MON vort_p_mean                  =  -2.3730263022063E-05
(PID.TID 0000.0001) %MON vort_p_sd                    =   1.0369751118842E-04
(PID.TID 0000.0001) %MON surfExpan_theta_mean         =   3.0805958826803E-05
(PID.TID 0000.0001) %MON surfExpan_salt_mean          =   2.0577059839420E-06
(PID.TID 0000.0001) // =======================================================
(PID.TID 0000.0001) // End MONITOR dynamic field statistics
(PID.TID 0000.0001) // =======================================================
 SH   5.2213217366822278        23.295110541783401     
 NH   10.461108876579829        25.564424809914442     
 SH   5.2213217366822278        23.295110541783401     
 NH   10.461108876579829        25.564424809914442     
 cg2d: Sum(rhs),rhsMax =   9.62563362350011E-14  8.58491923240258E+00
(PID.TID 0000.0001)                    cg2d_init_res =    2.92864637867809E-01
(PID.TID 0000.0001)                       cg2d_iters =    91
(PID.TID 0000.0001)                         cg2d_res =    8.45737388113897E-14
(PID.TID 0000.0001) // =======================================================
(PID.TID 0000.0001) // Begin MONITOR dynamic field statistics
(PID.TID 0000.0001) // =======================================================
(PID.TID 0000.0001) %MON time_tsnumber                =                     3
(PID.TID 0000.0001) %MON time_secondsf                =   1.2960000000000E+05
(PID.TID 0000.0001) %MON dynstat_eta_max              =   1.6597741506963E+00
(PID.TID 0000.0001) %MON dynstat_eta_min              =  -1.4242757816350E+00
(PID.TID 0000.0001) %MON dynstat_eta_mean             =  -2.6570302192222E-15
(PID.TID 0000.0001) %MON dynstat_eta_sd               =   4.5741451088446E-01
(PID.TID 0000.0001) %MON dynstat_eta_del2             =   2.7053884811778E-03
(PID.TID 0000.0001) %MON dynstat_uvel_max             =   9.2578441350328E-02
(PID.TID 0000.0001) %MON dynstat_uvel_min             =  -1.4673583407068E-01
(PID.TID 0000.0001) %MON dynstat_uvel_mean            =  -7.6473802085382E-04
(PID.TID 0000.0001) %MON dynstat_uvel_sd              =   3.1230314215807E-03
(PID.TID 0000.0001) %MON dynstat_uvel_del2            =   4.0336307687667E-05
(PID.TID 0000.0001) %MON dynstat_vvel_max             =   1.3031742784265E-01
(PID.TID 0000.0001) %MON dynstat_vvel_min             =  -1.9840001087434E-01
(PID.TID 0000.0001) %MON dynstat_vvel_mean            =   1.1638851878965E-03
(PID.TID 0000.0001) %MON dynstat_vvel_sd              =   5.1962347691494E-03
(PID.TID 0000.0001) %MON dynstat_vvel_del2            =   4.7056003486380E-05
(PID.TID 0000.0001) %MON dynstat_wvel_max             =   5.9315863778724E-04
(PID.TID 0000.0001) %MON dynstat_wvel_min             =  -3.7480862208009E-04
(PID.TID 0000.0001) %MON dynstat_wvel_mean            =  -2.0455851136081E-22
(PID.TID 0000.0001) %MON dynstat_wvel_sd              =   2.0489951139226E-05
(PID.TID 0000.0001) %MON dynstat_wvel_del2            =   2.7250897498393E-07
(PID.TID 0000.0001) %MON dynstat_theta_max            =   2.9275067861905E+01
(PID.TID 0000.0001) %MON dynstat_theta_min            =  -1.8509828669498E+00
(PID.TID 0000.0001) %MON dynstat_theta_mean           =   3.4378359374254E+00
(PID.TID 0000.0001) %MON dynstat_theta_sd             =   4.1106339952323E+00
(PID.TID 0000.0001) %MON dynstat_theta_del2           =   5.1781841613524E-03
(PID.TID 0000.0001) %MON dynstat_salt_max             =   3.7440515963312E+01
(PID.TID 0000.0001) %MON dynstat_salt_min             =   3.1028477970757E+01
(PID.TID 0000.0001) %MON dynstat_salt_mean            =   3.4714995228105E+01
(PID.TID 0000.0001) %MON dynstat_salt_sd              =   2.7634117606050E-01
(PID.TID 0000.0001) %MON dynstat_salt_del2            =   8.5968891242020E-04
(PID.TID 0000.0001) %MON forcing_qnet_max             =   1.3032175016210E+02
(PID.TID 0000.0001) %MON forcing_qnet_min             =  -3.5067443178121E+01
(PID.TID 0000.0001) %MON forcing_qnet_mean            =  -7.0982387129069E-01
(PID.TID 0000.0001) %MON forcing_qnet_sd              =   2.2514201654955E+01
(PID.TID 0000.0001) %MON forcing_qnet_del2            =   1.1204031363797E-01
(PID.TID 0000.0001) %MON forcing_qsw_max              =   0.0000000000000E+00
(PID.TID 0000.0001) %MON forcing_qsw_min              =   0.0000000000000E+00
(PID.TID 0000.0001) %MON forcing_qsw_mean             =   0.0000000000000E+00
(PID.TID 0000.0001) %MON forcing_qsw_sd               =   0.0000000000000E+00
(PID.TID 0000.0001) %MON forcing_qsw_del2             =   0.0000000000000E+00
(PID.TID 0000.0001) %MON forcing_empmr_max            =   3.7600374110707E-05
(PID.TID 0000.0001) %MON forcing_empmr_min            =  -1.7559553618097E-05
(PID.TID 0000.0001) %MON forcing_empmr_mean           =   1.5643147523703E-06
(PID.TID 0000.0001) %MON forcing_empmr_sd             =   1.1909008207927E-05
(PID.TID 0000.0001) %MON forcing_empmr_del2           =   7.3093651236608E-08
(PID.TID 0000.0001) %MON forcing_fu_max               =   1.6004334390163E-01
(PID.TID 0000.0001) %MON forcing_fu_min               =  -1.0329221189022E-01
(PID.TID 0000.0001) %MON forcing_fu_mean              =   4.1280488583042E-03
(PID.TID 0000.0001) %MON forcing_fu_sd                =   5.5800359441598E-02
(PID.TID 0000.0001) %MON forcing_fu_del2              =   3.2370368543277E-04
(PID.TID 0000.0001) %MON forcing_fv_max               =   8.4633164107800E-02
(PID.TID 0000.0001) %MON forcing_fv_min               =  -7.0490099489689E-02
(PID.TID 0000.0001) %MON forcing_fv_mean              =   2.8803575798275E-03
(PID.TID 0000.0001) %MON forcing_fv_sd                =   2.2193297771215E-02
(PID.TID 0000.0001) %MON forcing_fv_del2              =   2.1170835219132E-04
(PID.TID 0000.0001) %MON advcfl_uvel_max              =   1.4474103759282E-02
(PID.TID 0000.0001) %MON advcfl_vvel_max              =   1.9272970079632E-02
(PID.TID 0000.0001) %MON advcfl_wvel_max              =   6.5464694718824E-02
(PID.TID 0000.0001) %MON advcfl_W_hf_max              =   7.0278275212856E-02
(PID.TID 0000.0001) %MON pe_b_mean                    =   2.4274319434921E-04
(PID.TID 0000.0001) %MON ke_max                       =   1.0815440491098E-02
(PID.TID 0000.0001) %MON ke_mean                      =   1.7673783932509E-05
(PID.TID 0000.0001) %MON ke_vol                       =   1.4101703507225E+18
(PID.TID 0000.0001) %MON vort_r_min                   =  -4.6265906705764E-07
(PID.TID 0000.0001) %MON vort_r_max                   =   4.4018409544911E-07
(PID.TID 0000.0001) %MON vort_a_mean                  =  -1.9976608796705E-05
(PID.TID 0000.0001) %MON vort_a_sd                    =   7.3718557407110E-05
(PID.TID 0000.0001) %MON vort_p_mean                  =  -2.3730263022063E-05
(PID.TID 0000.0001) %MON vort_p_sd                    =   1.0369744911942E-04
(PID.TID 0000.0001) %MON surfExpan_theta_mean         =   2.6991452130138E-05
(PID.TID 0000.0001) %MON surfExpan_salt_mean          =   1.4860575593411E-06
(PID.TID 0000.0001) // =======================================================
(PID.TID 0000.0001) // End MONITOR dynamic field statistics
(PID.TID 0000.0001) // =======================================================
 SH   5.2239758527201161        23.292330991848530     
 NH   10.454544438170274        25.562857148937155     
 SH   5.2239758527201161        23.292330991848530     
 NH   10.454544438170274        25.562857148937155     
 cg2d: Sum(rhs),rhsMax =   1.86961557346876E-13  8.57300301452758E+00
(PID.TID 0000.0001)                    cg2d_init_res =    2.07865626400048E-01
(PID.TID 0000.0001)                       cg2d_iters =    91
(PID.TID 0000.0001)                         cg2d_res =    8.86390248418381E-14
(PID.TID 0000.0001) // =======================================================
(PID.TID 0000.0001) // Begin MONITOR dynamic field statistics
(PID.TID 0000.0001) // =======================================================
(PID.TID 0000.0001) %MON time_tsnumber                =                     4
(PID.TID 0000.0001) %MON time_secondsf                =   1.7280000000000E+05
(PID.TID 0000.0001) %MON dynstat_eta_max              =   1.8352258877886E+00
(PID.TID 0000.0001) %MON dynstat_eta_min              =  -1.6836544667178E+00
(PID.TID 0000.0001) %MON dynstat_eta_mean             =  -2.0161950041489E-15
(PID.TID 0000.0001) %MON dynstat_eta_sd               =   5.2658156039151E-01
(PID.TID 0000.0001) %MON dynstat_eta_del2             =   2.6521861334806E-03
(PID.TID 0000.0001) %MON dynstat_uvel_max             =   1.2183938996237E-01
(PID.TID 0000.0001) %MON dynstat_uvel_min             =  -1.9205709880536E-01
(PID.TID 0000.0001) %MON dynstat_uvel_mean            =  -8.3299431953013E-04
(PID.TID 0000.0001) %MON dynstat_uvel_sd              =   4.1227630432145E-03
(PID.TID 0000.0001) %MON dynstat_uvel_del2            =   5.2669790036249E-05
(PID.TID 0000.0001) %MON dynstat_vvel_max             =   1.7171484604980E-01
(PID.TID 0000.0001) %MON dynstat_vvel_min             =  -2.6021342237094E-01
(PID.TID 0000.0001) %MON dynstat_vvel_mean            =   1.1632953012948E-03
(PID.TID 0000.0001) %MON dynstat_vvel_sd              =   6.6146220588958E-03
(PID.TID 0000.0001) %MON dynstat_vvel_del2            =   6.1037013589635E-05
(PID.TID 0000.0001) %MON dynstat_wvel_max             =   7.8856789666125E-04
(PID.TID 0000.0001) %MON dynstat_wvel_min             =  -4.9731414337960E-04
(PID.TID 0000.0001) %MON dynstat_wvel_mean            =  -3.4093085226801E-22
(PID.TID 0000.0001) %MON dynstat_wvel_sd              =   2.6615806675648E-05
(PID.TID 0000.0001) %MON dynstat_wvel_del2            =   3.5490111017797E-07
(PID.TID 0000.0001) %MON dynstat_theta_max            =   2.9256004052541E+01
(PID.TID 0000.0001) %MON dynstat_theta_min            =  -1.8518337163564E+00
(PID.TID 0000.0001) %MON dynstat_theta_mean           =   3.4375853331827E+00
(PID.TID 0000.0001) %MON dynstat_theta_sd             =   4.1098392008242E+00
(PID.TID 0000.0001) %MON dynstat_theta_del2           =   5.1577968221963E-03
(PID.TID 0000.0001) %MON dynstat_salt_max             =   3.7440877661765E+01
(PID.TID 0000.0001) %MON dynstat_salt_min             =   3.1029040890731E+01
(PID.TID 0000.0001) %MON dynstat_salt_mean            =   3.4714984023015E+01
(PID.TID 0000.0001) %MON dynstat_salt_sd              =   2.7633461172924E-01
(PID.TID 0000.0001) %MON dynstat_salt_del2            =   8.5859324321176E-04
(PID.TID 0000.0001) %MON forcing_qnet_max             =   1.2981880771024E+02
(PID.TID 0000.0001) %MON forcing_qnet_min             =  -3.5123977509252E+01
(PID.TID 0000.0001) %MON forcing_qnet_mean            =  -7.2432578412922E-01
(PID.TID 0000.0001) %MON forcing_qnet_sd              =   2.2474423608429E+01
(PID.TID 0000.0001) %MON forcing_qnet_del2            =   1.1197630511055E-01
(PID.TID 0000.0001) %MON forcing_qsw_max              =   0.0000000000000E+00
(PID.TID 0000.0001) %MON forcing_qsw_min              =   0.0000000000000E+00
(PID.TID 0000.0001) %MON forcing_qsw_mean             =   0.0000000000000E+00
(PID.TID 0000.0001) %MON forcing_qsw_sd               =   0.0000000000000E+00
(PID.TID 0000.0001) %MON forcing_qsw_del2             =   0.0000000000000E+00
(PID.TID 0000.0001) %MON forcing_empmr_max            =   3.7600374110707E-05
(PID.TID 0000.0001) %MON forcing_empmr_min            =  -1.7559553618097E-05
(PID.TID 0000.0001) %MON forcing_empmr_mean           =   1.5643147523703E-06
(PID.TID 0000.0001) %MON forcing_empmr_sd             =   1.1909008207927E-05
(PID.TID 0000.0001) %MON forcing_empmr_del2           =   7.3093651236608E-08
(PID.TID 0000.0001) %MON forcing_fu_max               =   1.6004334390163E-01
(PID.TID 0000.0001) %MON forcing_fu_min               =  -1.0329221189022E-01
(PID.TID 0000.0001) %MON forcing_fu_mean              =   4.1280488583042E-03
(PID.TID 0000.0001) %MON forcing_fu_sd                =   5.5800359441598E-02
(PID.TID 0000.0001) %MON forcing_fu_del2              =   3.2370368543277E-04
(PID.TID 0000.0001) %MON forcing_fv_max               =   8.4633164107800E-02
(PID.TID 0000.0001) %MON forcing_fv_min               =  -7.0490099489689E-02
(PID.TID 0000.0001) %MON forcing_fv_mean              =   2.8803575798275E-03
(PID.TID 0000.0001) %MON forcing_fv_sd                =   2.2193297771215E-02
(PID.TID 0000.0001) %MON forcing_fv_del2              =   2.1170835219132E-04
(PID.TID 0000.0001) %MON advcfl_uvel_max              =   1.8944618357344E-02
(PID.TID 0000.0001) %MON advcfl_vvel_max              =   2.5277647322560E-02
(PID.TID 0000.0001) %MON advcfl_wvel_max              =   8.7276715601390E-02
(PID.TID 0000.0001) %MON advcfl_W_hf_max              =   9.3694121160316E-02
(PID.TID 0000.0001) %MON pe_b_mean                    =   3.2170549645241E-04
(PID.TID 0000.0001) %MON ke_max                       =   1.8568081340095E-02
(PID.TID 0000.0001) %MON ke_mean                      =   2.8689589131621E-05
(PID.TID 0000.0001) %MON ke_vol                       =   1.4101703507225E+18
(PID.TID 0000.0001) %MON vort_r_min                   =  -6.0390921875089E-07
(PID.TID 0000.0001) %MON vort_r_max                   =   5.7719378117350E-07
(PID.TID 0000.0001) %MON vort_a_mean                  =  -1.9976608796705E-05
(PID.TID 0000.0001) %MON vort_a_sd                    =   7.3718543875150E-05
(PID.TID 0000.0001) %MON vort_p_mean                  =  -2.3730263022063E-05
(PID.TID 0000.0001) %MON vort_p_sd                    =   1.0369743829994E-04
(PID.TID 0000.0001) %MON surfExpan_theta_mean         =   1.9024934005369E-05
(PID.TID 0000.0001) %MON surfExpan_salt_mean          =   7.3063682652550E-07
(PID.TID 0000.0001) // =======================================================
(PID.TID 0000.0001) // End MONITOR dynamic field statistics
(PID.TID 0000.0001) // =======================================================
 SH   5.2277890242648937        23.291025332157801     
 NH   10.447075395367449        25.560581831928403     
 SH   5.2277890242648937        23.291025332157801     
 NH   10.447075395367449        25.560581831928403     
 cg2d: Sum(rhs),rhsMax =   1.43662859386495E-13  8.54199816412785E+00
(PID.TID 0000.0001)                    cg2d_init_res =    1.87120859467229E-01
(PID.TID 0000.0001)                       cg2d_iters =    92
(PID.TID 0000.0001)                         cg2d_res =    7.24460135191979E-14
(PID.TID 0000.0001) // =======================================================
(PID.TID 0000.0001) // Begin MONITOR dynamic field statistics
(PID.TID 0000.0001) // =======================================================
(PID.TID 0000.0001) %MON time_tsnumber                =                     5
(PID.TID 0000.0001) %MON time_secondsf                =   2.1600000000000E+05
(PID.TID 0000.0001) %MON dynstat_eta_max              =   1.9975268113670E+00
(PID.TID 0000.0001) %MON dynstat_eta_min              =  -1.7194276113615E+00
(PID.TID 0000.0001) %MON dynstat_eta_mean             =  -5.4077497973733E-15
(PID.TID 0000.0001) %MON dynstat_eta_sd               =   5.6187682091801E-01
(PID.TID 0000.0001) %MON dynstat_eta_del2             =   2.5955329258620E-03
(PID.TID 0000.0001) %MON dynstat_uvel_max             =   1.4991593504003E-01
(PID.TID 0000.0001) %MON dynstat_uvel_min             =  -2.3551699943462E-01
(PID.TID 0000.0001) %MON dynstat_uvel_mean            =  -8.2122062667032E-04
(PID.TID 0000.0001) %MON dynstat_uvel_sd              =   5.1251614297907E-03
(PID.TID 0000.0001) %MON dynstat_uvel_del2            =   6.4366197487385E-05
(PID.TID 0000.0001) %MON dynstat_vvel_max             =   2.1220973583852E-01
(PID.TID 0000.0001) %MON dynstat_vvel_min             =  -3.1988488208710E-01
(PID.TID 0000.0001) %MON dynstat_vvel_mean            =   1.0749049235619E-03
(PID.TID 0000.0001) %MON dynstat_vvel_sd              =   8.0210044447797E-03
(PID.TID 0000.0001) %MON dynstat_vvel_del2            =   7.3962006040552E-05
(PID.TID 0000.0001) %MON dynstat_wvel_max             =   9.7881215845874E-04
(PID.TID 0000.0001) %MON dynstat_wvel_min             =  -6.1692129098176E-04
(PID.TID 0000.0001) %MON dynstat_wvel_mean            =   5.1139627840202E-22
(PID.TID 0000.0001) %MON dynstat_wvel_sd              =   3.2518130484921E-05
(PID.TID 0000.0001) %MON dynstat_wvel_del2            =   4.3219816430218E-07
(PID.TID 0000.0001) %MON dynstat_theta_max            =   2.9237839366963E+01
(PID.TID 0000.0001) %MON dynstat_theta_min            =  -1.8527456238112E+00
(PID.TID 0000.0001) %MON dynstat_theta_mean           =   3.4374416173566E+00
(PID.TID 0000.0001) %MON dynstat_theta_sd             =   4.1093016454532E+00
(PID.TID 0000.0001) %MON dynstat_theta_del2           =   5.1338965523261E-03
(PID.TID 0000.0001) %MON dynstat_salt_max             =   3.7441235023288E+01
(PID.TID 0000.0001) %MON dynstat_salt_min             =   3.1030679942401E+01
(PID.TID 0000.0001) %MON dynstat_salt_mean            =   3.4714981651194E+01
(PID.TID 0000.0001) %MON dynstat_salt_sd              =   2.7632664825222E-01
(PID.TID 0000.0001) %MON dynstat_salt_del2            =   8.5747885170364E-04
(PID.TID 0000.0001) %MON forcing_qnet_max             =   1.2929288794547E+02
(PID.TID 0000.0001) %MON forcing_qnet_min             =  -3.5170609366889E+01
(PID.TID 0000.0001) %MON forcing_qnet_mean            =  -7.3732426591415E-01
(PID.TID 0000.0001) %MON forcing_qnet_sd              =   2.2431068693154E+01
(PID.TID 0000.0001) %MON forcing_qnet_del2            =   1.1187547135413E-01
(PID.TID 0000.0001) %MON forcing_qsw_max              =   0.0000000000000E+00
(PID.TID 0000.0001) %MON forcing_qsw_min              =   0.0000000000000E+00
(PID.TID 0000.0001) %MON forcing_qsw_mean             =   0.0000000000000E+00
(PID.TID 0000.0001) %MON forcing_qsw_sd               =   0.0000000000000E+00
(PID.TID 0000.0001) %MON forcing_qsw_del2             =   0.0000000000000E+00
(PID.TID 0000.0001) %MON forcing_empmr_max            =   3.7600374110707E-05
(PID.TID 0000.0001) %MON forcing_empmr_min            =  -1.7559553618097E-05
(PID.TID 0000.0001) %MON forcing_empmr_mean           =   1.5643147523703E-06
(PID.TID 0000.0001) %MON forcing_empmr_sd             =   1.1909008207927E-05
(PID.TID 0000.0001) %MON forcing_empmr_del2           =   7.3093651236608E-08
(PID.TID 0000.0001) %MON forcing_fu_max               =   1.6004334390163E-01
(PID.TID 0000.0001) %MON forcing_fu_min               =  -1.0329221189022E-01
(PID.TID 0000.0001) %MON forcing_fu_mean              =   4.1280488583042E-03
(PID.TID 0000.0001) %MON forcing_fu_sd                =   5.5800359441598E-02
(PID.TID 0000.0001) %MON forcing_fu_del2              =   3.2370368543277E-04
(PID.TID 0000.0001) %MON forcing_fv_max               =   8.4633164107800E-02
(PID.TID 0000.0001) %MON forcing_fv_min               =  -7.0490099489689E-02
(PID.TID 0000.0001) %MON forcing_fv_mean              =   2.8803575798275E-03
(PID.TID 0000.0001) %MON forcing_fv_sd                =   2.2193297771215E-02
(PID.TID 0000.0001) %MON forcing_fv_del2              =   2.1170835219132E-04
(PID.TID 0000.0001) %MON advcfl_uvel_max              =   2.3231526971452E-02
(PID.TID 0000.0001) %MON advcfl_vvel_max              =   3.1074251126407E-02
(PID.TID 0000.0001) %MON advcfl_wvel_max              =   1.0854861016093E-01
(PID.TID 0000.0001) %MON advcfl_W_hf_max              =   1.1653012561394E-01
(PID.TID 0000.0001) %MON pe_b_mean                    =   3.6627680726849E-04
(PID.TID 0000.0001) %MON ke_max                       =   2.8031272902617E-02
(PID.TID 0000.0001) %MON ke_mean                      =   4.2235068357336E-05
(PID.TID 0000.0001) %MON ke_vol                       =   1.4101703507225E+18
(PID.TID 0000.0001) %MON vort_r_min                   =  -7.3854235218999E-07
(PID.TID 0000.0001) %MON vort_r_max                   =   7.1081971761559E-07
(PID.TID 0000.0001) %MON vort_a_mean                  =  -1.9976608796705E-05
(PID.TID 0000.0001) %MON vort_a_sd                    =   7.3718546831721E-05
(PID.TID 0000.0001) %MON vort_p_mean                  =  -2.3730263022063E-05
(PID.TID 0000.0001) %MON vort_p_sd                    =   1.0369745028085E-04
(PID.TID 0000.0001) %MON surfExpan_theta_mean         =   1.0560646374746E-05
(PID.TID 0000.0001) %MON surfExpan_salt_mean          =   8.0076183844155E-08
(PID.TID 0000.0001) // =======================================================
(PID.TID 0000.0001) // End MONITOR dynamic field statistics
(PID.TID 0000.0001) // =======================================================
 SH   5.2323630972755382        23.291656354054169     
 NH   10.438753008306264        25.558131387204696     
 SH   5.2323630972755382        23.291656354054169     
 NH   10.438753008306264        25.558131387204696     
 cg2d: Sum(rhs),rhsMax =   3.45501405263349E-13  8.39983291285461E+00
(PID.TID 0000.0001)                    cg2d_init_res =    1.79543979373335E-01
(PID.TID 0000.0001)                       cg2d_iters =    91
(PID.TID 0000.0001)                         cg2d_res =    9.66230748163222E-14
(PID.TID 0000.0001) // =======================================================
(PID.TID 0000.0001) // Begin MONITOR dynamic field statistics
(PID.TID 0000.0001) // =======================================================
(PID.TID 0000.0001) %MON time_tsnumber                =                     6
(PID.TID 0000.0001) %MON time_secondsf                =   2.5920000000000E+05
(PID.TID 0000.0001) %MON dynstat_eta_max              =   2.1114397362175E+00
(PID.TID 0000.0001) %MON dynstat_eta_min              =  -1.6489512034157E+00
(PID.TID 0000.0001) %MON dynstat_eta_mean             =  -4.4970892285849E-15
(PID.TID 0000.0001) %MON dynstat_eta_sd               =   5.7542794546643E-01
(PID.TID 0000.0001) %MON dynstat_eta_del2             =   2.5263257457335E-03
(PID.TID 0000.0001) %MON dynstat_uvel_max             =   1.7651279668877E-01
(PID.TID 0000.0001) %MON dynstat_uvel_min             =  -2.7710046780026E-01
(PID.TID 0000.0001) %MON dynstat_uvel_mean            =  -7.5840624597594E-04
(PID.TID 0000.0001) %MON dynstat_uvel_sd              =   6.1504426026632E-03
(PID.TID 0000.0001) %MON dynstat_uvel_del2            =   7.5338648056141E-05
(PID.TID 0000.0001) %MON dynstat_vvel_max             =   2.5171592295249E-01
(PID.TID 0000.0001) %MON dynstat_vvel_min             =  -3.7750690624633E-01
(PID.TID 0000.0001) %MON dynstat_vvel_mean            =   9.1209814553108E-04
(PID.TID 0000.0001) %MON dynstat_vvel_sd              =   9.3722164917532E-03
(PID.TID 0000.0001) %MON dynstat_vvel_del2            =   8.5658758295317E-05
(PID.TID 0000.0001) %MON dynstat_wvel_max             =   1.1637058008542E-03
(PID.TID 0000.0001) %MON dynstat_wvel_min             =  -7.3352266714775E-04
(PID.TID 0000.0001) %MON dynstat_wvel_mean            =  -1.1364361742267E-22
(PID.TID 0000.0001) %MON dynstat_wvel_sd              =   3.8123684797165E-05
(PID.TID 0000.0001) %MON dynstat_wvel_del2            =   5.0390927568860E-07
(PID.TID 0000.0001) %MON dynstat_theta_max            =   2.9221091748330E+01
(PID.TID 0000.0001) %MON dynstat_theta_min            =  -1.8536250685035E+00
(PID.TID 0000.0001) %MON dynstat_theta_mean           =   3.4373874623318E+00
(PID.TID 0000.0001) %MON dynstat_theta_sd             =   4.1090341165563E+00
(PID.TID 0000.0001) %MON dynstat_theta_del2           =   5.1078215379623E-03
(PID.TID 0000.0001) %MON dynstat_salt_max             =   3.7441595476312E+01
(PID.TID 0000.0001) %MON dynstat_salt_min             =   3.1032933020400E+01
(PID.TID 0000.0001) %MON dynstat_salt_mean            =   3.4714985270342E+01
(PID.TID 0000.0001) %MON dynstat_salt_sd              =   2.7631905156285E-01
(PID.TID 0000.0001) %MON dynstat_salt_del2            =   8.5631042986212E-04
(PID.TID 0000.0001) %MON forcing_qnet_max             =   1.2869857638940E+02
(PID.TID 0000.0001) %MON forcing_qnet_min             =  -3.5198283294288E+01
(PID.TID 0000.0001) %MON forcing_qnet_mean            =  -7.4719068248216E-01
(PID.TID 0000.0001) %MON forcing_qnet_sd              =   2.2376766782477E+01
(PID.TID 0000.0001) %MON forcing_qnet_del2            =   1.1170813808470E-01
(PID.TID 0000.0001) %MON forcing_qsw_max              =   0.0000000000000E+00
(PID.TID 0000.0001) %MON forcing_qsw_min              =   0.0000000000000E+00
(PID.TID 0000.0001) %MON forcing_qsw_mean             =   0.0000000000000E+00
(PID.TID 0000.0001) %MON forcing_qsw_sd               =   0.0000000000000E+00
(PID.TID 0000.0001) %MON forcing_qsw_del2             =   0.0000000000000E+00
(PID.TID 0000.0001) %MON forcing_empmr_max            =   3.7600374110707E-05
(PID.TID 0000.0001) %MON forcing_empmr_min            =  -1.7559553618097E-05
(PID.TID 0000.0001) %MON forcing_empmr_mean           =   1.5643147523703E-06
(PID.TID 0000.0001) %MON forcing_empmr_sd             =   1.1909008207927E-05
(PID.TID 0000.0001) %MON forcing_empmr_del2           =   7.3093651236608E-08
(PID.TID 0000.0001) %MON forcing_fu_max               =   1.6004334390163E-01
(PID.TID 0000.0001) %MON forcing_fu_min               =  -1.0329221189022E-01
(PID.TID 0000.0001) %MON forcing_fu_mean              =   4.1280488583042E-03
(PID.TID 0000.0001) %MON forcing_fu_sd                =   5.5800359441598E-02
(PID.TID 0000.0001) %MON forcing_fu_del2              =   3.2370368543277E-04
(PID.TID 0000.0001) %MON forcing_fv_max               =   8.4633164107800E-02
(PID.TID 0000.0001) %MON forcing_fv_min               =  -7.0490099489689E-02
(PID.TID 0000.0001) %MON forcing_fv_mean              =   2.8803575798275E-03
(PID.TID 0000.0001) %MON forcing_fv_sd                =   2.2193297771215E-02
(PID.TID 0000.0001) %MON forcing_fv_del2              =   2.1170835219132E-04
(PID.TID 0000.0001) %MON advcfl_uvel_max              =   2.7333343270157E-02
(PID.TID 0000.0001) %MON advcfl_vvel_max              =   3.6671768700396E-02
(PID.TID 0000.0001) %MON advcfl_wvel_max              =   1.2922725187529E-01
(PID.TID 0000.0001) %MON advcfl_W_hf_max              =   1.3872925568965E-01
(PID.TID 0000.0001) %MON pe_b_mean                    =   3.8415729590568E-04
(PID.TID 0000.0001) %MON ke_max                       =   3.9018637245984E-02
(PID.TID 0000.0001) %MON ke_mean                      =   5.8071889522124E-05
(PID.TID 0000.0001) %MON ke_vol                       =   1.4101703507225E+18
(PID.TID 0000.0001) %MON vort_r_min                   =  -8.6677460002121E-07
(PID.TID 0000.0001) %MON vort_r_max                   =   8.4099253706229E-07
(PID.TID 0000.0001) %MON vort_a_mean                  =  -1.9976608796705E-05
(PID.TID 0000.0001) %MON vort_a_sd                    =   7.3718560551079E-05
(PID.TID 0000.0001) %MON vort_p_mean                  =  -2.3730263022064E-05
(PID.TID 0000.0001) %MON vort_p_sd                    =   1.0369746614729E-04
(PID.TID 0000.0001) %MON surfExpan_theta_mean         =   3.5781324001517E-06
(PID.TID 0000.0001) %MON surfExpan_salt_mean          =  -3.5555529493254E-07
(PID.TID 0000.0001) // =======================================================
(PID.TID 0000.0001) // End MONITOR dynamic field statistics
(PID.TID 0000.0001) // =======================================================
 SH   5.2374226153361292        23.293835175661172     
 NH   10.429688799623705        25.556353938299253     
 SH   5.2374226153361292        23.293835175661172     
 NH   10.429688799623705        25.556353938299253     
 cg2d: Sum(rhs),rhsMax =   3.28626015289046E-13  8.14938897866034E+00
(PID.TID 0000.0001)                    cg2d_init_res =    1.81182514913618E-01
(PID.TID 0000.0001)                       cg2d_iters =    92
(PID.TID 0000.0001)                         cg2d_res =    6.70740445187313E-14
(PID.TID 0000.0001) // =======================================================
(PID.TID 0000.0001) // Begin MONITOR dynamic field statistics
(PID.TID 0000.0001) // =======================================================
(PID.TID 0000.0001) %MON time_tsnumber                =                     7
(PID.TID 0000.0001) %MON time_secondsf                =   3.0240000000000E+05
(PID.TID 0000.0001) %MON dynstat_eta_max              =   2.1715613617303E+00
(PID.TID 0000.0001) %MON dynstat_eta_min              =  -1.5702759284441E+00
(PID.TID 0000.0001) %MON dynstat_eta_mean             =  -5.3740216281589E-15
(PID.TID 0000.0001) %MON dynstat_eta_sd               =   5.7623404614873E-01
(PID.TID 0000.0001) %MON dynstat_eta_del2             =   2.4512055542074E-03
(PID.TID 0000.0001) %MON dynstat_uvel_max             =   2.0147444992642E-01
(PID.TID 0000.0001) %MON dynstat_uvel_min             =  -3.1675275626543E-01
(PID.TID 0000.0001) %MON dynstat_uvel_mean            =  -6.6312814404688E-04
(PID.TID 0000.0001) %MON dynstat_uvel_sd              =   7.2069778467719E-03
(PID.TID 0000.0001) %MON dynstat_uvel_del2            =   8.5536667537860E-05
(PID.TID 0000.0001) %MON dynstat_vvel_max             =   2.9004779236869E-01
(PID.TID 0000.0001) %MON dynstat_vvel_min             =  -4.3308808563370E-01
(PID.TID 0000.0001) %MON dynstat_vvel_mean            =   6.8570569816942E-04
(PID.TID 0000.0001) %MON dynstat_vvel_sd              =   1.0634659277327E-02
(PID.TID 0000.0001) %MON dynstat_vvel_del2            =   9.5993188394758E-05
(PID.TID 0000.0001) %MON dynstat_wvel_max             =   1.3424553706936E-03
(PID.TID 0000.0001) %MON dynstat_wvel_min             =  -8.4647798855090E-04
(PID.TID 0000.0001) %MON dynstat_wvel_mean            =  -1.2159867064226E-21
(PID.TID 0000.0001) %MON dynstat_wvel_sd              =   4.3374974924259E-05
(PID.TID 0000.0001) %MON dynstat_wvel_del2            =   5.6954356252317E-07
(PID.TID 0000.0001) %MON dynstat_theta_max            =   2.9205524797707E+01
(PID.TID 0000.0001) %MON dynstat_theta_min            =  -1.8544075246462E+00
(PID.TID 0000.0001) %MON dynstat_theta_mean           =   3.4373955825913E+00
(PID.TID 0000.0001) %MON dynstat_theta_sd             =   4.1089808440616E+00
(PID.TID 0000.0001) %MON dynstat_theta_del2           =   5.0807919122522E-03
(PID.TID 0000.0001) %MON dynstat_salt_max             =   3.7441982757931E+01
(PID.TID 0000.0001) %MON dynstat_salt_min             =   3.1035314907744E+01
(PID.TID 0000.0001) %MON dynstat_salt_mean            =   3.4714992009598E+01
(PID.TID 0000.0001) %MON dynstat_salt_sd              =   2.7631278395889E-01
(PID.TID 0000.0001) %MON dynstat_salt_del2            =   8.5512275974965E-04
(PID.TID 0000.0001) %MON forcing_qnet_max             =   1.2796636678114E+02
(PID.TID 0000.0001) %MON forcing_qnet_min             =  -3.5209854354426E+01
(PID.TID 0000.0001) %MON forcing_qnet_mean            =  -7.5381114476149E-01
(PID.TID 0000.0001) %MON forcing_qnet_sd              =   2.2304213545186E+01
(PID.TID 0000.0001) %MON forcing_qnet_del2            =   1.1146825615820E-01
(PID.TID 0000.0001) %MON forcing_qsw_max              =   0.0000000000000E+00
(PID.TID 0000.0001) %MON forcing_qsw_min              =   0.0000000000000E+00
(PID.TID 0000.0001) %MON forcing_qsw_mean             =   0.0000000000000E+00
(PID.TID 0000.0001) %MON forcing_qsw_sd               =   0.0000000000000E+00
(PID.TID 0000.0001) %MON forcing_qsw_del2             =   0.0000000000000E+00
(PID.TID 0000.0001) %MON forcing_empmr_max            =   3.7600374110707E-05
(PID.TID 0000.0001) %MON forcing_empmr_min            =  -1.7559553618097E-05
(PID.TID 0000.0001) %MON forcing_empmr_mean           =   1.5643147523703E-06
(PID.TID 0000.0001) %MON forcing_empmr_sd             =   1.1909008207927E-05
(PID.TID 0000.0001) %MON forcing_empmr_del2           =   7.3093651236608E-08
(PID.TID 0000.0001) %MON forcing_fu_max               =   1.6004334390163E-01
(PID.TID 0000.0001) %MON forcing_fu_min               =  -1.0329221189022E-01
(PID.TID 0000.0001) %MON forcing_fu_mean              =   4.1280488583042E-03
(PID.TID 0000.0001) %MON forcing_fu_sd                =   5.5800359441598E-02
(PID.TID 0000.0001) %MON forcing_fu_del2              =   3.2370368543277E-04
(PID.TID 0000.0001) %MON forcing_fv_max               =   8.4633164107800E-02
(PID.TID 0000.0001) %MON forcing_fv_min               =  -7.0490099489689E-02
(PID.TID 0000.0001) %MON forcing_fv_mean              =   2.8803575798275E-03
(PID.TID 0000.0001) %MON forcing_fv_sd                =   2.2193297771215E-02
(PID.TID 0000.0001) %MON forcing_fv_del2              =   2.1170835219132E-04
(PID.TID 0000.0001) %MON advcfl_uvel_max              =   3.1244666916305E-02
(PID.TID 0000.0001) %MON advcfl_vvel_max              =   4.2071034570405E-02
(PID.TID 0000.0001) %MON advcfl_wvel_max              =   1.4921082809593E-01
(PID.TID 0000.0001) %MON advcfl_W_hf_max              =   1.6018221251474E-01
(PID.TID 0000.0001) %MON pe_b_mean                    =   3.8523435990425E-04
(PID.TID 0000.0001) %MON ke_max                       =   5.1350616501441E-02
(PID.TID 0000.0001) %MON ke_mean                      =   7.5851408150253E-05
(PID.TID 0000.0001) %MON ke_vol                       =   1.4101703507225E+18
(PID.TID 0000.0001) %MON vort_r_min                   =  -9.8868665036457E-07
(PID.TID 0000.0001) %MON vort_r_max                   =   9.6758938966093E-07
(PID.TID 0000.0001) %MON vort_a_mean                  =  -1.9976608796705E-05
(PID.TID 0000.0001) %MON vort_a_sd                    =   7.3718581452029E-05
(PID.TID 0000.0001) %MON vort_p_mean                  =  -2.3730263022063E-05
(PID.TID 0000.0001) %MON vort_p_sd                    =   1.0369748061063E-04
(PID.TID 0000.0001) %MON surfExpan_theta_mean         =  -1.1851309295930E-06
(PID.TID 0000.0001) %MON surfExpan_salt_mean          =  -5.7047281790453E-07
(PID.TID 0000.0001) // =======================================================
(PID.TID 0000.0001) // End MONITOR dynamic field statistics
(PID.TID 0000.0001) // =======================================================
 SH   5.2428098519675359        23.296876966114610     
 NH   10.420249419348920        25.555836778851869     
 SH   5.2428098519675359        23.296876966114610     
 NH   10.420249419348920        25.555836778851869     
 cg2d: Sum(rhs),rhsMax =   4.19664303308309E-13  7.83063879768698E+00
(PID.TID 0000.0001)                    cg2d_init_res =    1.92571021418031E-01
(PID.TID 0000.0001)                       cg2d_iters =    91
(PID.TID 0000.0001)                         cg2d_res =    9.35615442105095E-14
(PID.TID 0000.0001) // =======================================================
(PID.TID 0000.0001) // Begin MONITOR dynamic field statistics
(PID.TID 0000.0001) // =======================================================
(PID.TID 0000.0001) %MON time_tsnumber                =                     8
(PID.TID 0000.0001) %MON time_secondsf                =   3.4560000000000E+05
(PID.TID 0000.0001) %MON dynstat_eta_max              =   2.1843671673505E+00
(PID.TID 0000.0001) %MON dynstat_eta_min              =  -1.5226767734311E+00
(PID.TID 0000.0001) %MON dynstat_eta_mean             =  -6.1460219457327E-15
(PID.TID 0000.0001) %MON dynstat_eta_sd               =   5.7022036340308E-01
(PID.TID 0000.0001) %MON dynstat_eta_del2             =   2.3765487522743E-03
(PID.TID 0000.0001) %MON dynstat_uvel_max             =   2.2523421276042E-01
(PID.TID 0000.0001) %MON dynstat_uvel_min             =  -3.5444795013138E-01
(PID.TID 0000.0001) %MON dynstat_uvel_mean            =  -5.4492171031582E-04
(PID.TID 0000.0001) %MON dynstat_uvel_sd              =   8.2908558280930E-03
(PID.TID 0000.0001) %MON dynstat_uvel_del2            =   9.4934218701551E-05
(PID.TID 0000.0001) %MON dynstat_vvel_max             =   3.2711101511534E-01
(PID.TID 0000.0001) %MON dynstat_vvel_min             =  -4.8653250144088E-01
(PID.TID 0000.0001) %MON dynstat_vvel_mean            =   4.1736950414062E-04
(PID.TID 0000.0001) %MON dynstat_vvel_sd              =   1.1788219611896E-02
(PID.TID 0000.0001) %MON dynstat_vvel_del2            =   1.0486696656650E-04
(PID.TID 0000.0001) %MON dynstat_wvel_max             =   1.5147823574802E-03
(PID.TID 0000.0001) %MON dynstat_wvel_min             =  -9.5523535371726E-04
(PID.TID 0000.0001) %MON dynstat_wvel_mean            =   1.1364361742267E-22
(PID.TID 0000.0001) %MON dynstat_wvel_sd              =   4.8228416012559E-05
(PID.TID 0000.0001) %MON dynstat_wvel_del2            =   6.2868308450918E-07
(PID.TID 0000.0001) %MON dynstat_theta_max            =   2.9190525274329E+01
(PID.TID 0000.0001) %MON dynstat_theta_min            =  -1.8550751398882E+00
(PID.TID 0000.0001) %MON dynstat_theta_mean           =   3.4374387742678E+00
(PID.TID 0000.0001) %MON dynstat_theta_sd             =   4.1090590042563E+00
(PID.TID 0000.0001) %MON dynstat_theta_del2           =   5.0544423269088E-03
(PID.TID 0000.0001) %MON dynstat_salt_max             =   3.7442413542305E+01
(PID.TID 0000.0001) %MON dynstat_salt_min             =   3.1037484101986E+01
(PID.TID 0000.0001) %MON dynstat_salt_mean            =   3.4714999578729E+01
(PID.TID 0000.0001) %MON dynstat_salt_sd              =   2.7630881346692E-01
(PID.TID 0000.0001) %MON dynstat_salt_del2            =   8.5396517541041E-04
(PID.TID 0000.0001) %MON forcing_qnet_max             =   1.2707662965901E+02
(PID.TID 0000.0001) %MON forcing_qnet_min             =  -3.5212895545306E+01
(PID.TID 0000.0001) %MON forcing_qnet_mean            =  -7.5773197362826E-01
(PID.TID 0000.0001) %MON forcing_qnet_sd              =   2.2212774021222E+01
(PID.TID 0000.0001) %MON forcing_qnet_del2            =   1.1117516281210E-01
(PID.TID 0000.0001) %MON forcing_qsw_max              =   0.0000000000000E+00
(PID.TID 0000.0001) %MON forcing_qsw_min              =   0.0000000000000E+00
(PID.TID 0000.0001) %MON forcing_qsw_mean             =   0.0000000000000E+00
(PID.TID 0000.0001) %MON forcing_qsw_sd               =   0.0000000000000E+00
(PID.TID 0000.0001) %MON forcing_qsw_del2             =   0.0000000000000E+00
(PID.TID 0000.0001) %MON forcing_empmr_max            =   3.7600374110707E-05
(PID.TID 0000.0001) %MON forcing_empmr_min            =  -1.7559553618097E-05
(PID.TID 0000.0001) %MON forcing_empmr_mean           =   1.5643147523703E-06
(PID.TID 0000.0001) %MON forcing_empmr_sd             =   1.1909008207927E-05
(PID.TID 0000.0001) %MON forcing_empmr_del2           =   7.3093651236608E-08
(PID.TID 0000.0001) %MON forcing_fu_max               =   1.6004334390163E-01
(PID.TID 0000.0001) %MON forcing_fu_min               =  -1.0329221189022E-01
(PID.TID 0000.0001) %MON forcing_fu_mean              =   4.1280488583042E-03
(PID.TID 0000.0001) %MON forcing_fu_sd                =   5.5800359441598E-02
(PID.TID 0000.0001) %MON forcing_fu_del2              =   3.2370368543277E-04
(PID.TID 0000.0001) %MON forcing_fv_max               =   8.4633164107800E-02
(PID.TID 0000.0001) %MON forcing_fv_min               =  -7.0490099489689E-02
(PID.TID 0000.0001) %MON forcing_fv_mean              =   2.8803575798275E-03
(PID.TID 0000.0001) %MON forcing_fv_sd                =   2.2193297771215E-02
(PID.TID 0000.0001) %MON forcing_fv_del2              =   2.1170835219132E-04
(PID.TID 0000.0001) %MON advcfl_uvel_max              =   3.4962941669691E-02
(PID.TID 0000.0001) %MON advcfl_vvel_max              =   4.7262730993384E-02
(PID.TID 0000.0001) %MON advcfl_wvel_max              =   1.6845041833850E-01
(PID.TID 0000.0001) %MON advcfl_W_hf_max              =   1.8083647851045E-01
(PID.TID 0000.0001) %MON pe_b_mean                    =   3.7723556633314E-04
(PID.TID 0000.0001) %MON ke_max                       =   6.4832244828620E-02
(PID.TID 0000.0001) %MON ke_mean                      =   9.5173892930764E-05
(PID.TID 0000.0001) %MON ke_vol                       =   1.4101703507225E+18
(PID.TID 0000.0001) %MON vort_r_min                   =  -1.1040822493703E-06
(PID.TID 0000.0001) %MON vort_r_max                   =   1.0906270182483E-06
(PID.TID 0000.0001) %MON vort_a_mean                  =  -1.9976608796705E-05
(PID.TID 0000.0001) %MON vort_a_sd                    =   7.3718607669483E-05
(PID.TID 0000.0001) %MON vort_p_mean                  =  -2.3730263022063E-05
(PID.TID 0000.0001) %MON vort_p_sd                    =   1.0369749532830E-04
(PID.TID 0000.0001) %MON surfExpan_theta_mean         =  -3.7613656659652E-06
(PID.TID 0000.0001) %MON surfExpan_salt_mean          =  -6.0866155977458E-07
(PID.TID 0000.0001) // =======================================================
(PID.TID 0000.0001) // End MONITOR dynamic field statistics
(PID.TID 0000.0001) // =======================================================
 SH   5.2484301144941696        23.300155030698022     
 NH   10.410965029195040        25.556641789184368     
 SH   5.2484301144941696        23.300155030698022     
 NH   10.410965029195040        25.556641789184368     
 cg2d: Sum(rhs),rhsMax =   4.73399097700167E-13  7.50867967598464E+00
(PID.TID 0000.0001)                    cg2d_init_res =    2.03288849437572E-01
(PID.TID 0000.0001)                       cg2d_iters =    91
(PID.TID 0000.0001)                         cg2d_res =    8.52794081032638E-14
(PID.TID 0000.0001) // =======================================================
(PID.TID 0000.0001) // Begin MONITOR dynamic field statistics
(PID.TID 0000.0001) // =======================================================
(PID.TID 0000.0001) %MON time_tsnumber                =                     9
(PID.TID 0000.0001) %MON time_secondsf                =   3.8880000000000E+05
(PID.TID 0000.0001) %MON dynstat_eta_max              =   2.1650445418237E+00
(PID.TID 0000.0001) %MON dynstat_eta_min              =  -1.5002667381281E+00
(PID.TID 0000.0001) %MON dynstat_eta_mean             =  -5.6213615357311E-15
(PID.TID 0000.0001) %MON dynstat_eta_sd               =   5.6076059344219E-01
(PID.TID 0000.0001) %MON dynstat_eta_del2             =   2.3087578282494E-03
(PID.TID 0000.0001) %MON dynstat_uvel_max             =   2.4738600867854E-01
(PID.TID 0000.0001) %MON dynstat_uvel_min             =  -3.9013284460011E-01
(PID.TID 0000.0001) %MON dynstat_uvel_mean            =  -4.0990984522168E-04
(PID.TID 0000.0001) %MON dynstat_uvel_sd              =   9.3934129640117E-03
(PID.TID 0000.0001) %MON dynstat_uvel_del2            =   1.0356444310574E-04
(PID.TID 0000.0001) %MON dynstat_vvel_max             =   3.6284686145765E-01
(PID.TID 0000.0001) %MON dynstat_vvel_min             =  -5.3744897647724E-01
(PID.TID 0000.0001) %MON dynstat_vvel_mean            =   1.3868286288605E-04
(PID.TID 0000.0001) %MON dynstat_vvel_sd              =   1.2823625560717E-02
(PID.TID 0000.0001) %MON dynstat_vvel_del2            =   1.1222692097851E-04
(PID.TID 0000.0001) %MON dynstat_wvel_max             =   1.6807069722980E-03
(PID.TID 0000.0001) %MON dynstat_wvel_min             =  -1.0590280902243E-03
(PID.TID 0000.0001) %MON dynstat_wvel_mean            =  -6.5913298105149E-22
(PID.TID 0000.0001) %MON dynstat_wvel_sd              =   5.2664021566004E-05
(PID.TID 0000.0001) %MON dynstat_wvel_del2            =   6.8113995540187E-07
(PID.TID 0000.0001) %MON dynstat_theta_max            =   2.9175529952500E+01
(PID.TID 0000.0001) %MON dynstat_theta_min            =  -1.8556473019257E+00
(PID.TID 0000.0001) %MON dynstat_theta_mean           =   3.4374948839253E+00
(PID.TID 0000.0001) %MON dynstat_theta_sd             =   4.1091891369664E+00
(PID.TID 0000.0001) %MON dynstat_theta_del2           =   5.0293972056082E-03
(PID.TID 0000.0001) %MON dynstat_salt_max             =   3.7442892985962E+01
(PID.TID 0000.0001) %MON dynstat_salt_min             =   3.1039260191179E+01
(PID.TID 0000.0001) %MON dynstat_salt_mean            =   3.4715006441934E+01
(PID.TID 0000.0001) %MON dynstat_salt_sd              =   2.7630793187960E-01
(PID.TID 0000.0001) %MON dynstat_salt_del2            =   8.5287244289392E-04
(PID.TID 0000.0001) %MON forcing_qnet_max             =   1.2607580168402E+02
(PID.TID 0000.0001) %MON forcing_qnet_min             =  -3.5214720896643E+01
(PID.TID 0000.0001) %MON forcing_qnet_mean            =  -7.5972572624786E-01
(PID.TID 0000.0001) %MON forcing_qnet_sd              =   2.2109114954368E+01
(PID.TID 0000.0001) %MON forcing_qnet_del2            =   1.1086350712558E-01
(PID.TID 0000.0001) %MON forcing_qsw_max              =   0.0000000000000E+00
(PID.TID 0000.0001) %MON forcing_qsw_min              =   0.0000000000000E+00
(PID.TID 0000.0001) %MON forcing_qsw_mean             =   0.0000000000000E+00
(PID.TID 0000.0001) %MON forcing_qsw_sd               =   0.0000000000000E+00
(PID.TID 0000.0001) %MON forcing_qsw_del2             =   0.0000000000000E+00
(PID.TID 0000.0001) %MON forcing_empmr_max            =   3.7600374110707E-05
(PID.TID 0000.0001) %MON forcing_empmr_min            =  -1.7559553618097E-05
(PID.TID 0000.0001) %MON forcing_empmr_mean           =   1.5643147523703E-06
(PID.TID 0000.0001) %MON forcing_empmr_sd             =   1.1909008207927E-05
(PID.TID 0000.0001) %MON forcing_empmr_del2           =   7.3093651236608E-08
(PID.TID 0000.0001) %MON forcing_fu_max               =   1.6004334390163E-01
(PID.TID 0000.0001) %MON forcing_fu_min               =  -1.0329221189022E-01
(PID.TID 0000.0001) %MON forcing_fu_mean              =   4.1280488583042E-03
(PID.TID 0000.0001) %MON forcing_fu_sd                =   5.5800359441598E-02
(PID.TID 0000.0001) %MON forcing_fu_del2              =   3.2370368543277E-04
(PID.TID 0000.0001) %MON forcing_fv_max               =   8.4633164107800E-02
(PID.TID 0000.0001) %MON forcing_fv_min               =  -7.0490099489689E-02
(PID.TID 0000.0001) %MON forcing_fv_mean              =   2.8803575798275E-03
(PID.TID 0000.0001) %MON forcing_fv_sd                =   2.2193297771215E-02
(PID.TID 0000.0001) %MON forcing_fv_del2              =   2.1170835219132E-04
(PID.TID 0000.0001) %MON advcfl_uvel_max              =   3.8482919379639E-02
(PID.TID 0000.0001) %MON advcfl_vvel_max              =   5.2208858242125E-02
(PID.TID 0000.0001) %MON advcfl_wvel_max              =   1.8700560580506E-01
(PID.TID 0000.0001) %MON advcfl_W_hf_max              =   2.0075601799661E-01
(PID.TID 0000.0001) %MON pe_b_mean                    =   3.6482295791652E-04
(PID.TID 0000.0001) %MON ke_max                       =   7.9170305345504E-02
(PID.TID 0000.0001) %MON ke_mean                      =   1.1563920257486E-04
(PID.TID 0000.0001) %MON ke_vol                       =   1.4101703507225E+18
(PID.TID 0000.0001) %MON vort_r_min                   =  -1.2120888437681E-06
(PID.TID 0000.0001) %MON vort_r_max                   =   1.2096951256474E-06
(PID.TID 0000.0001) %MON vort_a_mean                  =  -1.9976608796705E-05
(PID.TID 0000.0001) %MON vort_a_sd                    =   7.3718637818398E-05
(PID.TID 0000.0001) %MON vort_p_mean                  =  -2.3730263022063E-05
(PID.TID 0000.0001) %MON vort_p_sd                    =   1.0369751186546E-04
(PID.TID 0000.0001) %MON surfExpan_theta_mean         =  -4.5766956449466E-06
(PID.TID 0000.0001) %MON surfExpan_salt_mean          =  -5.2982271800737E-07
(PID.TID 0000.0001) // =======================================================
(PID.TID 0000.0001) // End MONITOR dynamic field statistics
(PID.TID 0000.0001) // =======================================================
 SH   5.2542041359492941        23.303266303870714     
 NH   10.402332418694868        25.558401819850985     
 SH   5.2542041359492941        23.303266303870714     
 NH   10.402332418694868        25.558401819850985     
 cg2d: Sum(rhs),rhsMax =   4.62740956663765E-13  7.13635421945482E+00
(PID.TID 0000.0001)                    cg2d_init_res =    2.17680802385610E-01
(PID.TID 0000.0001)                       cg2d_iters =    90
(PID.TID 0000.0001)                         cg2d_res =    8.81864828751571E-14
(PID.TID 0000.0001) // =======================================================
(PID.TID 0000.0001) // Begin MONITOR dynamic field statistics
(PID.TID 0000.0001) // =======================================================
(PID.TID 0000.0001) %MON time_tsnumber                =                    10
(PID.TID 0000.0001) %MON time_secondsf                =   4.3200000000000E+05
(PID.TID 0000.0001) %MON dynstat_eta_max              =   2.1194712147789E+00
(PID.TID 0000.0001) %MON dynstat_eta_min              =  -1.4863919801894E+00
(PID.TID 0000.0001) %MON dynstat_eta_mean             =  -6.6631872070199E-15
(PID.TID 0000.0001) %MON dynstat_eta_sd               =   5.4961385501149E-01
(PID.TID 0000.0001) %MON dynstat_eta_del2             =   2.2465498836023E-03
(PID.TID 0000.0001) %MON dynstat_uvel_max             =   2.6766587341372E-01
(PID.TID 0000.0001) %MON dynstat_uvel_min             =  -4.2372854546771E-01
(PID.TID 0000.0001) %MON dynstat_uvel_mean            =  -2.6478435984239E-04
(PID.TID 0000.0001) %MON dynstat_uvel_sd              =   1.0504335475176E-02
(PID.TID 0000.0001) %MON dynstat_uvel_del2            =   1.1144692068747E-04
(PID.TID 0000.0001) %MON dynstat_vvel_max             =   3.9720023492535E-01
(PID.TID 0000.0001) %MON dynstat_vvel_min             =  -5.8561996993427E-01
(PID.TID 0000.0001) %MON dynstat_vvel_mean            =  -1.1686246874901E-04
(PID.TID 0000.0001) %MON dynstat_vvel_sd              =   1.3738399188202E-02
(PID.TID 0000.0001) %MON dynstat_vvel_del2            =   1.1805589507623E-04
(PID.TID 0000.0001) %MON dynstat_wvel_max             =   1.8394301788401E-03
(PID.TID 0000.0001) %MON dynstat_wvel_min             =  -1.1571174870631E-03
(PID.TID 0000.0001) %MON dynstat_wvel_mean            =  -4.5457446969068E-22
(PID.TID 0000.0001) %MON dynstat_wvel_sd              =   5.6672694880487E-05
(PID.TID 0000.0001) %MON dynstat_wvel_del2            =   7.2681304372578E-07
(PID.TID 0000.0001) %MON dynstat_theta_max            =   2.9160243081443E+01
(PID.TID 0000.0001) %MON dynstat_theta_min            =  -1.8561357278707E+00
(PID.TID 0000.0001) %MON dynstat_theta_mean           =   3.4375485290429E+00
(PID.TID 0000.0001) %MON dynstat_theta_sd             =   4.1093132476029E+00
(PID.TID 0000.0001) %MON dynstat_theta_del2           =   5.0063371278708E-03
(PID.TID 0000.0001) %MON dynstat_salt_max             =   3.7443416204355E+01
(PID.TID 0000.0001) %MON dynstat_salt_min             =   3.1040584152367E+01
(PID.TID 0000.0001) %MON dynstat_salt_mean            =   3.4715011769554E+01
(PID.TID 0000.0001) %MON dynstat_salt_sd              =   2.7631036046387E-01
(PID.TID 0000.0001) %MON dynstat_salt_del2            =   8.5188736887002E-04
(PID.TID 0000.0001) %MON forcing_qnet_max             =   1.2504796862018E+02
(PID.TID 0000.0001) %MON forcing_qnet_min             =  -3.5219889071164E+01
(PID.TID 0000.0001) %MON forcing_qnet_mean            =  -7.6052584317014E-01
(PID.TID 0000.0001) %MON forcing_qnet_sd              =   2.2003440371226E+01
(PID.TID 0000.0001) %MON forcing_qnet_del2            =   1.1056799132094E-01
(PID.TID 0000.0001) %MON forcing_qsw_max              =   0.0000000000000E+00
(PID.TID 0000.0001) %MON forcing_qsw_min              =   0.0000000000000E+00
(PID.TID 0000.0001) %MON forcing_qsw_mean             =   0.0000000000000E+00
(PID.TID 0000.0001) %MON forcing_qsw_sd               =   0.0000000000000E+00
(PID.TID 0000.0001) %MON forcing_qsw_del2             =   0.0000000000000E+00
(PID.TID 0000.0001) %MON forcing_empmr_max            =   3.7600374110707E-05
(PID.TID 0000.0001) %MON forcing_empmr_min            =  -1.7559553618097E-05
(PID.TID 0000.0001) %MON forcing_empmr_mean           =   1.5643147523703E-06
(PID.TID 0000.0001) %MON forcing_empmr_sd             =   1.1909008207927E-05
(PID.TID 0000.0001) %MON forcing_empmr_del2           =   7.3093651236608E-08
(PID.TID 0000.0001) %MON forcing_fu_max               =   1.6004334390163E-01
(PID.TID 0000.0001) %MON forcing_fu_min               =  -1.0329221189022E-01
(PID.TID 0000.0001) %MON forcing_fu_mean              =   4.1280488583042E-03
(PID.TID 0000.0001) %MON forcing_fu_sd                =   5.5800359441598E-02
(PID.TID 0000.0001) %MON forcing_fu_del2              =   3.2370368543277E-04
(PID.TID 0000.0001) %MON forcing_fv_max               =   8.4633164107800E-02
(PID.TID 0000.0001) %MON forcing_fv_min               =  -7.0490099489689E-02
(PID.TID 0000.0001) %MON forcing_fv_mean              =   2.8803575798275E-03
(PID.TID 0000.0001) %MON forcing_fv_sd                =   2.2193297771215E-02
(PID.TID 0000.0001) %MON forcing_fv_del2              =   2.1170835219132E-04
(PID.TID 0000.0001) %MON advcfl_uvel_max              =   4.1796817878279E-02
(PID.TID 0000.0001) %MON advcfl_vvel_max              =   5.6888283971549E-02
(PID.TID 0000.0001) %MON advcfl_wvel_max              =   2.0477502934627E-01
(PID.TID 0000.0001) %MON advcfl_W_hf_max              =   2.1983201679820E-01
(PID.TID 0000.0001) %MON pe_b_mean                    =   3.5046328802069E-04
(PID.TID 0000.0001) %MON ke_max                       =   9.4103532900472E-02
(PID.TID 0000.0001) %MON ke_mean                      =   1.3685105329191E-04
(PID.TID 0000.0001) %MON ke_vol                       =   1.4101703507225E+18
(PID.TID 0000.0001) %MON vort_r_min                   =  -1.3122789150756E-06
(PID.TID 0000.0001) %MON vort_r_max                   =   1.3247794457732E-06
(PID.TID 0000.0001) %MON vort_a_mean                  =  -1.9976608796705E-05
(PID.TID 0000.0001) %MON vort_a_sd                    =   7.3718670180669E-05
(PID.TID 0000.0001) %MON vort_p_mean                  =  -2.3730263022063E-05
(PID.TID 0000.0001) %MON vort_p_sd                    =   1.0369752891028E-04
(PID.TID 0000.0001) %MON surfExpan_theta_mean         =  -4.2061075237855E-06
(PID.TID 0000.0001) %MON surfExpan_salt_mean          =  -3.9202761028667E-07
(PID.TID 0000.0001) // =======================================================
(PID.TID 0000.0001) // End MONITOR dynamic field statistics
(PID.TID 0000.0001) // =======================================================
 SH   5.2600399099036395        23.306034378293475     
 NH   10.394646890277784        25.560572845205797     
 SH   5.2600399099036395        23.306034378293475     
 NH   10.394646890277784        25.560572845205797     
 cg2d: Sum(rhs),rhsMax =   5.80868686483882E-13  6.72826174090861E+00
(PID.TID 0000.0001)                    cg2d_init_res =    2.36387988483167E-01
(PID.TID 0000.0001)                       cg2d_iters =    91
(PID.TID 0000.0001)                         cg2d_res =    8.11410064959259E-14
(PID.TID 0000.0001) // =======================================================
(PID.TID 0000.0001) // Begin MONITOR dynamic field statistics
(PID.TID 0000.0001) // =======================================================
(PID.TID 0000.0001) %MON time_tsnumber                =                    11
(PID.TID 0000.0001) %MON time_secondsf                =   4.7520000000000E+05
(PID.TID 0000.0001) %MON dynstat_eta_max              =   2.0592000700311E+00
(PID.TID 0000.0001) %MON dynstat_eta_min              =  -1.4666244930417E+00
(PID.TID 0000.0001) %MON dynstat_eta_mean             =  -3.4102926650102E-15
(PID.TID 0000.0001) %MON dynstat_eta_sd               =   5.3811283329123E-01
(PID.TID 0000.0001) %MON dynstat_eta_del2             =   2.1886287820745E-03
(PID.TID 0000.0001) %MON dynstat_uvel_max             =   2.8599615325327E-01
(PID.TID 0000.0001) %MON dynstat_uvel_min             =  -4.5514045181248E-01
(PID.TID 0000.0001) %MON dynstat_uvel_mean            =  -1.1762932689296E-04
(PID.TID 0000.0001) %MON dynstat_uvel_sd              =   1.1613044105108E-02
(PID.TID 0000.0001) %MON dynstat_uvel_del2            =   1.1861612988798E-04
(PID.TID 0000.0001) %MON dynstat_vvel_max             =   4.3010419451256E-01
(PID.TID 0000.0001) %MON dynstat_vvel_min             =  -6.3080032472604E-01
(PID.TID 0000.0001) %MON dynstat_vvel_mean            =  -3.2238777270041E-04
(PID.TID 0000.0001) %MON dynstat_vvel_sd              =   1.4532735305177E-02
(PID.TID 0000.0001) %MON dynstat_vvel_del2            =   1.2237509379104E-04
(PID.TID 0000.0001) %MON dynstat_wvel_max             =   1.9901985051925E-03
(PID.TID 0000.0001) %MON dynstat_wvel_min             =  -1.2487037148140E-03
(PID.TID 0000.0001) %MON dynstat_wvel_mean            =   3.4093085226801E-23
(PID.TID 0000.0001) %MON dynstat_wvel_sd              =   6.0255454337706E-05
(PID.TID 0000.0001) %MON dynstat_wvel_del2            =   7.6574720078906E-07
(PID.TID 0000.0001) %MON dynstat_theta_max            =   2.9144648979261E+01
(PID.TID 0000.0001) %MON dynstat_theta_min            =  -1.8565467221805E+00
(PID.TID 0000.0001) %MON dynstat_theta_mean           =   3.4375911163710E+00
(PID.TID 0000.0001) %MON dynstat_theta_sd             =   4.1093998594622E+00
(PID.TID 0000.0001) %MON dynstat_theta_del2           =   4.9860100673740E-03
(PID.TID 0000.0001) %MON dynstat_salt_max             =   3.7443971514304E+01
(PID.TID 0000.0001) %MON dynstat_salt_min             =   3.1041476665125E+01
(PID.TID 0000.0001) %MON dynstat_salt_mean            =   3.4715015315184E+01
(PID.TID 0000.0001) %MON dynstat_salt_sd              =   2.7631563583358E-01
(PID.TID 0000.0001) %MON dynstat_salt_del2            =   8.5102751523186E-04
(PID.TID 0000.0001) %MON forcing_qnet_max             =   1.2407434190923E+02
(PID.TID 0000.0001) %MON forcing_qnet_min             =  -3.5229945573129E+01
(PID.TID 0000.0001) %MON forcing_qnet_mean            =  -7.6073990733795E-01
(PID.TID 0000.0001) %MON forcing_qnet_sd              =   2.1904926741607E+01
(PID.TID 0000.0001) %MON forcing_qnet_del2            =   1.1031171867048E-01
(PID.TID 0000.0001) %MON forcing_qsw_max              =   0.0000000000000E+00
(PID.TID 0000.0001) %MON forcing_qsw_min              =   0.0000000000000E+00
(PID.TID 0000.0001) %MON forcing_qsw_mean             =   0.0000000000000E+00
(PID.TID 0000.0001) %MON forcing_qsw_sd               =   0.0000000000000E+00
(PID.TID 0000.0001) %MON forcing_qsw_del2             =   0.0000000000000E+00
(PID.TID 0000.0001) %MON forcing_empmr_max            =   3.7600374110707E-05
(PID.TID 0000.0001) %MON forcing_empmr_min            =  -1.7559553618097E-05
(PID.TID 0000.0001) %MON forcing_empmr_mean           =   1.5643147523703E-06
(PID.TID 0000.0001) %MON forcing_empmr_sd             =   1.1909008207927E-05
(PID.TID 0000.0001) %MON forcing_empmr_del2           =   7.3093651236608E-08
(PID.TID 0000.0001) %MON forcing_fu_max               =   1.6004334390163E-01
(PID.TID 0000.0001) %MON forcing_fu_min               =  -1.0329221189022E-01
(PID.TID 0000.0001) %MON forcing_fu_mean              =   4.1280488583042E-03
(PID.TID 0000.0001) %MON forcing_fu_sd                =   5.5800359441598E-02
(PID.TID 0000.0001) %MON forcing_fu_del2              =   3.2370368543277E-04
(PID.TID 0000.0001) %MON forcing_fv_max               =   8.4633164107800E-02
(PID.TID 0000.0001) %MON forcing_fv_min               =  -7.0490099489689E-02
(PID.TID 0000.0001) %MON forcing_fv_mean              =   2.8803575798275E-03
(PID.TID 0000.0001) %MON forcing_fv_sd                =   2.2193297771215E-02
(PID.TID 0000.0001) %MON forcing_fv_del2              =   2.1170835219132E-04
(PID.TID 0000.0001) %MON advcfl_uvel_max              =   4.4895305678417E-02
(PID.TID 0000.0001) %MON advcfl_vvel_max              =   6.1277193136682E-02
(PID.TID 0000.0001) %MON advcfl_wvel_max              =   2.2167350862528E-01
(PID.TID 0000.0001) %MON advcfl_W_hf_max              =   2.3797303131832E-01
(PID.TID 0000.0001) %MON pe_b_mean                    =   3.3594941246897E-04
(PID.TID 0000.0001) %MON ke_max                       =   1.0934600340797E-01
(PID.TID 0000.0001) %MON ke_mean                      =   1.5840358510752E-04
(PID.TID 0000.0001) %MON ke_vol                       =   1.4101703507225E+18
(PID.TID 0000.0001) %MON vort_r_min                   =  -1.4042202166310E-06
(PID.TID 0000.0001) %MON vort_r_max                   =   1.4356704341759E-06
(PID.TID 0000.0001) %MON vort_a_mean                  =  -1.9976608796705E-05
(PID.TID 0000.0001) %MON vort_a_sd                    =   7.3718702636641E-05
(PID.TID 0000.0001) %MON vort_p_mean                  =  -2.3730263022063E-05
(PID.TID 0000.0001) %MON vort_p_sd                    =   1.0369754259518E-04
(PID.TID 0000.0001) %MON surfExpan_theta_mean         =  -3.2217672820471E-06
(PID.TID 0000.0001) %MON surfExpan_salt_mean          =  -2.4358456166309E-07
(PID.TID 0000.0001) // =======================================================
(PID.TID 0000.0001) // End MONITOR dynamic field statistics
(PID.TID 0000.0001) // =======================================================
 SH   5.2658237553761751        23.308436294575756     
 NH   10.387931796005716        25.562670281538317     
 SH   5.2658237553761751        23.308436294575756     
 NH   10.387931796005716        25.562670281538317     
 cg2d: Sum(rhs),rhsMax =   3.05533376376843E-13  6.29061611247721E+00
(PID.TID 0000.0001)                    cg2d_init_res =    2.59924516456659E-01
(PID.TID 0000.0001)                       cg2d_iters =    92
(PID.TID 0000.0001)                         cg2d_res =    7.20694075260383E-14
(PID.TID 0000.0001) // =======================================================
(PID.TID 0000.0001) // Begin MONITOR dynamic field statistics
(PID.TID 0000.0001) // =======================================================
(PID.TID 0000.0001) %MON time_tsnumber                =                    12
(PID.TID 0000.0001) %MON time_secondsf                =   5.1840000000000E+05
(PID.TID 0000.0001) %MON dynstat_eta_max              =   1.9928755006631E+00
(PID.TID 0000.0001) %MON dynstat_eta_min              =  -1.4362159514781E+00
(PID.TID 0000.0001) %MON dynstat_eta_mean             =  -2.5333602654362E-15
(PID.TID 0000.0001) %MON dynstat_eta_sd               =   5.2768295114355E-01
(PID.TID 0000.0001) %MON dynstat_eta_del2             =   2.1328986814299E-03
(PID.TID 0000.0001) %MON dynstat_uvel_max             =   3.0257614805537E-01
(PID.TID 0000.0001) %MON dynstat_uvel_min             =  -4.8424974056827E-01
(PID.TID 0000.0001) %MON dynstat_uvel_mean            =   2.3336707522511E-05
(PID.TID 0000.0001) %MON dynstat_uvel_sd              =   1.2708498816608E-02
(PID.TID 0000.0001) %MON dynstat_uvel_del2            =   1.2511793922329E-04
(PID.TID 0000.0001) %MON dynstat_vvel_max             =   4.6146139488189E-01
(PID.TID 0000.0001) %MON dynstat_vvel_min             =  -6.7277719263531E-01
(PID.TID 0000.0001) %MON dynstat_vvel_mean            =  -4.6255397930909E-04
(PID.TID 0000.0001) %MON dynstat_vvel_sd              =   1.5208299371302E-02
(PID.TID 0000.0001) %MON dynstat_vvel_del2            =   1.2524299311064E-04
(PID.TID 0000.0001) %MON dynstat_wvel_max             =   2.1322571478623E-03
(PID.TID 0000.0001) %MON dynstat_wvel_min             =  -1.3330384410740E-03
(PID.TID 0000.0001) %MON dynstat_wvel_mean            =  -3.9207048010821E-22
(PID.TID 0000.0001) %MON dynstat_wvel_sd              =   6.3418893282066E-05
(PID.TID 0000.0001) %MON dynstat_wvel_del2            =   7.9810277888994E-07
(PID.TID 0000.0001) %MON dynstat_theta_max            =   2.9128920081549E+01
(PID.TID 0000.0001) %MON dynstat_theta_min            =  -1.8568870735072E+00
(PID.TID 0000.0001) %MON dynstat_theta_mean           =   3.4376198828481E+00
(PID.TID 0000.0001) %MON dynstat_theta_sd             =   4.1094403152419E+00
(PID.TID 0000.0001) %MON dynstat_theta_del2           =   4.9686757852822E-03
(PID.TID 0000.0001) %MON dynstat_salt_max             =   3.7444544816130E+01
(PID.TID 0000.0001) %MON dynstat_salt_min             =   3.1042014490736E+01
(PID.TID 0000.0001) %MON dynstat_salt_mean            =   3.4715017266199E+01
(PID.TID 0000.0001) %MON dynstat_salt_sd              =   2.7632274084544E-01
(PID.TID 0000.0001) %MON dynstat_salt_del2            =   8.5029992353833E-04
(PID.TID 0000.0001) %MON forcing_qnet_max             =   1.2320366237980E+02
(PID.TID 0000.0001) %MON forcing_qnet_min             =  -3.5244294730474E+01
(PID.TID 0000.0001) %MON forcing_qnet_mean            =  -7.6085070988528E-01
(PID.TID 0000.0001) %MON forcing_qnet_sd              =   2.1818676739927E+01
(PID.TID 0000.0001) %MON forcing_qnet_del2            =   1.1010175452920E-01
(PID.TID 0000.0001) %MON forcing_qsw_max              =   0.0000000000000E+00
(PID.TID 0000.0001) %MON forcing_qsw_min              =   0.0000000000000E+00
(PID.TID 0000.0001) %MON forcing_qsw_mean             =   0.0000000000000E+00
(PID.TID 0000.0001) %MON forcing_qsw_sd               =   0.0000000000000E+00
(PID.TID 0000.0001) %MON forcing_qsw_del2             =   0.0000000000000E+00
(PID.TID 0000.0001) %MON forcing_empmr_max            =   3.7600374110707E-05
(PID.TID 0000.0001) %MON forcing_empmr_min            =  -1.7559553618097E-05
(PID.TID 0000.0001) %MON forcing_empmr_mean           =   1.5643147523703E-06
(PID.TID 0000.0001) %MON forcing_empmr_sd             =   1.1909008207927E-05
(PID.TID 0000.0001) %MON forcing_empmr_del2           =   7.3093651236608E-08
(PID.TID 0000.0001) %MON forcing_fu_max               =   1.6004334390163E-01
(PID.TID 0000.0001) %MON forcing_fu_min               =  -1.0329221189022E-01
(PID.TID 0000.0001) %MON forcing_fu_mean              =   4.1280488583042E-03
(PID.TID 0000.0001) %MON forcing_fu_sd                =   5.5800359441598E-02
(PID.TID 0000.0001) %MON forcing_fu_del2              =   3.2370368543277E-04
(PID.TID 0000.0001) %MON forcing_fv_max               =   8.4633164107800E-02
(PID.TID 0000.0001) %MON forcing_fv_min               =  -7.0490099489689E-02
(PID.TID 0000.0001) %MON forcing_fv_mean              =   2.8803575798275E-03
(PID.TID 0000.0001) %MON forcing_fv_sd                =   2.2193297771215E-02
(PID.TID 0000.0001) %MON forcing_fv_del2              =   2.1170835219132E-04
(PID.TID 0000.0001) %MON advcfl_uvel_max              =   4.7766662007146E-02
(PID.TID 0000.0001) %MON advcfl_vvel_max              =   6.5354909240057E-02
(PID.TID 0000.0001) %MON advcfl_wvel_max              =   2.3761855769581E-01
(PID.TID 0000.0001) %MON advcfl_W_hf_max              =   2.5509051046756E-01
(PID.TID 0000.0001) %MON pe_b_mean                    =   3.2305265341494E-04
(PID.TID 0000.0001) %MON ke_max                       =   1.2460826432755E-01
(PID.TID 0000.0001) %MON ke_mean                      =   1.7988828027924E-04
(PID.TID 0000.0001) %MON ke_vol                       =   1.4101703507225E+18
(PID.TID 0000.0001) %MON vort_r_min                   =  -1.4876037707647E-06
(PID.TID 0000.0001) %MON vort_r_max                   =   1.5420014055806E-06
(PID.TID 0000.0001) %MON vort_a_mean                  =  -1.9976608796705E-05
(PID.TID 0000.0001) %MON vort_a_sd                    =   7.3718733054963E-05
(PID.TID 0000.0001) %MON vort_p_mean                  =  -2.3730263022064E-05
(PID.TID 0000.0001) %MON vort_p_sd                    =   1.0369754829882E-04
(PID.TID 0000.0001) %MON surfExpan_theta_mean         =  -2.0954049828418E-06
(PID.TID 0000.0001) %MON surfExpan_salt_mean          =  -1.1886347204285E-07
(PID.TID 0000.0001) // =======================================================
(PID.TID 0000.0001) // End MONITOR dynamic field statistics
(PID.TID 0000.0001) // =======================================================
 SH   5.2714235394728348        23.310527091229915     
 NH   10.381968237103536        25.564392021505057     
 SH   5.2714235394728348        23.310527091229915     
 NH   10.381968237103536        25.564392021505057     
 cg2d: Sum(rhs),rhsMax =   2.64677169070637E-13  5.82354057585759E+00
(PID.TID 0000.0001)                    cg2d_init_res =    2.86508047806503E-01
(PID.TID 0000.0001)                       cg2d_iters =    92
(PID.TID 0000.0001)                         cg2d_res =    7.21175222709672E-14
(PID.TID 0000.0001) // =======================================================
(PID.TID 0000.0001) // Begin MONITOR dynamic field statistics
(PID.TID 0000.0001) // =======================================================
(PID.TID 0000.0001) %MON time_tsnumber                =                    13
(PID.TID 0000.0001) %MON time_secondsf                =   5.6160000000000E+05
(PID.TID 0000.0001) %MON dynstat_eta_max              =   1.9249012420753E+00
(PID.TID 0000.0001) %MON dynstat_eta_min              =  -1.4030629161399E+00
(PID.TID 0000.0001) %MON dynstat_eta_mean             =  -2.4733990757217E-15
(PID.TID 0000.0001) %MON dynstat_eta_sd               =   5.1954386244620E-01
(PID.TID 0000.0001) %MON dynstat_eta_del2             =   2.0789332441901E-03
(PID.TID 0000.0001) %MON dynstat_uvel_max             =   3.1861720276374E-01
(PID.TID 0000.0001) %MON dynstat_uvel_min             =  -5.1092507790804E-01
(PID.TID 0000.0001) %MON dynstat_uvel_mean            =   1.5131157118856E-04
(PID.TID 0000.0001) %MON dynstat_uvel_sd              =   1.3778942788660E-02
(PID.TID 0000.0001) %MON dynstat_uvel_del2            =   1.3099809965090E-04
(PID.TID 0000.0001) %MON dynstat_vvel_max             =   4.9115098718931E-01
(PID.TID 0000.0001) %MON dynstat_vvel_min             =  -7.1136278679501E-01
(PID.TID 0000.0001) %MON dynstat_vvel_mean            =  -5.3416987933037E-04
(PID.TID 0000.0001) %MON dynstat_vvel_sd              =   1.5768455570266E-02
(PID.TID 0000.0001) %MON dynstat_vvel_del2            =   1.2675351227614E-04
(PID.TID 0000.0001) %MON dynstat_wvel_max             =   2.2648310287618E-03
(PID.TID 0000.0001) %MON dynstat_wvel_min             =  -1.4093421327286E-03
(PID.TID 0000.0001) %MON dynstat_wvel_mean            =   5.1139627840202E-22
(PID.TID 0000.0001) %MON dynstat_wvel_sd              =   6.6172909524054E-05
(PID.TID 0000.0001) %MON dynstat_wvel_del2            =   8.2411798990153E-07
(PID.TID 0000.0001) %MON dynstat_theta_max            =   2.9113299160531E+01
(PID.TID 0000.0001) %MON dynstat_theta_min            =  -1.8571677439948E+00
(PID.TID 0000.0001) %MON dynstat_theta_mean           =   3.4376362706251E+00
(PID.TID 0000.0001) %MON dynstat_theta_sd             =   4.1094415020629E+00
(PID.TID 0000.0001) %MON dynstat_theta_del2           =   4.9545034678860E-03
(PID.TID 0000.0001) %MON dynstat_salt_max             =   3.7445123446454E+01
(PID.TID 0000.0001) %MON dynstat_salt_min             =   3.1042316116020E+01
(PID.TID 0000.0001) %MON dynstat_salt_mean            =   3.4715018075831E+01
(PID.TID 0000.0001) %MON dynstat_salt_sd              =   2.7633038922771E-01
(PID.TID 0000.0001) %MON dynstat_salt_del2            =   8.4970269824303E-04
(PID.TID 0000.0001) %MON forcing_qnet_max             =   1.2244320473970E+02
(PID.TID 0000.0001) %MON forcing_qnet_min             =  -3.5261195497219E+01
(PID.TID 0000.0001) %MON forcing_qnet_mean            =  -7.6123372996403E-01
(PID.TID 0000.0001) %MON forcing_qnet_sd              =   2.1745000286315E+01
(PID.TID 0000.0001) %MON forcing_qnet_del2            =   1.0993107043241E-01
(PID.TID 0000.0001) %MON forcing_qsw_max              =   0.0000000000000E+00
(PID.TID 0000.0001) %MON forcing_qsw_min              =   0.0000000000000E+00
(PID.TID 0000.0001) %MON forcing_qsw_mean             =   0.0000000000000E+00
(PID.TID 0000.0001) %MON forcing_qsw_sd               =   0.0000000000000E+00
(PID.TID 0000.0001) %MON forcing_qsw_del2             =   0.0000000000000E+00
(PID.TID 0000.0001) %MON forcing_empmr_max            =   3.7600374110707E-05
(PID.TID 0000.0001) %MON forcing_empmr_min            =  -1.7559553618097E-05
(PID.TID 0000.0001) %MON forcing_empmr_mean           =   1.5643147523703E-06
(PID.TID 0000.0001) %MON forcing_empmr_sd             =   1.1909008207927E-05
(PID.TID 0000.0001) %MON forcing_empmr_del2           =   7.3093651236608E-08
(PID.TID 0000.0001) %MON forcing_fu_max               =   1.6004334390163E-01
(PID.TID 0000.0001) %MON forcing_fu_min               =  -1.0329221189022E-01
(PID.TID 0000.0001) %MON forcing_fu_mean              =   4.1280488583042E-03
(PID.TID 0000.0001) %MON forcing_fu_sd                =   5.5800359441598E-02
(PID.TID 0000.0001) %MON forcing_fu_del2              =   3.2370368543277E-04
(PID.TID 0000.0001) %MON forcing_fv_max               =   8.4633164107800E-02
(PID.TID 0000.0001) %MON forcing_fv_min               =  -7.0490099489689E-02
(PID.TID 0000.0001) %MON forcing_fv_mean              =   2.8803575798275E-03
(PID.TID 0000.0001) %MON forcing_fv_sd                =   2.2193297771215E-02
(PID.TID 0000.0001) %MON forcing_fv_del2              =   2.1170835219132E-04
(PID.TID 0000.0001) %MON advcfl_uvel_max              =   5.0397932023193E-02
(PID.TID 0000.0001) %MON advcfl_vvel_max              =   6.9103190293407E-02
(PID.TID 0000.0001) %MON advcfl_wvel_max              =   2.5252489849344E-01
(PID.TID 0000.0001) %MON advcfl_W_hf_max              =   2.7109290573560E-01
(PID.TID 0000.0001) %MON pe_b_mean                    =   3.1316385049424E-04
(PID.TID 0000.0001) %MON ke_max                       =   1.3984963131520E-01
(PID.TID 0000.0001) %MON ke_mean                      =   2.0091456683061E-04
(PID.TID 0000.0001) %MON ke_vol                       =   1.4101703507225E+18
(PID.TID 0000.0001) %MON vort_r_min                   =  -1.5622311004810E-06
(PID.TID 0000.0001) %MON vort_r_max                   =   1.6432688305205E-06
(PID.TID 0000.0001) %MON vort_a_mean                  =  -1.9976608796705E-05
(PID.TID 0000.0001) %MON vort_a_sd                    =   7.3718759712688E-05
(PID.TID 0000.0001) %MON vort_p_mean                  =  -2.3730263022063E-05
(PID.TID 0000.0001) %MON vort_p_sd                    =   1.0369754225728E-04
(PID.TID 0000.0001) %MON surfExpan_theta_mean         =  -1.1417286179321E-06
(PID.TID 0000.0001) %MON surfExpan_salt_mean          =  -3.6600663336860E-08
(PID.TID 0000.0001) // =======================================================
(PID.TID 0000.0001) // End MONITOR dynamic field statistics
(PID.TID 0000.0001) // =======================================================
 SH   5.2766969400194057        23.312391248058418     
 NH   10.376388653533922        25.565627357111339     
 SH   5.2766969400194057        23.312391248058418     
 NH   10.376388653533922        25.565627357111339     
 cg2d: Sum(rhs),rhsMax =   2.70006239588838E-13  5.32772671031810E+00
(PID.TID 0000.0001)                    cg2d_init_res =    3.14753081410327E-01
(PID.TID 0000.0001)                       cg2d_iters =    92
(PID.TID 0000.0001)                         cg2d_res =    6.97286860698660E-14
(PID.TID 0000.0001) // =======================================================
(PID.TID 0000.0001) // Begin MONITOR dynamic field statistics
(PID.TID 0000.0001) // =======================================================
(PID.TID 0000.0001) %MON time_tsnumber                =                    14
(PID.TID 0000.0001) %MON time_secondsf                =   6.0480000000000E+05
(PID.TID 0000.0001) %MON dynstat_eta_max              =   1.8680291640994E+00
(PID.TID 0000.0001) %MON dynstat_eta_min              =  -1.3932081893919E+00
(PID.TID 0000.0001) %MON dynstat_eta_mean             =  -2.4733990757217E-15
(PID.TID 0000.0001) %MON dynstat_eta_sd               =   5.1424829610383E-01
(PID.TID 0000.0001) %MON dynstat_eta_del2             =   2.0292967292645E-03
(PID.TID 0000.0001) %MON dynstat_uvel_max             =   3.3295537998176E-01
(PID.TID 0000.0001) %MON dynstat_uvel_min             =  -5.3504343213334E-01
(PID.TID 0000.0001) %MON dynstat_uvel_mean            =   2.6164798661409E-04
(PID.TID 0000.0001) %MON dynstat_uvel_sd              =   1.4812199268608E-02
(PID.TID 0000.0001) %MON dynstat_uvel_del2            =   1.3629546392786E-04
(PID.TID 0000.0001) %MON dynstat_vvel_max             =   5.1904482659287E-01
(PID.TID 0000.0001) %MON dynstat_vvel_min             =  -7.4638922111542E-01
(PID.TID 0000.0001) %MON dynstat_vvel_mean            =  -5.4371146809640E-04
(PID.TID 0000.0001) %MON dynstat_vvel_sd              =   1.6219049154988E-02
(PID.TID 0000.0001) %MON dynstat_vvel_del2            =   1.2703649293187E-04
(PID.TID 0000.0001) %MON dynstat_wvel_max             =   2.3871230140555E-03
(PID.TID 0000.0001) %MON dynstat_wvel_min             =  -1.4768380336659E-03
(PID.TID 0000.0001) %MON dynstat_wvel_mean            =   4.2616356533502E-23
(PID.TID 0000.0001) %MON dynstat_wvel_sd              =   6.8530199502581E-05
(PID.TID 0000.0001) %MON dynstat_wvel_del2            =   8.4408757290975E-07
(PID.TID 0000.0001) %MON dynstat_theta_max            =   2.9097999936586E+01
(PID.TID 0000.0001) %MON dynstat_theta_min            =  -1.8574032009290E+00
(PID.TID 0000.0001) %MON dynstat_theta_mean           =   3.4376439754256E+00
(PID.TID 0000.0001) %MON dynstat_theta_sd             =   4.1094176563714E+00
(PID.TID 0000.0001) %MON dynstat_theta_del2           =   4.9433295347696E-03
(PID.TID 0000.0001) %MON dynstat_salt_max             =   3.7445698187485E+01
(PID.TID 0000.0001) %MON dynstat_salt_min             =   3.1042522021565E+01
(PID.TID 0000.0001) %MON dynstat_salt_mean            =   3.4715018293069E+01
(PID.TID 0000.0001) %MON dynstat_salt_sd              =   2.7633739417321E-01
(PID.TID 0000.0001) %MON dynstat_salt_del2            =   8.4922638765181E-04
(PID.TID 0000.0001) %MON forcing_qnet_max             =   1.2176706815648E+02
(PID.TID 0000.0001) %MON forcing_qnet_min             =  -3.5278450705855E+01
(PID.TID 0000.0001) %MON forcing_qnet_mean            =  -7.6216272892329E-01
(PID.TID 0000.0001) %MON forcing_qnet_sd              =   2.1680510981965E+01
(PID.TID 0000.0001) %MON forcing_qnet_del2            =   1.0978381347341E-01
(PID.TID 0000.0001) %MON forcing_qsw_max              =   0.0000000000000E+00
(PID.TID 0000.0001) %MON forcing_qsw_min              =   0.0000000000000E+00
(PID.TID 0000.0001) %MON forcing_qsw_mean             =   0.0000000000000E+00
(PID.TID 0000.0001) %MON forcing_qsw_sd               =   0.0000000000000E+00
(PID.TID 0000.0001) %MON forcing_qsw_del2             =   0.0000000000000E+00
(PID.TID 0000.0001) %MON forcing_empmr_max            =   3.7600374110707E-05
(PID.TID 0000.0001) %MON forcing_empmr_min            =  -1.7559553618097E-05
(PID.TID 0000.0001) %MON forcing_empmr_mean           =   1.5643147523703E-06
(PID.TID 0000.0001) %MON forcing_empmr_sd             =   1.1909008207927E-05
(PID.TID 0000.0001) %MON forcing_empmr_del2           =   7.3093651236608E-08
(PID.TID 0000.0001) %MON forcing_fu_max               =   1.6004334390163E-01
(PID.TID 0000.0001) %MON forcing_fu_min               =  -1.0329221189022E-01
(PID.TID 0000.0001) %MON forcing_fu_mean              =   4.1280488583042E-03
(PID.TID 0000.0001) %MON forcing_fu_sd                =   5.5800359441598E-02
(PID.TID 0000.0001) %MON forcing_fu_del2              =   3.2370368543277E-04
(PID.TID 0000.0001) %MON forcing_fv_max               =   8.4633164107800E-02
(PID.TID 0000.0001) %MON forcing_fv_min               =  -7.0490099489689E-02
(PID.TID 0000.0001) %MON forcing_fv_mean              =   2.8803575798275E-03
(PID.TID 0000.0001) %MON forcing_fv_sd                =   2.2193297771215E-02
(PID.TID 0000.0001) %MON forcing_fv_del2              =   2.1170835219132E-04
(PID.TID 0000.0001) %MON advcfl_uvel_max              =   5.2776979811833E-02
(PID.TID 0000.0001) %MON advcfl_vvel_max              =   7.2505727509400E-02
(PID.TID 0000.0001) %MON advcfl_wvel_max              =   2.6629799909862E-01
(PID.TID 0000.0001) %MON advcfl_W_hf_max              =   2.8587873432646E-01
(PID.TID 0000.0001) %MON pe_b_mean                    =   3.0681240122343E-04
(PID.TID 0000.0001) %MON ke_max                       =   1.5499818212360E-01
(PID.TID 0000.0001) %MON ke_mean                      =   2.2113552086352E-04
(PID.TID 0000.0001) %MON ke_vol                       =   1.4101703507225E+18
(PID.TID 0000.0001) %MON vort_r_min                   =  -1.6279837157601E-06
(PID.TID 0000.0001) %MON vort_r_max                   =   1.7389089975855E-06
(PID.TID 0000.0001) %MON vort_a_mean                  =  -1.9976608796705E-05
(PID.TID 0000.0001) %MON vort_a_sd                    =   7.3718781485721E-05
(PID.TID 0000.0001) %MON vort_p_mean                  =  -2.3730263022064E-05
(PID.TID 0000.0001) %MON vort_p_sd                    =   1.0369752232679E-04
(PID.TID 0000.0001) %MON surfExpan_theta_mean         =  -5.0390273878448E-07
(PID.TID 0000.0001) %MON surfExpan_salt_mean          =  -7.8404518247256E-10
(PID.TID 0000.0001) // =======================================================
(PID.TID 0000.0001) // End MONITOR dynamic field statistics
(PID.TID 0000.0001) // =======================================================
 SH   5.2815003385481987        23.314118302141765     
 NH   10.370786591431056        25.566397306321107     
 SH   5.2815003385481987        23.314118302141765     
 NH   10.370786591431056        25.566397306321107     
 cg2d: Sum(rhs),rhsMax =   2.86881629563140E-13  4.81328439449782E+00
(PID.TID 0000.0001)                    cg2d_init_res =    3.44303650573569E-01
(PID.TID 0000.0001)                       cg2d_iters =    91
(PID.TID 0000.0001)                         cg2d_res =    9.49599157006082E-14
(PID.TID 0000.0001) // =======================================================
(PID.TID 0000.0001) // Begin MONITOR dynamic field statistics
(PID.TID 0000.0001) // =======================================================
(PID.TID 0000.0001) %MON time_tsnumber                =                    15
(PID.TID 0000.0001) %MON time_secondsf                =   6.4800000000000E+05
(PID.TID 0000.0001) %MON dynstat_eta_max              =   1.9659011851927E+00
(PID.TID 0000.0001) %MON dynstat_eta_min              =  -1.3822523784344E+00
(PID.TID 0000.0001) %MON dynstat_eta_mean             =  -3.1254770138665E-15
(PID.TID 0000.0001) %MON dynstat_eta_sd               =   5.1166600124902E-01
(PID.TID 0000.0001) %MON dynstat_eta_del2             =   1.9883608547296E-03
(PID.TID 0000.0001) %MON dynstat_uvel_max             =   3.4558440245036E-01
(PID.TID 0000.0001) %MON dynstat_uvel_min             =  -5.5651168984415E-01
(PID.TID 0000.0001) %MON dynstat_uvel_mean            =   3.5174587621421E-04
(PID.TID 0000.0001) %MON dynstat_uvel_sd              =   1.5796013641545E-02
(PID.TID 0000.0001) %MON dynstat_uvel_del2            =   1.4104121378022E-04
(PID.TID 0000.0001) %MON dynstat_vvel_max             =   5.4503010974169E-01
(PID.TID 0000.0001) %MON dynstat_vvel_min             =  -7.7767751655082E-01
(PID.TID 0000.0001) %MON dynstat_vvel_mean            =  -5.0356893868600E-04
(PID.TID 0000.0001) %MON dynstat_vvel_sd              =   1.6568490043287E-02
(PID.TID 0000.0001) %MON dynstat_vvel_del2            =   1.2625868032375E-04
(PID.TID 0000.0001) %MON dynstat_wvel_max             =   2.4982583542616E-03
(PID.TID 0000.0001) %MON dynstat_wvel_min             =  -1.5347034136587E-03
(PID.TID 0000.0001) %MON dynstat_wvel_mean            =  -1.3140043264496E-22
(PID.TID 0000.0001) %MON dynstat_wvel_sd              =   7.0505518253174E-05
(PID.TID 0000.0001) %MON dynstat_wvel_del2            =   8.5834413559078E-07
(PID.TID 0000.0001) %MON dynstat_theta_max            =   2.9083147953830E+01
(PID.TID 0000.0001) %MON dynstat_theta_min            =  -1.8576088104365E+00
(PID.TID 0000.0001) %MON dynstat_theta_mean           =   3.4376471044198E+00
(PID.TID 0000.0001) %MON dynstat_theta_sd             =   4.1093832108054E+00
(PID.TID 0000.0001) %MON dynstat_theta_del2           =   4.9344802370657E-03
(PID.TID 0000.0001) %MON dynstat_salt_max             =   3.7446263528486E+01
(PID.TID 0000.0001) %MON dynstat_salt_min             =   3.1042766130060E+01
(PID.TID 0000.0001) %MON dynstat_salt_mean            =   3.4715018417382E+01
(PID.TID 0000.0001) %MON dynstat_salt_sd              =   2.7634293385484E-01
(PID.TID 0000.0001) %MON dynstat_salt_del2            =   8.4885357526538E-04
(PID.TID 0000.0001) %MON forcing_qnet_max             =   1.2113275084435E+02
(PID.TID 0000.0001) %MON forcing_qnet_min             =  -3.5293790030555E+01
(PID.TID 0000.0001) %MON forcing_qnet_mean            =  -7.6381224830070E-01
(PID.TID 0000.0001) %MON forcing_qnet_sd              =   2.1620028494848E+01
(PID.TID 0000.0001) %MON forcing_qnet_del2            =   1.0964105285206E-01
(PID.TID 0000.0001) %MON forcing_qsw_max              =   0.0000000000000E+00
(PID.TID 0000.0001) %MON forcing_qsw_min              =   0.0000000000000E+00
(PID.TID 0000.0001) %MON forcing_qsw_mean             =   0.0000000000000E+00
(PID.TID 0000.0001) %MON forcing_qsw_sd               =   0.0000000000000E+00
(PID.TID 0000.0001) %MON forcing_qsw_del2             =   0.0000000000000E+00
(PID.TID 0000.0001) %MON forcing_empmr_max            =   3.7600374110707E-05
(PID.TID 0000.0001) %MON forcing_empmr_min            =  -1.7559553618097E-05
(PID.TID 0000.0001) %MON forcing_empmr_mean           =   1.5643147523703E-06
(PID.TID 0000.0001) %MON forcing_empmr_sd             =   1.1909008207927E-05
(PID.TID 0000.0001) %MON forcing_empmr_del2           =   7.3093651236608E-08
(PID.TID 0000.0001) %MON forcing_fu_max               =   1.6004334390163E-01
(PID.TID 0000.0001) %MON forcing_fu_min               =  -1.0329221189022E-01
(PID.TID 0000.0001) %MON forcing_fu_mean              =   4.1280488583042E-03
(PID.TID 0000.0001) %MON forcing_fu_sd                =   5.5800359441598E-02
(PID.TID 0000.0001) %MON forcing_fu_del2              =   3.2370368543277E-04
(PID.TID 0000.0001) %MON forcing_fv_max               =   8.4633164107800E-02
(PID.TID 0000.0001) %MON forcing_fv_min               =  -7.0490099489689E-02
(PID.TID 0000.0001) %MON forcing_fv_mean              =   2.8803575798275E-03
(PID.TID 0000.0001) %MON forcing_fv_sd                =   2.2193297771215E-02
(PID.TID 0000.0001) %MON forcing_fv_del2              =   2.1170835219132E-04
(PID.TID 0000.0001) %MON advcfl_uvel_max              =   5.4894620615834E-02
(PID.TID 0000.0001) %MON advcfl_vvel_max              =   7.5545134508985E-02
(PID.TID 0000.0001) %MON advcfl_wvel_max              =   2.7883679358792E-01
(PID.TID 0000.0001) %MON advcfl_W_hf_max              =   2.9933949899879E-01
(PID.TID 0000.0001) %MON pe_b_mean                    =   3.0373882421357E-04
(PID.TID 0000.0001) %MON ke_max                       =   1.6955973912398E-01
(PID.TID 0000.0001) %MON ke_mean                      =   2.4025567520387E-04
(PID.TID 0000.0001) %MON ke_vol                       =   1.4101703507225E+18
(PID.TID 0000.0001) %MON vort_r_min                   =  -1.6847325620119E-06
(PID.TID 0000.0001) %MON vort_r_max                   =   1.8283528832735E-06
(PID.TID 0000.0001) %MON vort_a_mean                  =  -1.9976608796705E-05
(PID.TID 0000.0001) %MON vort_a_sd                    =   7.3718797812289E-05
(PID.TID 0000.0001) %MON vort_p_mean                  =  -2.3730263022064E-05
(PID.TID 0000.0001) %MON vort_p_sd                    =   1.0369748801591E-04
(PID.TID 0000.0001) %MON surfExpan_theta_mean         =  -1.7949986591969E-07
(PID.TID 0000.0001) %MON surfExpan_salt_mean          =  -3.9623333869196E-09
(PID.TID 0000.0001) // =======================================================
(PID.TID 0000.0001) // End MONITOR dynamic field statistics
(PID.TID 0000.0001) // =======================================================
 SH   5.2856965016658819        23.315790314926005     
 NH   10.364805610096198        25.566780027675406     
 SH   5.2856965016658819        23.315790314926005     
 NH   10.364805610096198        25.566780027675406     
 cg2d: Sum(rhs),rhsMax =   4.20996570937859E-13  4.27688077868650E+00
(PID.TID 0000.0001)                    cg2d_init_res =    3.77925763730565E-01
(PID.TID 0000.0001)                       cg2d_iters =    90
(PID.TID 0000.0001)                         cg2d_res =    9.22204874012534E-14
(PID.TID 0000.0001) // =======================================================
(PID.TID 0000.0001) // Begin MONITOR dynamic field statistics
(PID.TID 0000.0001) // =======================================================
(PID.TID 0000.0001) %MON time_tsnumber                =                    16
(PID.TID 0000.0001) %MON time_secondsf                =   6.9120000000000E+05
(PID.TID 0000.0001) %MON dynstat_eta_max              =   1.9985890561726E+00
(PID.TID 0000.0001) %MON dynstat_eta_min              =  -1.3704297564082E+00
(PID.TID 0000.0001) %MON dynstat_eta_mean             =  -3.3353411778671E-15
(PID.TID 0000.0001) %MON dynstat_eta_sd               =   5.1136679449263E-01
(PID.TID 0000.0001) %MON dynstat_eta_del2             =   1.9588717795091E-03
(PID.TID 0000.0001) %MON dynstat_uvel_max             =   3.5650449693135E-01
(PID.TID 0000.0001) %MON dynstat_uvel_min             =  -5.7525137856940E-01
(PID.TID 0000.0001) %MON dynstat_uvel_mean            =   4.2057128924496E-04
(PID.TID 0000.0001) %MON dynstat_uvel_sd              =   1.6718407974618E-02
(PID.TID 0000.0001) %MON dynstat_uvel_del2            =   1.4525268598924E-04
(PID.TID 0000.0001) %MON dynstat_vvel_max             =   5.6899419952821E-01
(PID.TID 0000.0001) %MON dynstat_vvel_min             =  -8.0505115284497E-01
(PID.TID 0000.0001) %MON dynstat_vvel_mean            =  -4.2849963354107E-04
(PID.TID 0000.0001) %MON dynstat_vvel_sd              =   1.6827383658533E-02
(PID.TID 0000.0001) %MON dynstat_vvel_del2            =   1.2462186461882E-04
(PID.TID 0000.0001) %MON dynstat_wvel_max             =   2.5974430209150E-03
(PID.TID 0000.0001) %MON dynstat_wvel_min             =  -1.5821333287129E-03
(PID.TID 0000.0001) %MON dynstat_wvel_mean            =   3.8070611836595E-22
(PID.TID 0000.0001) %MON dynstat_wvel_sd              =   7.2114532085483E-05
(PID.TID 0000.0001) %MON dynstat_wvel_del2            =   8.6722840448943E-07
(PID.TID 0000.0001) %MON dynstat_theta_max            =   2.9068766315484E+01
(PID.TID 0000.0001) %MON dynstat_theta_min            =  -1.8746769021104E+00
(PID.TID 0000.0001) %MON dynstat_theta_mean           =   3.4376488474499E+00
(PID.TID 0000.0001) %MON dynstat_theta_sd             =   4.1093479901899E+00
(PID.TID 0000.0001) %MON dynstat_theta_del2           =   4.9245659181766E-03
(PID.TID 0000.0001) %MON dynstat_salt_max             =   3.7446816941314E+01
(PID.TID 0000.0001) %MON dynstat_salt_min             =   3.1043147107640E+01
(PID.TID 0000.0001) %MON dynstat_salt_mean            =   3.4715018802086E+01
(PID.TID 0000.0001) %MON dynstat_salt_sd              =   2.7634660991796E-01
(PID.TID 0000.0001) %MON dynstat_salt_del2            =   8.4854075571878E-04
(PID.TID 0000.0001) %MON forcing_qnet_max             =   1.2049716193572E+02
(PID.TID 0000.0001) %MON forcing_qnet_min             =  -3.5305090580664E+01
(PID.TID 0000.0001) %MON forcing_qnet_mean            =  -7.6626898214127E-01
(PID.TID 0000.0001) %MON forcing_qnet_sd              =   2.1558360772660E+01
(PID.TID 0000.0001) %MON forcing_qnet_del2            =   1.0948528895849E-01
(PID.TID 0000.0001) %MON forcing_qsw_max              =   0.0000000000000E+00
(PID.TID 0000.0001) %MON forcing_qsw_min              =   0.0000000000000E+00
(PID.TID 0000.0001) %MON forcing_qsw_mean             =   0.0000000000000E+00
(PID.TID 0000.0001) %MON forcing_qsw_sd               =   0.0000000000000E+00
(PID.TID 0000.0001) %MON forcing_qsw_del2             =   0.0000000000000E+00
(PID.TID 0000.0001) %MON forcing_empmr_max            =   3.7600374110707E-05
(PID.TID 0000.0001) %MON forcing_empmr_min            =  -1.7559553618097E-05
(PID.TID 0000.0001) %MON forcing_empmr_mean           =   1.5643147523703E-06
(PID.TID 0000.0001) %MON forcing_empmr_sd             =   1.1909008207927E-05
(PID.TID 0000.0001) %MON forcing_empmr_del2           =   7.3093651236608E-08
(PID.TID 0000.0001) %MON forcing_fu_max               =   1.6004334390163E-01
(PID.TID 0000.0001) %MON forcing_fu_min               =  -1.0329221189022E-01
(PID.TID 0000.0001) %MON forcing_fu_mean              =   4.1280488583042E-03
(PID.TID 0000.0001) %MON forcing_fu_sd                =   5.5800359441598E-02
(PID.TID 0000.0001) %MON forcing_fu_del2              =   3.2370368543277E-04
(PID.TID 0000.0001) %MON forcing_fv_max               =   8.4633164107800E-02
(PID.TID 0000.0001) %MON forcing_fv_min               =  -7.0490099489689E-02
(PID.TID 0000.0001) %MON forcing_fv_mean              =   2.8803575798275E-03
(PID.TID 0000.0001) %MON forcing_fv_sd                =   2.2193297771215E-02
(PID.TID 0000.0001) %MON forcing_fv_del2              =   2.1170835219132E-04
(PID.TID 0000.0001) %MON advcfl_uvel_max              =   5.6743113867287E-02
(PID.TID 0000.0001) %MON advcfl_vvel_max              =   7.8204263764789E-02
(PID.TID 0000.0001) %MON advcfl_wvel_max              =   2.9004419190917E-01
(PID.TID 0000.0001) %MON advcfl_W_hf_max              =   3.1137097072603E-01
(PID.TID 0000.0001) %MON pe_b_mean                    =   3.0338369357748E-04
(PID.TID 0000.0001) %MON ke_max                       =   1.8328957758683E-01
(PID.TID 0000.0001) %MON ke_mean                      =   2.5802685286582E-04
(PID.TID 0000.0001) %MON ke_vol                       =   1.4101703507225E+18
(PID.TID 0000.0001) %MON vort_r_min                   =  -1.7323556441350E-06
(PID.TID 0000.0001) %MON vort_r_max                   =   1.9111385168376E-06
(PID.TID 0000.0001) %MON vort_a_mean                  =  -1.9976608796705E-05
(PID.TID 0000.0001) %MON vort_a_sd                    =   7.3718808555679E-05
(PID.TID 0000.0001) %MON vort_p_mean                  =  -2.3730263022063E-05
(PID.TID 0000.0001) %MON vort_p_sd                    =   1.0369744018517E-04
(PID.TID 0000.0001) %MON surfExpan_theta_mean         =  -7.4207024789789E-08
(PID.TID 0000.0001) %MON surfExpan_salt_mean          =  -3.2108199363769E-08
(PID.TID 0000.0001) // =======================================================
(PID.TID 0000.0001) // End MONITOR dynamic field statistics
(PID.TID 0000.0001) // =======================================================
 SH   5.2891603915413157        23.317473118939176     
 NH   10.358190016883384        25.566855652924460     
 SH   5.2891603915413157        23.317473118939176     
 NH   10.358190016883384        25.566855652924460     
 cg2d: Sum(rhs),rhsMax =   4.64517313503165E-13  4.08273968506797E+00
(PID.TID 0000.0001)                    cg2d_init_res =    3.80835572341879E-01
(PID.TID 0000.0001)                       cg2d_iters =    91
(PID.TID 0000.0001)                         cg2d_res =    8.22708518624335E-14
(PID.TID 0000.0001) // =======================================================
(PID.TID 0000.0001) // Begin MONITOR dynamic field statistics
(PID.TID 0000.0001) // =======================================================
(PID.TID 0000.0001) %MON time_tsnumber                =                    17
(PID.TID 0000.0001) %MON time_secondsf                =   7.3440000000000E+05
(PID.TID 0000.0001) %MON dynstat_eta_max              =   1.9630460291772E+00
(PID.TID 0000.0001) %MON dynstat_eta_min              =  -1.3585968979050E+00
(PID.TID 0000.0001) %MON dynstat_eta_mean             =  -2.9306031472945E-15
(PID.TID 0000.0001) %MON dynstat_eta_sd               =   5.1297676510133E-01
(PID.TID 0000.0001) %MON dynstat_eta_del2             =   1.9410778126179E-03
(PID.TID 0000.0001) %MON dynstat_uvel_max             =   3.6569403665212E-01
(PID.TID 0000.0001) %MON dynstat_uvel_min             =  -5.9123917437671E-01
(PID.TID 0000.0001) %MON dynstat_uvel_mean            =   4.6831326244635E-04
(PID.TID 0000.0001) %MON dynstat_uvel_sd              =   1.7567405848162E-02
(PID.TID 0000.0001) %MON dynstat_uvel_del2            =   1.4891277555483E-04
(PID.TID 0000.0001) %MON dynstat_vvel_max             =   5.9086525329322E-01
(PID.TID 0000.0001) %MON dynstat_vvel_min             =  -8.2827001657631E-01
(PID.TID 0000.0001) %MON dynstat_vvel_mean            =  -3.3302351739600E-04
(PID.TID 0000.0001) %MON dynstat_vvel_sd              =   1.7007112948261E-02
(PID.TID 0000.0001) %MON dynstat_vvel_del2            =   1.2235371068066E-04
(PID.TID 0000.0001) %MON dynstat_wvel_max             =   2.6832563389079E-03
(PID.TID 0000.0001) %MON dynstat_wvel_min             =  -1.6181686287212E-03
(PID.TID 0000.0001) %MON dynstat_wvel_mean            =  -4.6629396773740E-22
(PID.TID 0000.0001) %MON dynstat_wvel_sd              =   7.3367671552197E-05
(PID.TID 0000.0001) %MON dynstat_wvel_del2            =   8.7100093430173E-07
(PID.TID 0000.0001) %MON dynstat_theta_max            =   2.9054796601410E+01
(PID.TID 0000.0001) %MON dynstat_theta_min            =  -1.9238187047064E+00
(PID.TID 0000.0001) %MON dynstat_theta_mean           =   3.4376508672695E+00
(PID.TID 0000.0001) %MON dynstat_theta_sd             =   4.1093173753906E+00
(PID.TID 0000.0001) %MON dynstat_theta_del2           =   4.9159578750833E-03
(PID.TID 0000.0001) %MON dynstat_salt_max             =   3.7447357873008E+01
(PID.TID 0000.0001) %MON dynstat_salt_min             =   3.1043711094460E+01
(PID.TID 0000.0001) %MON dynstat_salt_mean            =   3.4715019616938E+01
(PID.TID 0000.0001) %MON dynstat_salt_sd              =   2.7634862806550E-01
(PID.TID 0000.0001) %MON dynstat_salt_del2            =   8.4831167338078E-04
(PID.TID 0000.0001) %MON forcing_qnet_max             =   1.1982700417148E+02
(PID.TID 0000.0001) %MON forcing_qnet_min             =  -3.5310533813546E+01
(PID.TID 0000.0001) %MON forcing_qnet_mean            =  -7.6955393795590E-01
(PID.TID 0000.0001) %MON forcing_qnet_sd              =   2.1491453265545E+01
(PID.TID 0000.0001) %MON forcing_qnet_del2            =   1.0930310107448E-01
(PID.TID 0000.0001) %MON forcing_qsw_max              =   0.0000000000000E+00
(PID.TID 0000.0001) %MON forcing_qsw_min              =   0.0000000000000E+00
(PID.TID 0000.0001) %MON forcing_qsw_mean             =   0.0000000000000E+00
(PID.TID 0000.0001) %MON forcing_qsw_sd               =   0.0000000000000E+00
(PID.TID 0000.0001) %MON forcing_qsw_del2             =   0.0000000000000E+00
(PID.TID 0000.0001) %MON forcing_empmr_max            =   3.7600374110707E-05
(PID.TID 0000.0001) %MON forcing_empmr_min            =  -1.7559553618097E-05
(PID.TID 0000.0001) %MON forcing_empmr_mean           =   1.5643147523703E-06
(PID.TID 0000.0001) %MON forcing_empmr_sd             =   1.1909008207927E-05
(PID.TID 0000.0001) %MON forcing_empmr_del2           =   7.3093651236608E-08
(PID.TID 0000.0001) %MON forcing_fu_max               =   1.6004334390163E-01
(PID.TID 0000.0001) %MON forcing_fu_min               =  -1.0329221189022E-01
(PID.TID 0000.0001) %MON forcing_fu_mean              =   4.1280488583042E-03
(PID.TID 0000.0001) %MON forcing_fu_sd                =   5.5800359441598E-02
(PID.TID 0000.0001) %MON forcing_fu_del2              =   3.2370368543277E-04
(PID.TID 0000.0001) %MON forcing_fv_max               =   8.4633164107800E-02
(PID.TID 0000.0001) %MON forcing_fv_min               =  -7.0490099489689E-02
(PID.TID 0000.0001) %MON forcing_fv_mean              =   2.8803575798275E-03
(PID.TID 0000.0001) %MON forcing_fv_sd                =   2.2193297771215E-02
(PID.TID 0000.0001) %MON forcing_fv_del2              =   2.1170835219132E-04
(PID.TID 0000.0001) %MON advcfl_uvel_max              =   5.8320158880612E-02
(PID.TID 0000.0001) %MON advcfl_vvel_max              =   8.0459790183387E-02
(PID.TID 0000.0001) %MON advcfl_wvel_max              =   2.9972387362528E-01
(PID.TID 0000.0001) %MON advcfl_W_hf_max              =   3.2176239374479E-01
(PID.TID 0000.0001) %MON pe_b_mean                    =   3.0529702751924E-04
(PID.TID 0000.0001) %MON ke_max                       =   1.9597207009560E-01
(PID.TID 0000.0001) %MON ke_mean                      =   2.7421742257465E-04
(PID.TID 0000.0001) %MON ke_vol                       =   1.4101703507225E+18
(PID.TID 0000.0001) %MON vort_r_min                   =  -1.7705662398142E-06
(PID.TID 0000.0001) %MON vort_r_max                   =   1.9867923205260E-06
(PID.TID 0000.0001) %MON vort_a_mean                  =  -1.9976608796705E-05
(PID.TID 0000.0001) %MON vort_a_sd                    =   7.3718813896132E-05
(PID.TID 0000.0001) %MON vort_p_mean                  =  -2.3730263022063E-05
(PID.TID 0000.0001) %MON vort_p_sd                    =   1.0369738076222E-04
(PID.TID 0000.0001) %MON surfExpan_theta_mean         =  -6.3590537494462E-08
(PID.TID 0000.0001) %MON surfExpan_salt_mean          =  -6.9658596451128E-08
(PID.TID 0000.0001) // =======================================================
(PID.TID 0000.0001) // End MONITOR dynamic field statistics
(PID.TID 0000.0001) // =======================================================
 SH   5.2917830540431510        23.319209962725836     
 NH   10.350797384894520        25.566681379427052     
 SH   5.2917830540431510        23.319209962725836     
 NH   10.350797384894520        25.566681379427052     
 cg2d: Sum(rhs),rhsMax =   3.93463039927155E-13  4.69596425100992E+00
(PID.TID 0000.0001)                    cg2d_init_res =    3.19143350190827E-01
(PID.TID 0000.0001)                       cg2d_iters =    91
(PID.TID 0000.0001)                         cg2d_res =    6.66445030965724E-14
(PID.TID 0000.0001) // =======================================================
(PID.TID 0000.0001) // Begin MONITOR dynamic field statistics
(PID.TID 0000.0001) // =======================================================
(PID.TID 0000.0001) %MON time_tsnumber                =                    18
(PID.TID 0000.0001) %MON time_secondsf                =   7.7760000000000E+05
(PID.TID 0000.0001) %MON dynstat_eta_max              =   1.8615585835440E+00
(PID.TID 0000.0001) %MON dynstat_eta_min              =  -1.3495511771147E+00
(PID.TID 0000.0001) %MON dynstat_eta_mean             =  -3.1704479061523E-15
(PID.TID 0000.0001) %MON dynstat_eta_sd               =   5.1623937728002E-01
(PID.TID 0000.0001) %MON dynstat_eta_del2             =   1.9315257260576E-03
(PID.TID 0000.0001) %MON dynstat_uvel_max             =   3.7311942248084E-01
(PID.TID 0000.0001) %MON dynstat_uvel_min             =  -6.0448749892106E-01
(PID.TID 0000.0001) %MON dynstat_uvel_mean            =   4.9632953234533E-04
(PID.TID 0000.0001) %MON dynstat_uvel_sd              =   1.8333787876446E-02
(PID.TID 0000.0001) %MON dynstat_uvel_del2            =   1.5204047026215E-04
(PID.TID 0000.0001) %MON dynstat_vvel_max             =   6.1059890582907E-01
(PID.TID 0000.0001) %MON dynstat_vvel_min             =  -8.4723564171166E-01
(PID.TID 0000.0001) %MON dynstat_vvel_mean            =  -2.2983984253420E-04
(PID.TID 0000.0001) %MON dynstat_vvel_sd              =   1.7122203103053E-02
(PID.TID 0000.0001) %MON dynstat_vvel_del2            =   1.1972060352963E-04
(PID.TID 0000.0001) %MON dynstat_wvel_max             =   2.7556385200264E-03
(PID.TID 0000.0001) %MON dynstat_wvel_min             =  -1.6423368346658E-03
(PID.TID 0000.0001) %MON dynstat_wvel_mean            =   4.1621974881053E-22
(PID.TID 0000.0001) %MON dynstat_wvel_sd              =   7.4289112589946E-05
(PID.TID 0000.0001) %MON dynstat_wvel_del2            =   8.7011379189195E-07
(PID.TID 0000.0001) %MON dynstat_theta_max            =   2.9041137257222E+01
(PID.TID 0000.0001) %MON dynstat_theta_min            =  -1.9659269007150E+00
(PID.TID 0000.0001) %MON dynstat_theta_mean           =   3.4376533703785E+00
(PID.TID 0000.0001) %MON dynstat_theta_sd             =   4.1092906227309E+00
(PID.TID 0000.0001) %MON dynstat_theta_del2           =   4.9086191142954E-03
(PID.TID 0000.0001) %MON dynstat_salt_max             =   3.7447886817143E+01
(PID.TID 0000.0001) %MON dynstat_salt_min             =   3.1044451782941E+01
(PID.TID 0000.0001) %MON dynstat_salt_mean            =   3.4715020863325E+01
(PID.TID 0000.0001) %MON dynstat_salt_sd              =   2.7634931071777E-01
(PID.TID 0000.0001) %MON dynstat_salt_del2            =   8.4814391854254E-04
(PID.TID 0000.0001) %MON forcing_qnet_max             =   1.1910244931287E+02
(PID.TID 0000.0001) %MON forcing_qnet_min             =  -3.5308716374465E+01
(PID.TID 0000.0001) %MON forcing_qnet_mean            =  -7.7364810298237E-01
(PID.TID 0000.0001) %MON forcing_qnet_sd              =   2.1416802967451E+01
(PID.TID 0000.0001) %MON forcing_qnet_del2            =   1.0908599967115E-01
(PID.TID 0000.0001) %MON forcing_qsw_max              =   0.0000000000000E+00
(PID.TID 0000.0001) %MON forcing_qsw_min              =   0.0000000000000E+00
(PID.TID 0000.0001) %MON forcing_qsw_mean             =   0.0000000000000E+00
(PID.TID 0000.0001) %MON forcing_qsw_sd               =   0.0000000000000E+00
(PID.TID 0000.0001) %MON forcing_qsw_del2             =   0.0000000000000E+00
(PID.TID 0000.0001) %MON forcing_empmr_max            =   3.7600374110707E-05
(PID.TID 0000.0001) %MON forcing_empmr_min            =  -1.7559553618097E-05
(PID.TID 0000.0001) %MON forcing_empmr_mean           =   1.5643147523703E-06
(PID.TID 0000.0001) %MON forcing_empmr_sd             =   1.1909008207927E-05
(PID.TID 0000.0001) %MON forcing_empmr_del2           =   7.3093651236608E-08
(PID.TID 0000.0001) %MON forcing_fu_max               =   1.6004334390163E-01
(PID.TID 0000.0001) %MON forcing_fu_min               =  -1.0329221189022E-01
(PID.TID 0000.0001) %MON forcing_fu_mean              =   4.1280488583042E-03
(PID.TID 0000.0001) %MON forcing_fu_sd                =   5.5800359441598E-02
(PID.TID 0000.0001) %MON forcing_fu_del2              =   3.2370368543277E-04
(PID.TID 0000.0001) %MON forcing_fv_max               =   8.4633164107800E-02
(PID.TID 0000.0001) %MON forcing_fv_min               =  -7.0490099489689E-02
(PID.TID 0000.0001) %MON forcing_fv_mean              =   2.8803575798275E-03
(PID.TID 0000.0001) %MON forcing_fv_sd                =   2.2193297771215E-02
(PID.TID 0000.0001) %MON forcing_fv_del2              =   2.1170835219132E-04
(PID.TID 0000.0001) %MON advcfl_uvel_max              =   5.9626980934720E-02
(PID.TID 0000.0001) %MON advcfl_vvel_max              =   8.2302148579257E-02
(PID.TID 0000.0001) %MON advcfl_wvel_max              =   3.0787523550600E-01
(PID.TID 0000.0001) %MON advcfl_W_hf_max              =   3.3051312046968E-01
(PID.TID 0000.0001) %MON pe_b_mean                    =   3.0919285062449E-04
(PID.TID 0000.0001) %MON ke_max                       =   2.0744526868705E-01
(PID.TID 0000.0001) %MON ke_mean                      =   2.8869181053619E-04
(PID.TID 0000.0001) %MON ke_vol                       =   1.4101703507225E+18
(PID.TID 0000.0001) %MON vort_r_min                   =  -1.7993955394951E-06
(PID.TID 0000.0001) %MON vort_r_max                   =   2.0552362258450E-06
(PID.TID 0000.0001) %MON vort_a_mean                  =  -1.9976608796705E-05
(PID.TID 0000.0001) %MON vort_a_sd                    =   7.3718814305564E-05
(PID.TID 0000.0001) %MON vort_p_mean                  =  -2.3730263022064E-05
(PID.TID 0000.0001) %MON vort_p_sd                    =   1.0369731262534E-04
(PID.TID 0000.0001) %MON surfExpan_theta_mean         =  -4.3204572964373E-08
(PID.TID 0000.0001) %MON surfExpan_salt_mean          =  -1.0360705737621E-07
(PID.TID 0000.0001) // =======================================================
(PID.TID 0000.0001) // End MONITOR dynamic field statistics
(PID.TID 0000.0001) // =======================================================
 SH   5.2934738052695707        23.321019314889838     
 NH   10.342582254673175        25.566293875024883     
 SH   5.2934738052695707        23.321019314889838     
 NH   10.342582254673175        25.566293875024883     
 cg2d: Sum(rhs),rhsMax =   3.46833672892899E-13  5.24143688984564E+00
(PID.TID 0000.0001)                    cg2d_init_res =    2.71646132689799E-01
(PID.TID 0000.0001)                       cg2d_iters =    90
(PID.TID 0000.0001)                         cg2d_res =    9.07263199106160E-14
(PID.TID 0000.0001) // =======================================================
(PID.TID 0000.0001) // Begin MONITOR dynamic field statistics
(PID.TID 0000.0001) // =======================================================
(PID.TID 0000.0001) %MON time_tsnumber                =                    19
(PID.TID 0000.0001) %MON time_secondsf                =   8.2080000000000E+05
(PID.TID 0000.0001) %MON dynstat_eta_max              =   1.7014162653424E+00
(PID.TID 0000.0001) %MON dynstat_eta_min              =  -1.3485349275826E+00
(PID.TID 0000.0001) %MON dynstat_eta_mean             =  -3.0617682497949E-15
(PID.TID 0000.0001) %MON dynstat_eta_sd               =   5.2089377320788E-01
(PID.TID 0000.0001) %MON dynstat_eta_del2             =   1.9273864102732E-03
(PID.TID 0000.0001) %MON dynstat_uvel_max             =   3.8113699193878E-01
(PID.TID 0000.0001) %MON dynstat_uvel_min             =  -6.1502153568379E-01
(PID.TID 0000.0001) %MON dynstat_uvel_mean            =   5.0730504110772E-04
(PID.TID 0000.0001) %MON dynstat_uvel_sd              =   1.9009163421203E-02
(PID.TID 0000.0001) %MON dynstat_uvel_del2            =   1.5463349301624E-04
(PID.TID 0000.0001) %MON dynstat_vvel_max             =   6.2815945061725E-01
(PID.TID 0000.0001) %MON dynstat_vvel_min             =  -8.6184466627028E-01
(PID.TID 0000.0001) %MON dynstat_vvel_mean            =  -1.2909877705550E-04
(PID.TID 0000.0001) %MON dynstat_vvel_sd              =   1.7187177776649E-02
(PID.TID 0000.0001) %MON dynstat_vvel_del2            =   1.1699965953425E-04
(PID.TID 0000.0001) %MON dynstat_wvel_max             =   2.8143100630879E-03
(PID.TID 0000.0001) %MON dynstat_wvel_min             =  -1.6541461845156E-03
(PID.TID 0000.0001) %MON dynstat_wvel_mean            =  -1.7614760700514E-22
(PID.TID 0000.0001) %MON dynstat_wvel_sd              =   7.4899814542424E-05
(PID.TID 0000.0001) %MON dynstat_wvel_del2            =   8.6498175840955E-07
(PID.TID 0000.0001) %MON dynstat_theta_max            =   2.9027682046781E+01
(PID.TID 0000.0001) %MON dynstat_theta_min            =  -2.0004841658219E+00
(PID.TID 0000.0001) %MON dynstat_theta_mean           =   3.4376556184470E+00
(PID.TID 0000.0001) %MON dynstat_theta_sd             =   4.1092641918385E+00
(PID.TID 0000.0001) %MON dynstat_theta_del2           =   4.9020284033117E-03
(PID.TID 0000.0001) %MON dynstat_salt_max             =   3.7448404576743E+01
(PID.TID 0000.0001) %MON dynstat_salt_min             =   3.1045325545007E+01
(PID.TID 0000.0001) %MON dynstat_salt_mean            =   3.4715022425474E+01
(PID.TID 0000.0001) %MON dynstat_salt_sd              =   2.7634913244699E-01
(PID.TID 0000.0001) %MON dynstat_salt_del2            =   8.4801476792871E-04
(PID.TID 0000.0001) %MON forcing_qnet_max             =   1.1831531082432E+02
(PID.TID 0000.0001) %MON forcing_qnet_min             =  -3.5298694299148E+01
(PID.TID 0000.0001) %MON forcing_qnet_mean            =  -7.7851130092329E-01
(PID.TID 0000.0001) %MON forcing_qnet_sd              =   2.1333267577542E+01
(PID.TID 0000.0001) %MON forcing_qnet_del2            =   1.0882987386311E-01
(PID.TID 0000.0001) %MON forcing_qsw_max              =   0.0000000000000E+00
(PID.TID 0000.0001) %MON forcing_qsw_min              =   0.0000000000000E+00
(PID.TID 0000.0001) %MON forcing_qsw_mean             =   0.0000000000000E+00
(PID.TID 0000.0001) %MON forcing_qsw_sd               =   0.0000000000000E+00
(PID.TID 0000.0001) %MON forcing_qsw_del2             =   0.0000000000000E+00
(PID.TID 0000.0001) %MON forcing_empmr_max            =   3.7600374110707E-05
(PID.TID 0000.0001) %MON forcing_empmr_min            =  -1.7559553618097E-05
(PID.TID 0000.0001) %MON forcing_empmr_mean           =   1.5643147523703E-06
(PID.TID 0000.0001) %MON forcing_empmr_sd             =   1.1909008207927E-05
(PID.TID 0000.0001) %MON forcing_empmr_del2           =   7.3093651236608E-08
(PID.TID 0000.0001) %MON forcing_fu_max               =   1.6004334390163E-01
(PID.TID 0000.0001) %MON forcing_fu_min               =  -1.0329221189022E-01
(PID.TID 0000.0001) %MON forcing_fu_mean              =   4.1280488583042E-03
(PID.TID 0000.0001) %MON forcing_fu_sd                =   5.5800359441598E-02
(PID.TID 0000.0001) %MON forcing_fu_del2              =   3.2370368543277E-04
(PID.TID 0000.0001) %MON forcing_fv_max               =   8.4633164107800E-02
(PID.TID 0000.0001) %MON forcing_fv_min               =  -7.0490099489689E-02
(PID.TID 0000.0001) %MON forcing_fv_mean              =   2.8803575798275E-03
(PID.TID 0000.0001) %MON forcing_fv_sd                =   2.2193297771215E-02
(PID.TID 0000.0001) %MON forcing_fv_del2              =   2.1170835219132E-04
(PID.TID 0000.0001) %MON advcfl_uvel_max              =   6.0666064142128E-02
(PID.TID 0000.0001) %MON advcfl_vvel_max              =   8.3721298164835E-02
(PID.TID 0000.0001) %MON advcfl_wvel_max              =   3.1446226730540E-01
(PID.TID 0000.0001) %MON advcfl_W_hf_max              =   3.3758449284256E-01
(PID.TID 0000.0001) %MON pe_b_mean                    =   3.1479332773874E-04
(PID.TID 0000.0001) %MON ke_max                       =   2.1757206133906E-01
(PID.TID 0000.0001) %MON ke_mean                      =   3.0133714388058E-04
(PID.TID 0000.0001) %MON ke_vol                       =   1.4101703507225E+18
(PID.TID 0000.0001) %MON vort_r_min                   =  -1.8188573519520E-06
(PID.TID 0000.0001) %MON vort_r_max                   =   2.1164064264187E-06
(PID.TID 0000.0001) %MON vort_a_mean                  =  -1.9976608796705E-05
(PID.TID 0000.0001) %MON vort_a_sd                    =   7.3718810567251E-05
(PID.TID 0000.0001) %MON vort_p_mean                  =  -2.3730263022063E-05
(PID.TID 0000.0001) %MON vort_p_sd                    =   1.0369723957881E-04
(PID.TID 0000.0001) %MON surfExpan_theta_mean         =   4.3047903572546E-08
(PID.TID 0000.0001) %MON surfExpan_salt_mean          =  -1.2572967933043E-07
(PID.TID 0000.0001) // =======================================================
(PID.TID 0000.0001) // End MONITOR dynamic field statistics
(PID.TID 0000.0001) // =======================================================
 SH   5.2941611378271318        23.322897857983492     
 NH   10.333566201914152        25.565715210821622     
 SH   5.2941611378271318        23.322897857983492     
 NH   10.333566201914152        25.565715210821622     
 cg2d: Sum(rhs),rhsMax =   3.02424751907893E-13  5.71014649701817E+00
(PID.TID 0000.0001)                    cg2d_init_res =    2.34987255401306E-01
(PID.TID 0000.0001)                       cg2d_iters =    90
(PID.TID 0000.0001)                         cg2d_res =    7.45663173982812E-14
(PID.TID 0000.0001) // =======================================================
(PID.TID 0000.0001) // Begin MONITOR dynamic field statistics
(PID.TID 0000.0001) // =======================================================
(PID.TID 0000.0001) %MON time_tsnumber                =                    20
(PID.TID 0000.0001) %MON time_secondsf                =   8.6400000000000E+05
(PID.TID 0000.0001) %MON dynstat_eta_max              =   1.4941549082207E+00
(PID.TID 0000.0001) %MON dynstat_eta_min              =  -1.3602432934862E+00
(PID.TID 0000.0001) %MON dynstat_eta_mean             =  -2.4171854603644E-15
(PID.TID 0000.0001) %MON dynstat_eta_sd               =   5.2656707866181E-01
(PID.TID 0000.0001) %MON dynstat_eta_del2             =   1.9271155010603E-03
(PID.TID 0000.0001) %MON dynstat_uvel_max             =   3.8758213652662E-01
(PID.TID 0000.0001) %MON dynstat_uvel_min             =  -6.2287994921633E-01
(PID.TID 0000.0001) %MON dynstat_uvel_mean            =   5.0532033528164E-04
(PID.TID 0000.0001) %MON dynstat_uvel_sd              =   1.9586724307776E-02
(PID.TID 0000.0001) %MON dynstat_uvel_del2            =   1.5668926809635E-04
(PID.TID 0000.0001) %MON dynstat_vvel_max             =   6.4352549733394E-01
(PID.TID 0000.0001) %MON dynstat_vvel_min             =  -8.7202176248062E-01
(PID.TID 0000.0001) %MON dynstat_vvel_mean            =  -3.8166666753535E-05
(PID.TID 0000.0001) %MON dynstat_vvel_sd              =   1.7216750164521E-02
(PID.TID 0000.0001) %MON dynstat_vvel_del2            =   1.1446721638721E-04
(PID.TID 0000.0001) %MON dynstat_wvel_max             =   2.8590728051269E-03
(PID.TID 0000.0001) %MON dynstat_wvel_min             =  -1.6532634522330E-03
(PID.TID 0000.0001) %MON dynstat_wvel_mean            =  -2.2728723484534E-23
(PID.TID 0000.0001) %MON dynstat_wvel_sd              =   7.5220187000929E-05
(PID.TID 0000.0001) %MON dynstat_wvel_del2            =   8.5601363420821E-07
(PID.TID 0000.0001) %MON dynstat_theta_max            =   2.9014347412676E+01
(PID.TID 0000.0001) %MON dynstat_theta_min            =  -2.0272213863505E+00
(PID.TID 0000.0001) %MON dynstat_theta_mean           =   3.4376565962454E+00
(PID.TID 0000.0001) %MON dynstat_theta_sd             =   4.1092339720432E+00
(PID.TID 0000.0001) %MON dynstat_theta_del2           =   4.8955752518278E-03
(PID.TID 0000.0001) %MON dynstat_salt_max             =   3.7448911760621E+01
(PID.TID 0000.0001) %MON dynstat_salt_min             =   3.1046273773913E+01
(PID.TID 0000.0001) %MON dynstat_salt_mean            =   3.4715024132960E+01
(PID.TID 0000.0001) %MON dynstat_salt_sd              =   2.7634854781311E-01
(PID.TID 0000.0001) %MON dynstat_salt_del2            =   8.4790489072749E-04
(PID.TID 0000.0001) %MON forcing_qnet_max             =   1.1746550482867E+02
(PID.TID 0000.0001) %MON forcing_qnet_min             =  -3.5279950893793E+01
(PID.TID 0000.0001) %MON forcing_qnet_mean            =  -7.8409987441327E-01
(PID.TID 0000.0001) %MON forcing_qnet_sd              =   2.1240677607849E+01
(PID.TID 0000.0001) %MON forcing_qnet_del2            =   1.0853385008664E-01
(PID.TID 0000.0001) %MON forcing_qsw_max              =   0.0000000000000E+00
(PID.TID 0000.0001) %MON forcing_qsw_min              =   0.0000000000000E+00
(PID.TID 0000.0001) %MON forcing_qsw_mean             =   0.0000000000000E+00
(PID.TID 0000.0001) %MON forcing_qsw_sd               =   0.0000000000000E+00
(PID.TID 0000.0001) %MON forcing_qsw_del2             =   0.0000000000000E+00
(PID.TID 0000.0001) %MON forcing_empmr_max            =   3.7600374110707E-05
(PID.TID 0000.0001) %MON forcing_empmr_min            =  -1.7559553618097E-05
(PID.TID 0000.0001) %MON forcing_empmr_mean           =   1.5643147523703E-06
(PID.TID 0000.0001) %MON forcing_empmr_sd             =   1.1909008207927E-05
(PID.TID 0000.0001) %MON forcing_empmr_del2           =   7.3093651236608E-08
(PID.TID 0000.0001) %MON forcing_fu_max               =   1.6004334390163E-01
(PID.TID 0000.0001) %MON forcing_fu_min               =  -1.0329221189022E-01
(PID.TID 0000.0001) %MON forcing_fu_mean              =   4.1280488583042E-03
(PID.TID 0000.0001) %MON forcing_fu_sd                =   5.5800359441598E-02
(PID.TID 0000.0001) %MON forcing_fu_del2              =   3.2370368543277E-04
(PID.TID 0000.0001) %MON forcing_fv_max               =   8.4633164107800E-02
(PID.TID 0000.0001) %MON forcing_fv_min               =  -7.0490099489689E-02
(PID.TID 0000.0001) %MON forcing_fv_mean              =   2.8803575798275E-03
(PID.TID 0000.0001) %MON forcing_fv_sd                =   2.2193297771215E-02
(PID.TID 0000.0001) %MON forcing_fv_del2              =   2.1170835219132E-04
(PID.TID 0000.0001) %MON advcfl_uvel_max              =   6.1441222395554E-02
(PID.TID 0000.0001) %MON advcfl_vvel_max              =   8.4709921451170E-02
(PID.TID 0000.0001) %MON advcfl_wvel_max              =   3.1945407639645E-01
(PID.TID 0000.0001) %MON advcfl_W_hf_max              =   3.4294334671971E-01
(PID.TID 0000.0001) %MON pe_b_mean                    =   3.2168780199317E-04
(PID.TID 0000.0001) %MON ke_max                       =   2.2624146820256E-01
(PID.TID 0000.0001) %MON ke_mean                      =   3.1208250656506E-04
(PID.TID 0000.0001) %MON ke_vol                       =   1.4101703507225E+18
(PID.TID 0000.0001) %MON vort_r_min                   =  -1.8290183030244E-06
(PID.TID 0000.0001) %MON vort_r_max                   =   2.1702443442436E-06
(PID.TID 0000.0001) %MON vort_a_mean                  =  -1.9976608796705E-05
(PID.TID 0000.0001) %MON vort_a_sd                    =   7.3718803788632E-05
(PID.TID 0000.0001) %MON vort_p_mean                  =  -2.3730263022063E-05
(PID.TID 0000.0001) %MON vort_p_sd                    =   1.0369716624515E-04
(PID.TID 0000.0001) %MON surfExpan_theta_mean         =   2.0037428746182E-07
(PID.TID 0000.0001) %MON surfExpan_salt_mean          =  -1.3309885204612E-07
(PID.TID 0000.0001) // =======================================================
(PID.TID 0000.0001) // End MONITOR dynamic field statistics
(PID.TID 0000.0001) // =======================================================
(PID.TID 0000.0001) // Time-average data written, t-step        20
(PID.TID 0000.0001) 
(PID.TID 0000.0001) %CHECKPOINT        20 ckptA
(PID.TID 0000.0001)   Seconds in section "ALL                    [THE_MODEL_MAIN]":
(PID.TID 0000.0001)           User time:   17.730000000000000
(PID.TID 0000.0001)         System time:  2.99999999999999989E-002
(PID.TID 0000.0001)     Wall clock time:   17.812697887420654
(PID.TID 0000.0001)          No. starts:           1
(PID.TID 0000.0001)           No. stops:           1
(PID.TID 0000.0001)   Seconds in section "INITIALISE_FIXED       [THE_MODEL_MAIN]":
(PID.TID 0000.0001)           User time:  8.00000000000000017E-002
(PID.TID 0000.0001)         System time:   0.0000000000000000
(PID.TID 0000.0001)     Wall clock time:  8.45839977264404297E-002
(PID.TID 0000.0001)          No. starts:           1
(PID.TID 0000.0001)           No. stops:           1
(PID.TID 0000.0001)   Seconds in section "THE_MAIN_LOOP          [THE_MODEL_MAIN]":
(PID.TID 0000.0001)           User time:   17.650000000000002
(PID.TID 0000.0001)         System time:  2.99999999999999989E-002
(PID.TID 0000.0001)     Wall clock time:   17.728082895278931
(PID.TID 0000.0001)          No. starts:           1
(PID.TID 0000.0001)           No. stops:           1
(PID.TID 0000.0001)   Seconds in section "INITIALISE_VARIA    [THE_MAIN_LOOP]":
(PID.TID 0000.0001)           User time:  0.22999999999999998
(PID.TID 0000.0001)         System time:  1.00000000000000002E-002
(PID.TID 0000.0001)     Wall clock time:  0.24175190925598145
(PID.TID 0000.0001)          No. starts:           1
(PID.TID 0000.0001)           No. stops:           1
(PID.TID 0000.0001)   Seconds in section "MAIN LOOP           [THE_MAIN_LOOP]":
(PID.TID 0000.0001)           User time:   17.420000000000002
(PID.TID 0000.0001)         System time:  1.99999999999999969E-002
(PID.TID 0000.0001)     Wall clock time:   17.486302137374878
(PID.TID 0000.0001)          No. starts:           1
(PID.TID 0000.0001)           No. stops:           1
(PID.TID 0000.0001)   Seconds in section "FORWARD_STEP        [THE_MAIN_LOOP]":
(PID.TID 0000.0001)           User time:   17.419999999999998
(PID.TID 0000.0001)         System time:  1.99999999999999935E-002
(PID.TID 0000.0001)     Wall clock time:   17.486113071441650
(PID.TID 0000.0001)          No. starts:          20
(PID.TID 0000.0001)           No. stops:          20
(PID.TID 0000.0001)   Seconds in section "LOAD_FIELDS_DRIVER  [FORWARD_STEP]":
(PID.TID 0000.0001)           User time:   0.0000000000000000
(PID.TID 0000.0001)         System time:   0.0000000000000000
(PID.TID 0000.0001)     Wall clock time:  1.83582305908203125E-004
(PID.TID 0000.0001)          No. starts:          20
(PID.TID 0000.0001)           No. stops:          20
(PID.TID 0000.0001)   Seconds in section "EBM                [FORWARD_STEP]":
(PID.TID 0000.0001)           User time:  5.00000000000007105E-002
(PID.TID 0000.0001)         System time:   0.0000000000000000
(PID.TID 0000.0001)     Wall clock time:  4.29351329803466797E-002
(PID.TID 0000.0001)          No. starts:          20
(PID.TID 0000.0001)           No. stops:          20
(PID.TID 0000.0001)   Seconds in section "DO_ATMOSPHERIC_PHYS [FORWARD_STEP]":
(PID.TID 0000.0001)           User time:   0.0000000000000000
(PID.TID 0000.0001)         System time:   0.0000000000000000
(PID.TID 0000.0001)     Wall clock time:  1.80482864379882813E-004
(PID.TID 0000.0001)          No. starts:          20
(PID.TID 0000.0001)           No. stops:          20
(PID.TID 0000.0001)   Seconds in section "DO_OCEANIC_PHYS     [FORWARD_STEP]":
(PID.TID 0000.0001)           User time:   1.7399999999999984
(PID.TID 0000.0001)         System time:   0.0000000000000000
(PID.TID 0000.0001)     Wall clock time:   1.7462382316589355
(PID.TID 0000.0001)          No. starts:          20
(PID.TID 0000.0001)           No. stops:          20
(PID.TID 0000.0001)   Seconds in section "THERMODYNAMICS      [FORWARD_STEP]":
(PID.TID 0000.0001)           User time:   3.8699999999999974
(PID.TID 0000.0001)         System time:  9.99999999999999847E-003
(PID.TID 0000.0001)     Wall clock time:   3.9078352451324463
(PID.TID 0000.0001)          No. starts:          20
(PID.TID 0000.0001)           No. stops:          20
(PID.TID 0000.0001)   Seconds in section "DYNAMICS            [FORWARD_STEP]":
(PID.TID 0000.0001)           User time:   5.6300000000000061
(PID.TID 0000.0001)         System time:   0.0000000000000000
(PID.TID 0000.0001)     Wall clock time:   5.6196286678314209
(PID.TID 0000.0001)          No. starts:          20
(PID.TID 0000.0001)           No. stops:          20
(PID.TID 0000.0001)   Seconds in section "SOLVE_FOR_PRESSURE  [FORWARD_STEP]":
(PID.TID 0000.0001)           User time:   2.8000000000000007
(PID.TID 0000.0001)         System time:   0.0000000000000000
(PID.TID 0000.0001)     Wall clock time:   2.8167734146118164
(PID.TID 0000.0001)          No. starts:          20
(PID.TID 0000.0001)           No. stops:          20
(PID.TID 0000.0001)   Seconds in section "MOM_CORRECTION_STEP [FORWARD_STEP]":
(PID.TID 0000.0001)           User time:  0.32000000000000384
(PID.TID 0000.0001)         System time:   0.0000000000000000
(PID.TID 0000.0001)     Wall clock time:  0.31171345710754395
(PID.TID 0000.0001)          No. starts:          20
(PID.TID 0000.0001)           No. stops:          20
(PID.TID 0000.0001)   Seconds in section "TRC_CORRECTION_STEP [FORWARD_STEP]":
(PID.TID 0000.0001)           User time:  4.99999999999971578E-002
(PID.TID 0000.0001)         System time:   0.0000000000000000
(PID.TID 0000.0001)     Wall clock time:  5.80308437347412109E-002
(PID.TID 0000.0001)          No. starts:          20
(PID.TID 0000.0001)           No. stops:          20
(PID.TID 0000.0001)   Seconds in section "BLOCKING_EXCHANGES  [FORWARD_STEP]":
(PID.TID 0000.0001)           User time:  4.99999999999971578E-002
(PID.TID 0000.0001)         System time:   0.0000000000000000
(PID.TID 0000.0001)     Wall clock time:  7.71069526672363281E-002
(PID.TID 0000.0001)          No. starts:          20
(PID.TID 0000.0001)           No. stops:          20
(PID.TID 0000.0001)   Seconds in section "DO_STATEVARS_TAVE   [FORWARD_STEP]":
(PID.TID 0000.0001)           User time:   1.0000000000000000
(PID.TID 0000.0001)         System time:   0.0000000000000000
(PID.TID 0000.0001)     Wall clock time:  0.97732424736022949
(PID.TID 0000.0001)          No. starts:          20
(PID.TID 0000.0001)           No. stops:          20
(PID.TID 0000.0001)   Seconds in section "MONITOR             [FORWARD_STEP]":
(PID.TID 0000.0001)           User time:   1.6699999999999946
(PID.TID 0000.0001)         System time:   0.0000000000000000
(PID.TID 0000.0001)     Wall clock time:   1.6733009815216064
(PID.TID 0000.0001)          No. starts:          20
(PID.TID 0000.0001)           No. stops:          20
(PID.TID 0000.0001)   Seconds in section "DO_THE_MODEL_IO     [FORWARD_STEP]":
(PID.TID 0000.0001)           User time:  0.18999999999999773
(PID.TID 0000.0001)         System time:   0.0000000000000000
(PID.TID 0000.0001)     Wall clock time:  0.20443010330200195
(PID.TID 0000.0001)          No. starts:          20
(PID.TID 0000.0001)           No. stops:          20
(PID.TID 0000.0001)   Seconds in section "DO_WRITE_PICKUP     [FORWARD_STEP]":
(PID.TID 0000.0001)           User time:  5.00000000000007105E-002
(PID.TID 0000.0001)         System time:  9.99999999999999847E-003
(PID.TID 0000.0001)     Wall clock time:  4.75773811340332031E-002
(PID.TID 0000.0001)          No. starts:          20
(PID.TID 0000.0001)           No. stops:          20
(PID.TID 0000.0001) // ======================================================
(PID.TID 0000.0001) // Tile <-> Tile communication statistics
(PID.TID 0000.0001) // ======================================================
(PID.TID 0000.0001) // o Tile number: 000001
(PID.TID 0000.0001) //         No. X exchanges =              0
(PID.TID 0000.0001) //            Max. X spins =              0
(PID.TID 0000.0001) //            Min. X spins =     1000000000
(PID.TID 0000.0001) //          Total. X spins =              0
(PID.TID 0000.0001) //            Avg. X spins =       0.00E+00
(PID.TID 0000.0001) //         No. Y exchanges =              0
(PID.TID 0000.0001) //            Max. Y spins =              0
(PID.TID 0000.0001) //            Min. Y spins =     1000000000
(PID.TID 0000.0001) //          Total. Y spins =              0
(PID.TID 0000.0001) //            Avg. Y spins =       0.00E+00
(PID.TID 0000.0001) // o Tile number: 000002
(PID.TID 0000.0001) //         No. X exchanges =              0
(PID.TID 0000.0001) //            Max. X spins =              0
(PID.TID 0000.0001) //            Min. X spins =     1000000000
(PID.TID 0000.0001) //          Total. X spins =              0
(PID.TID 0000.0001) //            Avg. X spins =       0.00E+00
(PID.TID 0000.0001) //         No. Y exchanges =              0
(PID.TID 0000.0001) //            Max. Y spins =              0
(PID.TID 0000.0001) //            Min. Y spins =     1000000000
(PID.TID 0000.0001) //          Total. Y spins =              0
(PID.TID 0000.0001) //            Avg. Y spins =       0.00E+00
(PID.TID 0000.0001) // o Thread number: 000001
(PID.TID 0000.0001) //            No. barriers =          19530
(PID.TID 0000.0001) //      Max. barrier spins =              1
(PID.TID 0000.0001) //      Min. barrier spins =              1
(PID.TID 0000.0001) //     Total barrier spins =          19530
(PID.TID 0000.0001) //      Avg. barrier spins =       1.00E+00
PROGRAM MAIN: Execution ended Normally
