(PID.TID 0000.0001) 
(PID.TID 0000.0001) // ======================================================
(PID.TID 0000.0001) //                      MITgcm UV
(PID.TID 0000.0001) //                      =========
(PID.TID 0000.0001) // ======================================================
(PID.TID 0000.0001) // execution environment starting up...
(PID.TID 0000.0001) // Run starting Wed Apr  1 14:19:48 1998
(PID.TID 0000.0001) // on melville.lcs.mit.edu
(PID.TID 0000.0001) // account cnh
(PID.TID 0000.0001) // MITgcm UV Release: $Name:  $
(PID.TID 0000.0001) 
(PID.TID 0000.0001) // =======================================================
(PID.TID 0000.0001) // Execution Environment parameter file "eedata"
(PID.TID 0000.0001) // =======================================================
(PID.TID 0000.0001) ># Example "eedata" file
(PID.TID 0000.0001) ># Lines beginning "#" are comments
(PID.TID 0000.0001) ># nTx - No. threads per process in X
(PID.TID 0000.0001) ># nTy - No. threads per process in Y
(PID.TID 0000.0001) > &EEPARMS
(PID.TID 0000.0001) > nTx=1,nTy=1
(PID.TID 0000.0001) > &
(PID.TID 0000.0001) ># Note: Some systems use & as the
(PID.TID 0000.0001) ># namelist terminator. Other systems
(PID.TID 0000.0001) ># use a / character (as shown here).
(PID.TID 0000.0001) 
(PID.TID 0000.0001) // =======================================================
(PID.TID 0000.0001) // Computational Grid Specification ( see files "SIZE.h" )
(PID.TID 0000.0001) //                                  ( and "eedata"       )
(PID.TID 0000.0001) // =======================================================
(PID.TID 0000.0001)      nPx =    1 ; /* No. processes in X */
(PID.TID 0000.0001)      nPy =    1 ; /* No. processes in Y */
(PID.TID 0000.0001)      nSx =    2 ; /* No. tiles in X per process */
(PID.TID 0000.0001)      nSy =    1 ; /* No. tiles in Y per process */
(PID.TID 0000.0001)      sNx =   45 ; /* Tile size in X */
(PID.TID 0000.0001)      sNy =   40 ; /* Tile size in Y */
(PID.TID 0000.0001)      OLx =    2 ; /* Tile overlap distance in X */
(PID.TID 0000.0001)      OLy =    2 ; /* Tile overlap distance in Y */
(PID.TID 0000.0001)      nTx =    1 ; /* No. threads in X per process */
(PID.TID 0000.0001)      nTy =    1 ; /* No. threads in Y per process */
(PID.TID 0000.0001)       Nr =   15 ; /* No. levels in the vertical   */
(PID.TID 0000.0001)       nX =   90 ; /* Total domain size in X ( = nPx*nSx*sNx ) */
(PID.TID 0000.0001)       nY =   40 ; /* Total domain size in Y ( = nPy*nSy*sNy ) */
(PID.TID 0000.0001)   nTiles =    2 ; /* Total no. tiles per process ( = nSx*nSy ) */
(PID.TID 0000.0001)   nProcs =    1 ; /* Total no. processes ( = nPx*nPy ) */
(PID.TID 0000.0001) nThreads =    1 ; /* Total no. threads per process ( = nTx*nTy ) */
(PID.TID 0000.0001) usingMPI =    F ; /* Flag used to control whether MPI is in use */
(PID.TID 0000.0001)                   /*  note: To execute a program with MPI calls */
(PID.TID 0000.0001)                   /*  it must be launched appropriately e.g     */
(PID.TID 0000.0001)                   /*  "mpirun -np 64 ......"                    */
(PID.TID 0000.0001) useCoupler=   F ; /* Flag used to control communications with */
(PID.TID 0000.0001)                   /*  other model components, through a coupler */
(PID.TID 0000.0001) 
(PID.TID 0000.0001) // ======================================================
(PID.TID 0000.0001) // Mapping of tiles to threads
(PID.TID 0000.0001) // ======================================================
(PID.TID 0000.0001) // -o- Thread   1, tiles (   1:   2,   1:   1)
(PID.TID 0000.0001) 
(PID.TID 0000.0001) // ======================================================
(PID.TID 0000.0001) // Tile <-> Tile connectvity table
(PID.TID 0000.0001) // ======================================================
(PID.TID 0000.0001) // Tile number: 000001 (process no. = 000001)
(PID.TID 0000.0001) //        WEST: Tile = 000002, Process = 000001, Comm = put
(PID.TID 0000.0001) //                bi = 000002, bj = 000001
(PID.TID 0000.0001) //        EAST: Tile = 000002, Process = 000001, Comm = put
(PID.TID 0000.0001) //                bi = 000002, bj = 000001
(PID.TID 0000.0001) //       SOUTH: Tile = 000001, Process = 000001, Comm = put
(PID.TID 0000.0001) //                bi = 000001, bj = 000001
(PID.TID 0000.0001) //       NORTH: Tile = 000001, Process = 000001, Comm = put
(PID.TID 0000.0001) //                bi = 000001, bj = 000001
(PID.TID 0000.0001) // Tile number: 000002 (process no. = 000001)
(PID.TID 0000.0001) //        WEST: Tile = 000001, Process = 000001, Comm = put
(PID.TID 0000.0001) //                bi = 000001, bj = 000001
(PID.TID 0000.0001) //        EAST: Tile = 000001, Process = 000001, Comm = put
(PID.TID 0000.0001) //                bi = 000001, bj = 000001
(PID.TID 0000.0001) //       SOUTH: Tile = 000002, Process = 000001, Comm = put
(PID.TID 0000.0001) //                bi = 000002, bj = 000001
(PID.TID 0000.0001) //       NORTH: Tile = 000002, Process = 000001, Comm = put
(PID.TID 0000.0001) //                bi = 000002, bj = 000001
(PID.TID 0000.0001) 
(PID.TID 0000.0001) // =======================================================
(PID.TID 0000.0001) // Model parameter file "data"
(PID.TID 0000.0001) // =======================================================
(PID.TID 0000.0001) ># ====================
(PID.TID 0000.0001) ># | Model parameters |
(PID.TID 0000.0001) ># ====================
(PID.TID 0000.0001) >#
(PID.TID 0000.0001) ># Continuous equation parameters
(PID.TID 0000.0001) > &PARM01
(PID.TID 0000.0001) > tRef = 15*20.,
(PID.TID 0000.0001) > sRef = 15*35.,
(PID.TID 0000.0001) > viscAr=1.E-3,
(PID.TID 0000.0001) > viscAh=5.E5,
(PID.TID 0000.0001) > diffKhT=0.0,
(PID.TID 0000.0001) > diffKrT=3.E-5,
(PID.TID 0000.0001) > diffKhS=0.0,
(PID.TID 0000.0001) > diffKrS=3.E-5,
(PID.TID 0000.0001) > rhonil=1035.,
(PID.TID 0000.0001) > gravity=9.81,
(PID.TID 0000.0001) > eosType = 'POLY3',
(PID.TID 0000.0001) > ivdc_kappa=100.,
(PID.TID 0000.0001) > implicitDiffusion=.TRUE.,
(PID.TID 0000.0001) > useOldFreezing=.TRUE.,
(PID.TID 0000.0001) > useRealFreshWaterFlux=.TRUE.,
(PID.TID 0000.0001) > useCDscheme=.TRUE.,
(PID.TID 0000.0001) > useNHMTerms=.TRUE.,
(PID.TID 0000.0001) ># turn on looped cells
(PID.TID 0000.0001) > hFacMin=.05,
(PID.TID 0000.0001) > hFacMindr=50.,
(PID.TID 0000.0001) ># set precision of data files
(PID.TID 0000.0001) > readBinaryPrec=32,
(PID.TID 0000.0001) > &
(PID.TID 0000.0001) >
(PID.TID 0000.0001) ># Elliptic solver parameters
(PID.TID 0000.0001) > &PARM02
(PID.TID 0000.0001) > cg2dMaxIters=500,
(PID.TID 0000.0001) > cg2dTargetResidual=1.E-13,
(PID.TID 0000.0001) > &
(PID.TID 0000.0001) >
(PID.TID 0000.0001) ># Time stepping parameters
(PID.TID 0000.0001) > &PARM03
(PID.TID 0000.0001) > nIter0 =      0,
(PID.TID 0000.0001) > nTimeSteps = 20,
(PID.TID 0000.0001) ># 100 years of integration will yield a reasonable flow field
(PID.TID 0000.0001) ># startTime  =          0.,
(PID.TID 0000.0001) ># endTime    = 3110400000.,
(PID.TID 0000.0001) > deltaTmom = 1200.0,
(PID.TID 0000.0001) > tauCD =     321428.,
(PID.TID 0000.0001) > deltaTtracer= 43200.0,
(PID.TID 0000.0001) > deltaTClock = 43200.0,
(PID.TID 0000.0001) ># if you are using a version later than checkpoint45d on the main branch
(PID.TID 0000.0001) ># you can uncomment the following line and increase the time step
(PID.TID 0000.0001) ># deltaTtracer and deltaTClock to 172800.0 as well to speed up the
(PID.TID 0000.0001) ># asynchronous time stepping
(PID.TID 0000.0001) ># deltaTfreesurf = 172800.0,
(PID.TID 0000.0001) > abEps = 0.1,
(PID.TID 0000.0001) > pChkptFreq= 311040000.,
(PID.TID 0000.0001) > dumpFreq=   311040000.,
(PID.TID 0000.0001) > dumpFreq=   864000.,
(PID.TID 0000.0001) > taveFreq=   311040000.,
(PID.TID 0000.0001) > taveFreq=   864000.,
(PID.TID 0000.0001) >#monitorFreq=31104000.,
(PID.TID 0000.0001) > monitorFreq=1.,
(PID.TID 0000.0001) ># 2 months restoring timescale for temperature
(PID.TID 0000.0001) > tauThetaClimRelax =  5184000.0,
(PID.TID 0000.0001) ># 6 months restoring timescale for salinity
(PID.TID 0000.0001) > tauSaltClimRelax = 15552000.0,
(PID.TID 0000.0001) > periodicExternalForcing=.TRUE.,
(PID.TID 0000.0001) > externForcingPeriod=2592000.,
(PID.TID 0000.0001) > externForcingCycle=31104000.,
(PID.TID 0000.0001) > &
(PID.TID 0000.0001) >
(PID.TID 0000.0001) ># Gridding parameters
(PID.TID 0000.0001) > &PARM04
(PID.TID 0000.0001) > usingCartesianGrid=.FALSE.,
(PID.TID 0000.0001) > usingSphericalPolarGrid=.TRUE.,
(PID.TID 0000.0001) > delR= 50., 70., 100., 140., 190.,
(PID.TID 0000.0001) >       240., 290., 340., 390., 440.,
(PID.TID 0000.0001) >       490., 540., 590., 640., 690.,
(PID.TID 0000.0001) > phiMin=-80.,
(PID.TID 0000.0001) > dySpacing=4.,
(PID.TID 0000.0001) > dxSpacing=4.,
(PID.TID 0000.0001) > &
(PID.TID 0000.0001) >
(PID.TID 0000.0001) ># Input datasets
(PID.TID 0000.0001) > &PARM05
(PID.TID 0000.0001) > bathyFile=      'Topog.bin',
(PID.TID 0000.0001) > hydrogThetaFile='Lev_clim_theta.bin',
(PID.TID 0000.0001) > hydrogSaltFile= 'Lev_clim_salt.bin',
(PID.TID 0000.0001) > zonalWindFile=  'Taux.bin',
(PID.TID 0000.0001) > meridWindFile=  'Tauy.bin',
(PID.TID 0000.0001) > thetaClimFile=  'SST.bin',
(PID.TID 0000.0001) > saltClimFile=   'SSS.bin',
(PID.TID 0000.0001) > &
(PID.TID 0000.0001) 
(PID.TID 0000.0001) S/R INI_PARMS ; read PARM01 : OK
(PID.TID 0000.0001) S/R INI_PARMS ; read PARM02 : OK
(PID.TID 0000.0001) S/R INI_PARMS ; read PARM03 : OK
(PID.TID 0000.0001) S/R INI_PARMS ; read PARM04 : OK
(PID.TID 0000.0001) S/R INI_PARMS ; read PARM05 : OK
(PID.TID 0000.0001) %MON XC_max                       =   3.5800000000000E+02
(PID.TID 0000.0001) %MON XC_min                       =   2.0000000000000E+00
(PID.TID 0000.0001) %MON XC_mean                      =   1.8000000000000E+02
(PID.TID 0000.0001) %MON XC_sd                        =   1.0391663325314E+02
(PID.TID 0000.0001) %MON XG_max                       =   3.5600000000000E+02
(PID.TID 0000.0001) %MON XG_min                       =   4.0000000000000E+00
(PID.TID 0000.0001) %MON XG_mean                      =   1.8000000000000E+02
(PID.TID 0000.0001) %MON XG_sd                        =   1.0276186062932E+02
(PID.TID 0000.0001) %MON DXC_max                      =   4.4443898815675E+05
(PID.TID 0000.0001) %MON DXC_min                      =   9.2460385861875E+04
(PID.TID 0000.0001) %MON DXC_mean                     =   3.1372497618153E+05
(PID.TID 0000.0001) %MON DXC_sd                       =   1.1216447457560E+05
(PID.TID 0000.0001) %MON DXF_max                      =   4.4443898815675E+05
(PID.TID 0000.0001) %MON DXF_min                      =   9.2460385861875E+04
(PID.TID 0000.0001) %MON DXF_mean                     =   3.1372497618153E+05
(PID.TID 0000.0001) %MON DXF_sd                       =   1.1216447457560E+05
(PID.TID 0000.0001) %MON DXG_max                      =   4.4470989340816E+05
(PID.TID 0000.0001) %MON DXG_min                      =   7.7223062580781E+04
(PID.TID 0000.0001) %MON DXG_mean                     =   3.1353386340261E+05
(PID.TID 0000.0001) %MON DXG_sd                       =   1.1256651772502E+05
(PID.TID 0000.0001) %MON DXV_max                      =   4.4470989340816E+05
(PID.TID 0000.0001) %MON DXV_min                      =   7.7223062580781E+04
(PID.TID 0000.0001) %MON DXV_mean                     =   3.1353386340261E+05
(PID.TID 0000.0001) %MON DXV_sd                       =   1.1256651772502E+05
(PID.TID 0000.0001) %MON YC_max                       =   7.8000000000000E+01
(PID.TID 0000.0001) %MON YC_min                       =  -7.8000000000000E+01
(PID.TID 0000.0001) %MON YC_mean                      =   0.0000000000000E+00
(PID.TID 0000.0001) %MON YC_sd                        =   4.6173585522461E+01
(PID.TID 0000.0001) %MON YG_max                       =   7.6000000000000E+01
(PID.TID 0000.0001) %MON YG_min                       =  -8.0000000000000E+01
(PID.TID 0000.0001) %MON YG_mean                      =  -2.0512820512821E+00
(PID.TID 0000.0001) %MON YG_sd                        =   4.6760682979564E+01
(PID.TID 0000.0001) %MON DYC_max                      =   4.4470989340816E+05
(PID.TID 0000.0001) %MON DYC_min                      =   4.4470989340816E+05
(PID.TID 0000.0001) %MON DYC_mean                     =   4.4470989340816E+05
(PID.TID 0000.0001) %MON DYC_sd                       =   0.0000000000000E+00
(PID.TID 0000.0001) %MON DYF_max                      =   4.4470989340816E+05
(PID.TID 0000.0001) %MON DYF_min                      =   4.4470989340816E+05
(PID.TID 0000.0001) %MON DYF_mean                     =   4.4470989340816E+05
(PID.TID 0000.0001) %MON DYF_sd                       =   0.0000000000000E+00
(PID.TID 0000.0001) %MON DYG_max                      =   4.4470989340816E+05
(PID.TID 0000.0001) %MON DYG_min                      =   4.4470989340816E+05
(PID.TID 0000.0001) %MON DYG_mean                     =   4.4470989340816E+05
(PID.TID 0000.0001) %MON DYG_sd                       =   0.0000000000000E+00
(PID.TID 0000.0001) %MON DYU_max                      =   4.4470989340816E+05
(PID.TID 0000.0001) %MON DYU_min                      =   4.4470989340816E+05
(PID.TID 0000.0001) %MON DYU_mean                     =   4.4470989340816E+05
(PID.TID 0000.0001) %MON DYU_sd                       =   0.0000000000000E+00
(PID.TID 0000.0001) %MON RA_max                       =   1.9760627980089E+11
(PID.TID 0000.0001) %MON RA_min                       =   4.1109698667291E+10
(PID.TID 0000.0001) %MON RA_mean                      =   1.3948826965196E+11
(PID.TID 0000.0001) %MON RA_sd                        =   4.9870522472902E+10
(PID.TID 0000.0001) %MON RAW_max                      =   1.9760627980089E+11
(PID.TID 0000.0001) %MON RAW_min                      =   4.1109698667291E+10
(PID.TID 0000.0001) %MON RAW_mean                     =   1.3948826965196E+11
(PID.TID 0000.0001) %MON RAW_sd                       =   4.9870522472902E+10
(PID.TID 0000.0001) %MON RAS_max                      =   1.9772672958215E+11
(PID.TID 0000.0001) %MON RAS_min                      =   3.4334886267982E+10
(PID.TID 0000.0001) %MON RAS_mean                     =   1.3940329716694E+11
(PID.TID 0000.0001) %MON RAS_sd                       =   5.0049278732353E+10
(PID.TID 0000.0001) %MON RAZ_max                      =   1.9772672958215E+11
(PID.TID 0000.0001) %MON RAZ_min                      =   3.4334886267982E+10
(PID.TID 0000.0001) %MON RAZ_mean                     =   1.3940329716694E+11
(PID.TID 0000.0001) %MON RAZ_sd                       =   5.0049278732353E+10
(PID.TID 0000.0001)  MDSREADFIELD: opening global file: Topog.bin
(PID.TID 0000.0001) // =======================================================
(PID.TID 0000.0001) // Field Model R_low (ini_masks_etc) at iteration          1
(PID.TID 0000.0001) // CMIN =         -5.200000000000000E+03
(PID.TID 0000.0001) // CMAX =         -5.000000000000000E+01
(PID.TID 0000.0001) // CINT =          1.907407407407407E+02
(PID.TID 0000.0001) // SYMBOLS (CMIN->CMAX): -abcdefghijklmnopqrstuvwxyz+
(PID.TID 0000.0001) //                  0.0: .
(PID.TID 0000.0001) // RANGE I (Lo:Hi:Step):(  -1:  92:   1)
(PID.TID 0000.0001) // RANGE J (Lo:Hi:Step):(  42:  -1:  -1)
(PID.TID 0000.0001) // RANGE K (Lo:Hi:Step):(   1:   1:   1)
(PID.TID 0000.0001) // =======================================================
(PID.TID 0000.0001) K =   1
(PID.TID 0000.0001) //                I=8       I=18      I=28      I=38      I=44      I=54      I=64      I=74      I=84
(PID.TID 0000.0001) // |--J--|*01234567|901234567|901234567|901234567|901234567|567890123|567890123|567890123|567890123|56789012
(PID.TID 0000.0001) //     42 .............................................yywvyywvqnkk...........................wvss..........
(PID.TID 0000.0001) //     41 ..................................................................................................
(PID.TID 0000.0001) //     40 ..................................................................................................
(PID.TID 0000.0001) //     39 nkkknqxz.......................................................................qsv.........vqnnkkk
(PID.TID 0000.0001) //     38 kkkkkq..........................................................................uv........vvsqkkkk
(PID.TID 0000.0001) //     37 kknv............................................................................wqq...qnqu..sukknv
(PID.TID 0000.0001) //     36 wwz..........................................kknqkknqz..........................unkk.kknqqnnqswwz.
(PID.TID 0000.0001) //     35 ..++.................................yvwz.hdkkkkkkkkkkuq.ddhhkq..................nhhhhknkknqnq..++
(PID.TID 0000.0001) //     34 ......................................vvv--d-------------ddhhhkn..................wkhhhhhhhdkv....
(PID.TID 0000.0001) //     33 d.....................................kk-------------------ddhhnq...............zz.skhdhhhddddd...
(PID.TID 0000.0001) //     32 ......................................h---------------------dhhhn...............nhdhd-dhkkhd-d....
(PID.TID 0000.0001) //     31 ......................................------------------------ddd.............hd------dhnhd--.....
(PID.TID 0000.0001) //     30 .....................................---------d---d-------------d............d--------hkh-----....
(PID.TID 0000.0001) //     29 .................................zudh--------------------------dhhk.........n-------dhhdh--dhh....
(PID.TID 0000.0001) //     28 ................................yqdd-------------------------dddhhh......nk.d-------dd-----hk.....
(PID.TID 0000.0001) //     27 .................................---------------------ddd-----ddhhhhk...hhkqq-------hd----dh......
(PID.TID 0000.0001) //     26 .................hkk....s.....khd----d--------d---d-----d-------dhhhkh..k.hddh-----dhd----dk......
(PID.TID 0000.0001) //     25 ...............hhhhh..kknn...qhh.----d--------------------------ddhhhhh....hhhd----dh-----hh......
(PID.TID 0000.0001) //     24 ..............nhhhhhs.hhkn...hhh.----------dd------------------dddhhhhkhdh.khh.-nd--dd----dh......
(PID.TID 0000.0001) //     23 ...............-dhddknhhhh.++nnhh----hdd----h----------d-----dddddhhhhkhhhk......khddhh---ddd.....
(PID.TID 0000.0001) //     22 dddh..........--dhhhkhhhhh..++..----dd-dhhddhd---d------hd--ddhhhhhhhhkkhhkk.......khhdhhhd--ddddh
(PID.TID 0000.0001) //     21 --dh.........d--ddhhddddddd.....nnhhdhd-hnhhhd---d-------dddhhhhddhhhhhkkkkk........hhhhdhd-----dh
(PID.TID 0000.0001) //     20 -dddh.......h--dhdhdd--dd--.......-...qqkqhhh-------------ddddddddhhhhhhhhh............h----dd-ddd
(PID.TID 0000.0001) //     19 d---d.......hddhhhhk---------.hhhd-s...--hhh--d---d---dd----hhdddhhhhhhhhhh-...........d---dhhd---
(PID.TID 0000.0001) //     18 ----d.......khhhhhhh---d--------ku....khhk--hhhhdhhhd--h--dddhhhhhhhhhhhhhddd..........d---dhh----
(PID.TID 0000.0001) //     17 d---d.......k..dhhhdd--d--------s......ddhddhkkn-kkn----dddhhhhhhhhkhhhhhdddh..........d---dhhd---
(PID.TID 0000.0001) //     16 d---d......kn.--hhkhdd-d------h........vkkkd-hhn-hhn---ddddddhhhhhhkhhhhhdhhd-........hd---dhhd---
(PID.TID 0000.0001) //     15 ---hd......hh.---dhhhdddd----d..........ddnkddhq-dhq----dddddhhhhhkkhhhhhhhhdh.......nhd---dhd---h
(PID.TID 0000.0001) //     14 d---dh....qddh---ddhhhhddd----...........dnhhdh--dh------dddhhhhhhkkkhhhhhhhh-......khhd--dhhhd---
(PID.TID 0000.0001) //     13 dh---h...hk-dhddhddddhhhhhd---..........-dshhhh--hh------d--ddhhhhhkkhhhhhhhhd.....khhhddddhkhdh--
(PID.TID 0000.0001) //     12 hd---dhdhh---khdd-ddhkhhhhh----.----....---nqsk--sk----------ddddhhhkhhhhhhhhd....n----dhhhkhhhd--
(PID.TID 0000.0001) //     11 hd--dd--hd--dkhd--dhhkhhhhhdddd-------xhd--hv.kd-.kd-d--d------ddhhhhhhdhhhhh....n-------hhkkhhd--
(PID.TID 0000.0001) //     10 hhddd------hkkkd--hhhkkkkhhhhhddddddddhh---h.snk-snk----d------ddhhhhhhdddhhh...+d------ddhhkhhhdd
(PID.TID 0000.0001) //      9 hhhhd-----ddhhhhdhknkkhhhhkhkhhhhhhhdhhd--dhvsn--sn--------ddddddhhkhhhhdddhh...xd--------dhhkhhhh
(PID.TID 0000.0001) //      8 nkhhhhhh---dhhdddddhqnhdhhhhhhhhhhhhhhhhdddhvd---d--------ddhhhhhhkhhdd--dddh..zxqnkkhddddhhhhnkhh
(PID.TID 0000.0001) //      7 hhd----d---------dddhkd--hhhhhhddddhhhhhhhd------------dddhhhhhhkkhh-------ddhhhhhdhhhhd---dhhhhd-
(PID.TID 0000.0001) //      6 ------------------dddhnhddhhhhhdddddhhhhhk-----dd--dddddhkkhhdd--------------ddhhhhhhhhhh--d------
(PID.TID 0000.0001) //      5 -------------d--dhdhhkkkkhh.hhhhhhhhhhhhkknhhhhhhhhhhkkkhhhhhdd------d---ddddhhh.xnhhddddd--------
(PID.TID 0000.0001) //      4 dhhhhhdddh.h..............................qnkkkhhkkhhhhhhhhhhhhdddddddddhdhhhk...wkhhhhddddddddhhh
(PID.TID 0000.0001) //      3 .............................................nnkhnnkhhhhhhhhhhhhkknkkkk..........vnkhhhhhhhh......
(PID.TID 0000.0001) //      2 .............................................yywvyywvqnkk...........................wvss..........
(PID.TID 0000.0001) //      1 ..................................................................................................
(PID.TID 0000.0001) //      0 ..................................................................................................
(PID.TID 0000.0001) //     -1 nkkknqxz.......................................................................qsv.........vqnnkkk
(PID.TID 0000.0001) // =======================================================
(PID.TID 0000.0001) // END OF FIELD                                          =
(PID.TID 0000.0001) // =======================================================
(PID.TID 0000.0001) 
(PID.TID 0000.0001) // =======================================================
(PID.TID 0000.0001) // Field Model Ro_surf (ini_masks_etc) at iteration          1
(PID.TID 0000.0001) // CMIN =          1.000000000000000E+32
(PID.TID 0000.0001) // CMAX =         -1.000000000000000E+32
(PID.TID 0000.0001) // CINT =          0.000000000000000E+00
(PID.TID 0000.0001) // SYMBOLS (CMIN->CMAX): -abcdefghijklmnopqrstuvwxyz+
(PID.TID 0000.0001) //                  0.0: .
(PID.TID 0000.0001) // RANGE I (Lo:Hi:Step):(  -1:  92:   1)
(PID.TID 0000.0001) // RANGE J (Lo:Hi:Step):(  42:  -1:  -1)
(PID.TID 0000.0001) // RANGE K (Lo:Hi:Step):(   1:   1:   1)
(PID.TID 0000.0001) // =======================================================
(PID.TID 0000.0001) // =======================================================
(PID.TID 0000.0001) // END OF FIELD                                          =
(PID.TID 0000.0001) // =======================================================
(PID.TID 0000.0001) 
(PID.TID 0000.0001) // =======================================================
(PID.TID 0000.0001) // Field hFacC at iteration          1
(PID.TID 0000.0001) // CMIN =          1.000000000000000E+00
(PID.TID 0000.0001) // CMAX =          1.000000000000000E+00
(PID.TID 0000.0001) // CINT =          0.000000000000000E+00
(PID.TID 0000.0001) // SYMBOLS (CMIN->CMAX): -abcdefghijklmnopqrstuvwxyz+
(PID.TID 0000.0001) //                  0.0: .
(PID.TID 0000.0001) // RANGE I (Lo:Hi:Step):(  -1:  92:   1)
(PID.TID 0000.0001) // RANGE J (Lo:Hi:Step):(  42:  -1:  -1)
(PID.TID 0000.0001) // RANGE K (Lo:Hi:Step):(   1:   1:   1)
(PID.TID 0000.0001) // =======================================================
(PID.TID 0000.0001) // =======================================================
(PID.TID 0000.0001) // END OF FIELD                                          =
(PID.TID 0000.0001) // =======================================================
(PID.TID 0000.0001) 
(PID.TID 0000.0001) // =======================================================
(PID.TID 0000.0001) // Field hFacW at iteration          1
(PID.TID 0000.0001) // CMIN =          1.000000000000000E+00
(PID.TID 0000.0001) // CMAX =          1.000000000000000E+00
(PID.TID 0000.0001) // CINT =          0.000000000000000E+00
(PID.TID 0000.0001) // SYMBOLS (CMIN->CMAX): -abcdefghijklmnopqrstuvwxyz+
(PID.TID 0000.0001) //                  0.0: .
(PID.TID 0000.0001) // RANGE I (Lo:Hi:Step):(  -1:  92:   1)
(PID.TID 0000.0001) // RANGE J (Lo:Hi:Step):(  42:  -1:  -1)
(PID.TID 0000.0001) // RANGE K (Lo:Hi:Step):(   1:   1:   1)
(PID.TID 0000.0001) // =======================================================
(PID.TID 0000.0001) // =======================================================
(PID.TID 0000.0001) // END OF FIELD                                          =
(PID.TID 0000.0001) // =======================================================
(PID.TID 0000.0001) 
(PID.TID 0000.0001) // =======================================================
(PID.TID 0000.0001) // Field hFacS at iteration          1
(PID.TID 0000.0001) // CMIN =          1.000000000000000E+00
(PID.TID 0000.0001) // CMAX =          1.000000000000000E+00
(PID.TID 0000.0001) // CINT =          0.000000000000000E+00
(PID.TID 0000.0001) // SYMBOLS (CMIN->CMAX): -abcdefghijklmnopqrstuvwxyz+
(PID.TID 0000.0001) //                  0.0: .
(PID.TID 0000.0001) // RANGE I (Lo:Hi:Step):(  -1:  92:   1)
(PID.TID 0000.0001) // RANGE J (Lo:Hi:Step):(  42:  -1:  -1)
(PID.TID 0000.0001) // RANGE K (Lo:Hi:Step):(   1:   1:   1)
(PID.TID 0000.0001) // =======================================================
(PID.TID 0000.0001) // =======================================================
(PID.TID 0000.0001) // END OF FIELD                                          =
(PID.TID 0000.0001) // =======================================================
(PID.TID 0000.0001) 
(PID.TID 0000.0001)  PACKAGES_BOOT: opening data.pkg
(PID.TID 0000.0001)  OPEN_COPY_DATA_FILE: opening file data.pkg
(PID.TID 0000.0001) // =======================================================
(PID.TID 0000.0001) // Parameter file "data.pkg"
(PID.TID 0000.0001) // =======================================================
(PID.TID 0000.0001) ># Packages
(PID.TID 0000.0001) > &PACKAGES
(PID.TID 0000.0001) > useGMRedi=.TRUE.,
(PID.TID 0000.0001) > useEBM=.TRUE.,
(PID.TID 0000.0001) > &
(PID.TID 0000.0001) >
(PID.TID 0000.0001) 
(PID.TID 0000.0001)  PACKAGES_BOOT: finished reading data.pkg
(PID.TID 0000.0001)  GM_READPARMS: opening data.gmredi
(PID.TID 0000.0001)  OPEN_COPY_DATA_FILE: opening file data.gmredi
(PID.TID 0000.0001) // =======================================================
(PID.TID 0000.0001) // Parameter file "data.gmredi"
(PID.TID 0000.0001) // =======================================================
(PID.TID 0000.0001) ># GM+Redi package parameters:
(PID.TID 0000.0001) >
(PID.TID 0000.0001) >#-from MOM :
(PID.TID 0000.0001) ># GM_background_K: 	G & Mc.W  diffusion coefficient
(PID.TID 0000.0001) ># GM_maxSlope    :	max slope of isopycnals
(PID.TID 0000.0001) ># GM_Scrit       :	transition for scaling diffusion coefficient
(PID.TID 0000.0001) ># GM_Sd          :	half width scaling for diffusion coefficient
(PID.TID 0000.0001) ># GM_taper_scheme:	slope clipping or one of the tapering schemes
(PID.TID 0000.0001) ># GM_Kmin_horiz  :	horizontal diffusion minimum value
(PID.TID 0000.0001) >
(PID.TID 0000.0001) >#-Option parameters (needs to "define" options in GMREDI_OPTIONS.h")
(PID.TID 0000.0001) ># GM_isopycK     :	isopycnal diffusion coefficient (default=GM_background_K)
(PID.TID 0000.0001) ># GM_AdvForm     :	turn on GM Advective form       (default=Skew flux form)
(PID.TID 0000.0001) >
(PID.TID 0000.0001) > &GM_PARM01
(PID.TID 0000.0001) >  GM_background_K    = 1.e+3,
(PID.TID 0000.0001) >  GM_taper_scheme    = 'gkw91',
(PID.TID 0000.0001) >  GM_maxSlope        = 1.e-2,
(PID.TID 0000.0001) >  GM_Kmin_horiz      = 50.,
(PID.TID 0000.0001) >  GM_Scrit           = 4.e-3,
(PID.TID 0000.0001) >  GM_Sd              = 1.e-3,
(PID.TID 0000.0001) ># GM_Visbeck_alpha   = 0.,
(PID.TID 0000.0001) ># GM_Visbeck_length  = 2.e+5,
(PID.TID 0000.0001) ># GM_Visbeck_depth   = 1.e+3,
(PID.TID 0000.0001) ># GM_Visbeck_maxval_K= 2.5e+3,
(PID.TID 0000.0001) > &end
(PID.TID 0000.0001) >
(PID.TID 0000.0001) >
(PID.TID 0000.0001) 
(PID.TID 0000.0001)  GM_READPARMS: finished reading data.gmredi
(PID.TID 0000.0001)  ebm_readparms: opening data.ebm
(PID.TID 0000.0001)  OPEN_COPY_DATA_FILE: opening file data.ebm
(PID.TID 0000.0001) // =======================================================
(PID.TID 0000.0001) // Parameter file "data.ebm"
(PID.TID 0000.0001) // =======================================================
(PID.TID 0000.0001) ># Packages
(PID.TID 0000.0001) > &EBM_PARM01
(PID.TID 0000.0001) ># convert from mm/year to m/sec
(PID.TID 0000.0001) > scale_runoff     = 3.170979198E-11,
(PID.TID 0000.0001) > tauThetaZonRelax = 5184000.0,
(PID.TID 0000.0001) > RunoffFile       = 'Runoff.bin',
(PID.TID 0000.0001) > &
(PID.TID 0000.0001) >
(PID.TID 0000.0001) 
(PID.TID 0000.0001)  ebm_readparms: finished reading data.ebm
(PID.TID 0000.0001) 
(PID.TID 0000.0001) // ===================================
(PID.TID 0000.0001) // GAD parameters :
(PID.TID 0000.0001) // ===================================
(PID.TID 0000.0001) tempAdvScheme =   /* Temp. advection scheme selector */
(PID.TID 0000.0001)                       2
(PID.TID 0000.0001)     ;
(PID.TID 0000.0001) tempMultiDimAdvec =   /* use Muti-Dim Advec method for Temp */
(PID.TID 0000.0001)                   F
(PID.TID 0000.0001)     ;
(PID.TID 0000.0001) tempAdamsBashforth =   /* use Adams-Bashforth time-stepping for Temp */
(PID.TID 0000.0001)                   T
(PID.TID 0000.0001)     ;
(PID.TID 0000.0001) saltAdvScheme =   /* Salt. advection scheme selector */
(PID.TID 0000.0001)                       2
(PID.TID 0000.0001)     ;
(PID.TID 0000.0001) saltMultiDimAdvec =   /* use Muti-Dim Advec method for Salt */
(PID.TID 0000.0001)                   F
(PID.TID 0000.0001)     ;
(PID.TID 0000.0001) saltAdamsBashforth =   /* use Adams-Bashforth time-stepping for Salt */
(PID.TID 0000.0001)                   T
(PID.TID 0000.0001)     ;
(PID.TID 0000.0001) // ===================================
(PID.TID 0000.0001) GMREDI_CHECK: #define GMREDI
(PID.TID 0000.0001) GM_AdvForm =  /* if FALSE => use SkewFlux Form */
(PID.TID 0000.0001)                   F
(PID.TID 0000.0001)     ;
(PID.TID 0000.0001) GM_AdvSeparate = /* Calc Bolus & Euler Adv. separately */
(PID.TID 0000.0001)                   F
(PID.TID 0000.0001)     ;
(PID.TID 0000.0001) GM_ExtraDiag =  /* Tensor Extra Diag (line 1&2) non 0 */
(PID.TID 0000.0001)                   F
(PID.TID 0000.0001)     ;
(PID.TID 0000.0001) GM_isopycK =   /* Background Isopyc. Diffusivity ( m^2/s ) */
(PID.TID 0000.0001)                 1.000000000000000E+03
(PID.TID 0000.0001)     ;
(PID.TID 0000.0001)  GM_skewflx*K =   /* Background GM_SkewFlx Diffusivity ( m^2/s ) */
(PID.TID 0000.0001)                 1.000000000000000E+03
(PID.TID 0000.0001)     ;
(PID.TID 0000.0001)  GM_advec*K =   /* Backg. GM-Advec(=Bolus) Diffusivity ( m^2/s ) */
(PID.TID 0000.0001)                 0.000000000000000E+00
(PID.TID 0000.0001)     ;
(PID.TID 0000.0001)  GM_Visbeck_alpha =   /* Visbeck alpha coeff. ( ) */
(PID.TID 0000.0001)                 0.000000000000000E+00
(PID.TID 0000.0001)     ;
(PID.TID 0000.0001)  Tapering/Cliping : gkw91
(PID.TID 0000.0001)  GM_Small_Number =  /* epsilon used in slope calc */
(PID.TID 0000.0001)                 1.000000000000000E-12
(PID.TID 0000.0001)     ;
(PID.TID 0000.0001)  GM_slopeSqCutoff =  /* Slope^2 cut-off value */
(PID.TID 0000.0001)                 1.000000000000000E+48
(PID.TID 0000.0001)     ;
(PID.TID 0000.0001) %MON fCori_max                    =   1.4226580169407E-04
(PID.TID 0000.0001) %MON fCori_min                    =  -1.4226580169407E-04
(PID.TID 0000.0001) %MON fCori_mean                   =   0.0000000000000E+00
(PID.TID 0000.0001) %MON fCori_sd                     =   9.6335367303779E-05
(PID.TID 0000.0001) %MON fCoriG_max                   =   1.4112379284621E-04
(PID.TID 0000.0001) %MON fCoriG_min                   =  -1.4323448157692E-04
(PID.TID 0000.0001) %MON fCoriG_mean                  =  -3.6726790147928E-06
(PID.TID 0000.0001) %MON fCoriG_sd                    =   9.7510077443651E-05
(PID.TID 0000.0001) %MON fCoriCos_max                 =   1.4535550371427E-04
(PID.TID 0000.0001) %MON fCoriCos_min                 =   3.0239529651320E-05
(PID.TID 0000.0001) %MON fCoriCos_mean                =   1.0260497651149E-04
(PID.TID 0000.0001) %MON fCoriCos_sd                  =   3.6683828681187E-05
(PID.TID 0000.0001) // CG2D normalisation factor =          0.9054417797220654443024479E-04
(PID.TID 0000.0001) 
(PID.TID 0000.0001) CONFIG_CHECK: OK
(PID.TID 0000.0001) // =======================================================
(PID.TID 0000.0001) // Model configuration
(PID.TID 0000.0001) // =======================================================
(PID.TID 0000.0001) //
(PID.TID 0000.0001) // "Physical" paramters ( PARM01 in namelist )
(PID.TID 0000.0001) //
(PID.TID 0000.0001) buoyancyRelation = OCEANIC
(PID.TID 0000.0001) tRef =   /* Reference temperature profile ( oC or oK ) */
(PID.TID 0000.0001)    15 @  2.000000000000000E+01              /* K =  1: 15 */
(PID.TID 0000.0001)     ;
(PID.TID 0000.0001) sRef =   /* Reference salinity profile ( ppt ) */
(PID.TID 0000.0001)    15 @  3.500000000000000E+01              /* K =  1: 15 */
(PID.TID 0000.0001)     ;
(PID.TID 0000.0001) viscAh =   /* Lateral eddy viscosity ( m^2/s ) */
(PID.TID 0000.0001)                 5.000000000000000E+05
(PID.TID 0000.0001)     ;
(PID.TID 0000.0001) viscAhMax =   /* Maximum lateral eddy viscosity ( m^2/s ) */
(PID.TID 0000.0001)                 1.000000000000000E+21
(PID.TID 0000.0001)     ;
(PID.TID 0000.0001) viscAhGrid =   /* Grid dependent lateral eddy viscosity ( non-dim. ) */
(PID.TID 0000.0001)                 0.000000000000000E+00
(PID.TID 0000.0001)     ;
(PID.TID 0000.0001) viscA4 =   /* Lateral biharmonic viscosity ( m^4/s ) */
(PID.TID 0000.0001)                 0.000000000000000E+00
(PID.TID 0000.0001)     ;
(PID.TID 0000.0001) viscA4Max =   /* Maximum biharmonic viscosity ( m^2/s ) */
(PID.TID 0000.0001)                 1.000000000000000E+21
(PID.TID 0000.0001)     ;
(PID.TID 0000.0001) viscA4Grid =   /* Grid dependent biharmonic viscosity ( non-dim. ) */
(PID.TID 0000.0001)                 0.000000000000000E+00
(PID.TID 0000.0001)     ;
(PID.TID 0000.0001) no_slip_sides =  /* Viscous BCs: No-slip sides */
(PID.TID 0000.0001)                   T
(PID.TID 0000.0001)     ;
(PID.TID 0000.0001) viscAr =   /* Vertical eddy viscosity ( units of r^2/s ) */
(PID.TID 0000.0001)                 1.000000000000000E-03
(PID.TID 0000.0001)     ;
(PID.TID 0000.0001) diffKhT =   /* Laplacian diffusion of heat laterally ( m^2/s ) */
(PID.TID 0000.0001)                 0.000000000000000E+00
(PID.TID 0000.0001)     ;
(PID.TID 0000.0001) diffK4T =   /* Bihaarmonic diffusion of heat laterally ( m^4/s ) */
(PID.TID 0000.0001)                 0.000000000000000E+00
(PID.TID 0000.0001)     ;
(PID.TID 0000.0001) diffKrT =   /* Laplacian diffusion of heat vertically ( m^2/s ) */
(PID.TID 0000.0001)                 3.000000000000000E-05
(PID.TID 0000.0001)     ;
(PID.TID 0000.0001) diffKhS =   /* Laplacian diffusion of salt laterally ( m^2/s ) */
(PID.TID 0000.0001)                 0.000000000000000E+00
(PID.TID 0000.0001)     ;
(PID.TID 0000.0001) diffK4S =   /* Bihaarmonic diffusion of salt laterally ( m^4/s ) */
(PID.TID 0000.0001)                 0.000000000000000E+00
(PID.TID 0000.0001)     ;
(PID.TID 0000.0001) diffKrS =   /* Laplacian diffusion of salt vertically ( m^2/s ) */
(PID.TID 0000.0001)                 3.000000000000000E-05
(PID.TID 0000.0001)     ;
(PID.TID 0000.0001)  Equation of State : eosType = POLY3
(PID.TID 0000.0001) tAlpha =   /* Linear EOS thermal expansion coefficient ( 1/degree ) */
(PID.TID 0000.0001)                 1.234567000000000E+05
(PID.TID 0000.0001)     ;
(PID.TID 0000.0001) sBeta =   /* Linear EOS haline contraction coefficient ( 1/ppt ) */
(PID.TID 0000.0001)                 1.234567000000000E+05
(PID.TID 0000.0001)     ;
(PID.TID 0000.0001)   1  13.497  32.600  24.548  -0.202   0.773  -0.005  -0.002   0.000   0.000   0.000   0.000   0.000
(PID.TID 0000.0001)   2  13.488  32.600  24.819  -0.204   0.773  -0.005  -0.002   0.000   0.000   0.000   0.000   0.000
(PID.TID 0000.0001)   3  13.476  32.600  25.201  -0.205   0.772  -0.005  -0.002   0.000   0.000   0.000   0.000   0.000
(PID.TID 0000.0001)   4   8.469  35.150  28.642  -0.163   0.784  -0.005  -0.002   0.000   0.000   0.000   0.000   0.000
(PID.TID 0000.0001)   5   8.451  35.150  29.393  -0.167   0.782  -0.005  -0.002   0.000   0.000   0.000   0.000   0.000
(PID.TID 0000.0001)   6   5.940  34.900  30.563  -0.144   0.786  -0.005  -0.002  -0.001   0.000   0.000   0.000   0.000
(PID.TID 0000.0001)   7   4.425  34.900  31.985  -0.134   0.788  -0.005  -0.003   0.000   0.000   0.000   0.000   0.000
(PID.TID 0000.0001)   8   2.911  34.750  33.505  -0.125   0.789  -0.006  -0.003   0.000   0.000   0.000   0.000   0.000
(PID.TID 0000.0001)   9   1.893  34.800  35.341  -0.123   0.789  -0.006  -0.003   0.000   0.000   0.000   0.000   0.000
(PID.TID 0000.0001)  10   1.367  34.800  37.299  -0.129   0.787  -0.006  -0.003   0.000   0.000   0.000   0.000   0.000
(PID.TID 0000.0001)  11   1.327  34.800  39.405  -0.141   0.783  -0.005  -0.003   0.000   0.000   0.000   0.000   0.000
(PID.TID 0000.0001)  12   0.791  34.800  41.788  -0.149   0.780  -0.005  -0.003   0.000   0.000   0.000   0.000   0.000
(PID.TID 0000.0001)  13   0.736  34.750  44.259  -0.164   0.776  -0.005  -0.002   0.000   0.000   0.000   0.000   0.000
(PID.TID 0000.0001)  14   0.186  34.750  47.044  -0.175   0.773  -0.005  -0.002   0.000   0.000   0.000   0.000   0.000
(PID.TID 0000.0001)  15   0.595  34.750  49.835  -0.196   0.767  -0.004  -0.002   0.000   0.000   0.000   0.000   0.000
(PID.TID 0000.0001) rhonil =   /* Reference density ( kg/m^3 ) */
(PID.TID 0000.0001)                 1.035000000000000E+03
(PID.TID 0000.0001)     ;
(PID.TID 0000.0001) rhoConst =   /* Reference density ( kg/m^3 ) */
(PID.TID 0000.0001)                 1.035000000000000E+03
(PID.TID 0000.0001)     ;
(PID.TID 0000.0001) rhoConstFresh =   /* Reference density ( kg/m^3 ) */
(PID.TID 0000.0001)                 1.035000000000000E+03
(PID.TID 0000.0001)     ;
(PID.TID 0000.0001) gravity =   /* Gravitational acceleration ( m/s^2 ) */
(PID.TID 0000.0001)                 9.810000000000000E+00
(PID.TID 0000.0001)     ;
(PID.TID 0000.0001) gBaro =   /* Barotropic gravity ( m/s^2 ) */
(PID.TID 0000.0001)                 9.810000000000000E+00
(PID.TID 0000.0001)     ;
(PID.TID 0000.0001) rotationPeriod =   /* Rotation Period ( s ) */
(PID.TID 0000.0001)                 8.640000000000000E+04
(PID.TID 0000.0001)     ;
(PID.TID 0000.0001) omega =   /* Angular velocity ( rad/s ) */
(PID.TID 0000.0001)                 7.272205216643040E-05
(PID.TID 0000.0001)     ;
(PID.TID 0000.0001) f0 =   /* Reference coriolis parameter ( 1/s ) */
(PID.TID 0000.0001)                 1.000000000000000E-04
(PID.TID 0000.0001)     ;
(PID.TID 0000.0001) beta =   /* Beta ( 1/(m.s) ) */
(PID.TID 0000.0001)                 9.999999999999999E-12
(PID.TID 0000.0001)     ;
(PID.TID 0000.0001) freeSurfFac =   /* Implicit free surface factor */
(PID.TID 0000.0001)                 1.000000000000000E+00
(PID.TID 0000.0001)     ;
(PID.TID 0000.0001) implicitFreeSurface =   /* Implicit free surface on/off flag */
(PID.TID 0000.0001)                   T
(PID.TID 0000.0001)     ;
(PID.TID 0000.0001) rigidLid =   /* Rigid lid on/off flag */
(PID.TID 0000.0001)                   F
(PID.TID 0000.0001)     ;
(PID.TID 0000.0001) implicSurfPress =   /* Surface Pressure implicit factor (0-1)*/
(PID.TID 0000.0001)                 1.000000000000000E+00
(PID.TID 0000.0001)     ;
(PID.TID 0000.0001) implicDiv2Dflow =   /* Barot. Flow Div. implicit factor (0-1)*/
(PID.TID 0000.0001)                 1.000000000000000E+00
(PID.TID 0000.0001)     ;
(PID.TID 0000.0001) exactConserv =   /* Exact Volume Conservation on/off flag*/
(PID.TID 0000.0001)                   F
(PID.TID 0000.0001)     ;
(PID.TID 0000.0001) uniformLin_PhiSurf =   /* use uniform Bo_surf on/off flag*/
(PID.TID 0000.0001)                   T
(PID.TID 0000.0001)     ;
(PID.TID 0000.0001) nonlinFreeSurf =   /* Non-linear Free Surf. options (-1,0,1,2,3)*/
(PID.TID 0000.0001)                       0
(PID.TID 0000.0001)     ;
(PID.TID 0000.0001)      -1,0= Off ; 1,2,3= On, 2=+rescale gU,gV, 3=+update cg2d solv.
(PID.TID 0000.0001) hFacInf =   /* lower threshold for hFac (nonlinFreeSurf only)*/
(PID.TID 0000.0001)                 2.000000000000000E-01
(PID.TID 0000.0001)     ;
(PID.TID 0000.0001) hFacSup =   /* upper threshold for hFac (nonlinFreeSurf only)*/
(PID.TID 0000.0001)                 2.000000000000000E+00
(PID.TID 0000.0001)     ;
(PID.TID 0000.0001) select_rStar =   /* r* Coordinate options (not yet implemented)*/
(PID.TID 0000.0001)                       0
(PID.TID 0000.0001)     ;
(PID.TID 0000.0001) useRealFreshWaterFlux =   /* Real Fresh Water Flux on/off flag*/
(PID.TID 0000.0001)                   T
(PID.TID 0000.0001)     ;
(PID.TID 0000.0001) convertFW2Salt = /* convert F.W. Flux to Salt Flux (-1=use local S)(ppt)*/
(PID.TID 0000.0001)                -1.000000000000000E+00
(PID.TID 0000.0001)     ;
(PID.TID 0000.0001) nonHydrostatic =  /* Non-Hydrostatic on/off flag */
(PID.TID 0000.0001)                   F
(PID.TID 0000.0001)     ;
(PID.TID 0000.0001) momStepping =  /* Momentum equation on/off flag */
(PID.TID 0000.0001)                   T
(PID.TID 0000.0001)     ;
(PID.TID 0000.0001) momAdvection =  /* Momentum advection on/off flag */
(PID.TID 0000.0001)                   T
(PID.TID 0000.0001)     ;
(PID.TID 0000.0001) momViscosity =  /* Momentum viscosity on/off flag */
(PID.TID 0000.0001)                   T
(PID.TID 0000.0001)     ;
(PID.TID 0000.0001) momImplVertAdv =/* Momentum implicit vert. advection on/off*/
(PID.TID 0000.0001)                   F
(PID.TID 0000.0001)     ;
(PID.TID 0000.0001) implicitViscosity = /* Implicit viscosity on/off flag */
(PID.TID 0000.0001)                   F
(PID.TID 0000.0001)     ;
(PID.TID 0000.0001) useCoriolis =  /* Coriolis on/off flag */
(PID.TID 0000.0001)                   T
(PID.TID 0000.0001)     ;
(PID.TID 0000.0001) useCDscheme =  /* CD scheme on/off flag */
(PID.TID 0000.0001)                   T
(PID.TID 0000.0001)     ;
(PID.TID 0000.0001) useJamartWetPoints= /* Coriolis WetPoints method flag */
(PID.TID 0000.0001)                   F
(PID.TID 0000.0001)     ;
(PID.TID 0000.0001) momForcing =  /* Momentum forcing on/off flag */
(PID.TID 0000.0001)                   T
(PID.TID 0000.0001)     ;
(PID.TID 0000.0001) momPressureForcing =  /* Momentum pressure term on/off flag */
(PID.TID 0000.0001)                   T
(PID.TID 0000.0001)     ;
(PID.TID 0000.0001) staggerTimeStep =   /* Stagger time stepping on/off flag */
(PID.TID 0000.0001)                   F
(PID.TID 0000.0001)     ;
(PID.TID 0000.0001) multiDimAdvection =   /* enable/disable Multi-Dim Advection */
(PID.TID 0000.0001)                   T
(PID.TID 0000.0001)     ;
(PID.TID 0000.0001) implicitDiffusion =/* Implicit Diffusion on/off flag */
(PID.TID 0000.0001)                   T
(PID.TID 0000.0001)     ;
(PID.TID 0000.0001) tempStepping =  /* Temperature equation on/off flag */
(PID.TID 0000.0001)                   T
(PID.TID 0000.0001)     ;
(PID.TID 0000.0001) tempAdvection=  /* Temperature advection on/off flag */
(PID.TID 0000.0001)                   T
(PID.TID 0000.0001)     ;
(PID.TID 0000.0001) tempImplVertAdv =/* Temp. implicit vert. advection on/off */
(PID.TID 0000.0001)                   F
(PID.TID 0000.0001)     ;
(PID.TID 0000.0001) tempForcing  =  /* Temperature forcing on/off flag */
(PID.TID 0000.0001)                   T
(PID.TID 0000.0001)     ;
(PID.TID 0000.0001) saltStepping =  /* Salinity equation on/off flag */
(PID.TID 0000.0001)                   T
(PID.TID 0000.0001)     ;
(PID.TID 0000.0001) saltAdvection=  /* Salinity advection on/off flag */
(PID.TID 0000.0001)                   T
(PID.TID 0000.0001)     ;
(PID.TID 0000.0001) saltImplVertAdv =/* Sali. implicit vert. advection on/off */
(PID.TID 0000.0001)                   F
(PID.TID 0000.0001)     ;
(PID.TID 0000.0001) saltForcing  =  /* Salinity forcing on/off flag */
(PID.TID 0000.0001)                   T
(PID.TID 0000.0001)     ;
(PID.TID 0000.0001) //
(PID.TID 0000.0001) // Elliptic solver(s) paramters ( PARM02 in namelist )
(PID.TID 0000.0001) //
(PID.TID 0000.0001) cg2dMaxIters =   /* Upper limit on 2d con. grad iterations  */
(PID.TID 0000.0001)                     500
(PID.TID 0000.0001)     ;
(PID.TID 0000.0001) cg2dChkResFreq =   /* 2d con. grad convergence test frequency */
(PID.TID 0000.0001)                       1
(PID.TID 0000.0001)     ;
(PID.TID 0000.0001) cg2dTargetResidual =   /* 2d con. grad target residual  */
(PID.TID 0000.0001)                 1.000000000000000E-13
(PID.TID 0000.0001)     ;
(PID.TID 0000.0001) //
(PID.TID 0000.0001) // Time stepping paramters ( PARM03 in namelist )
(PID.TID 0000.0001) //
(PID.TID 0000.0001) nIter0 =   /* Base timestep number  */
(PID.TID 0000.0001)                       0
(PID.TID 0000.0001)     ;
(PID.TID 0000.0001) nTimeSteps =   /* Number of timesteps */
(PID.TID 0000.0001)                      20
(PID.TID 0000.0001)     ;
(PID.TID 0000.0001) deltatTmom =   /* Momentum equation timestep ( s ) */
(PID.TID 0000.0001)                 1.200000000000000E+03
(PID.TID 0000.0001)     ;
(PID.TID 0000.0001) deltaTfreesurf =   /* FreeSurface equation timestep ( s ) */
(PID.TID 0000.0001)                 1.200000000000000E+03
(PID.TID 0000.0001)     ;
(PID.TID 0000.0001) deltatTtracer =   /* Tracer equation timestep ( s ) */
(PID.TID 0000.0001)                 4.320000000000000E+04
(PID.TID 0000.0001)     ;
(PID.TID 0000.0001) deltatTClock  =   /* Model clock timestep ( s ) */
(PID.TID 0000.0001)                 4.320000000000000E+04
(PID.TID 0000.0001)     ;
(PID.TID 0000.0001) cAdjFreq =   /* Convective adjustment interval ( s ) */
(PID.TID 0000.0001)                 0.000000000000000E+00
(PID.TID 0000.0001)     ;
(PID.TID 0000.0001) forcing_In_AB =   /* put T,S Forcing in Adams-Bash. stepping */
(PID.TID 0000.0001)                   T
(PID.TID 0000.0001)     ;
(PID.TID 0000.0001) abeps =   /* Adams-Bashforth stabilizing weight */
(PID.TID 0000.0001)                 1.000000000000000E-01
(PID.TID 0000.0001)     ;
(PID.TID 0000.0001) tauCD =   /* CD coupling time-scale ( s ) */
(PID.TID 0000.0001)                 3.214280000000000E+05
(PID.TID 0000.0001)     ;
(PID.TID 0000.0001) rCD =   /* Normalised CD coupling parameter */
(PID.TID 0000.0001)                 9.962666600296178E-01
(PID.TID 0000.0001)     ;
(PID.TID 0000.0001) startTime =   /* Run start time ( s ). */
(PID.TID 0000.0001)                 0.000000000000000E+00
(PID.TID 0000.0001)     ;
(PID.TID 0000.0001) endTime =   /* Integration ending time ( s ). */
(PID.TID 0000.0001)                 8.640000000000000E+05
(PID.TID 0000.0001)     ;
(PID.TID 0000.0001) pChkPtFreq =   /* Permanent restart/checkpoint file interval ( s ). */
(PID.TID 0000.0001)                 3.110400000000000E+08
(PID.TID 0000.0001)     ;
(PID.TID 0000.0001) chkPtFreq =   /* Rolling restart/checkpoint file interval ( s ). */
(PID.TID 0000.0001)                 0.000000000000000E+00
(PID.TID 0000.0001)     ;
(PID.TID 0000.0001) dumpFreq =   /* Model state write out interval ( s ). */
(PID.TID 0000.0001)                 8.640000000000000E+05
(PID.TID 0000.0001)     ;
(PID.TID 0000.0001) externForcingPeriod =   /* forcing period (s) */
(PID.TID 0000.0001)                 2.592000000000000E+06
(PID.TID 0000.0001)     ;
(PID.TID 0000.0001) externForcingCycle =   /* period of the cyle (s). */
(PID.TID 0000.0001)                 3.110400000000000E+07
(PID.TID 0000.0001)     ;
(PID.TID 0000.0001) tauThetaClimRelax =   /* relaxation time scale (s) */
(PID.TID 0000.0001)                 5.184000000000000E+06
(PID.TID 0000.0001)     ;
(PID.TID 0000.0001) tauSaltClimRelax =   /* relaxation time scale (s) */
(PID.TID 0000.0001)                 1.555200000000000E+07
(PID.TID 0000.0001)     ;
(PID.TID 0000.0001) latBandClimRelax =   /* max. Lat. where relaxation */
(PID.TID 0000.0001)                 1.800000000000000E+02
(PID.TID 0000.0001)     ;
(PID.TID 0000.0001) //
(PID.TID 0000.0001) // Gridding paramters ( PARM04 in namelist )
(PID.TID 0000.0001) //
(PID.TID 0000.0001) usingCartesianGrid =   /* Cartesian coordinates flag ( True / False ) */
(PID.TID 0000.0001)                   F
(PID.TID 0000.0001)     ;
(PID.TID 0000.0001) usingSphericalPolarGrid =   /* Spherical coordinates flag ( True / False ) */
(PID.TID 0000.0001)                   T
(PID.TID 0000.0001)     ;
(PID.TID 0000.0001) groundAtK1 =   /* Lower Boundary (ground) at the surface(k=1) ( T / F ) */
(PID.TID 0000.0001)                   F
(PID.TID 0000.0001)     ;
(PID.TID 0000.0001) Ro_SeaLevel =   /* r(1) ( units of r ) */
(PID.TID 0000.0001)                 0.000000000000000E+00
(PID.TID 0000.0001)     ;
(PID.TID 0000.0001) rkFac =   /* minus Vertical index orientation  */
(PID.TID 0000.0001)                 1.000000000000000E+00
(PID.TID 0000.0001)     ;
(PID.TID 0000.0001) horiVertRatio =   /* Ratio on units : Horiz - Vertical */
(PID.TID 0000.0001)                 1.000000000000000E+00
(PID.TID 0000.0001)     ;
(PID.TID 0000.0001) drC =   /* C spacing ( units of r ) */
(PID.TID 0000.0001)                 2.500000000000000E+01,      /* K =  1 */
(PID.TID 0000.0001)                 6.000000000000000E+01,      /* K =  2 */
(PID.TID 0000.0001)                 8.500000000000000E+01,      /* K =  3 */
(PID.TID 0000.0001)                 1.200000000000000E+02,      /* K =  4 */
(PID.TID 0000.0001)                 1.650000000000000E+02,      /* K =  5 */
(PID.TID 0000.0001)                 2.150000000000000E+02,      /* K =  6 */
(PID.TID 0000.0001)                 2.650000000000000E+02,      /* K =  7 */
(PID.TID 0000.0001)                 3.150000000000000E+02,      /* K =  8 */
(PID.TID 0000.0001)                 3.650000000000000E+02,      /* K =  9 */
(PID.TID 0000.0001)                 4.150000000000000E+02,      /* K = 10 */
(PID.TID 0000.0001)                 4.650000000000000E+02,      /* K = 11 */
(PID.TID 0000.0001)                 5.150000000000000E+02,      /* K = 12 */
(PID.TID 0000.0001)                 5.650000000000000E+02,      /* K = 13 */
(PID.TID 0000.0001)                 6.150000000000000E+02,      /* K = 14 */
(PID.TID 0000.0001)                 6.650000000000000E+02       /* K = 15 */
(PID.TID 0000.0001)     ;
(PID.TID 0000.0001) drF =   /* W spacing ( units of r ) */
(PID.TID 0000.0001)                 5.000000000000000E+01,      /* K =  1 */
(PID.TID 0000.0001)                 7.000000000000000E+01,      /* K =  2 */
(PID.TID 0000.0001)                 1.000000000000000E+02,      /* K =  3 */
(PID.TID 0000.0001)                 1.400000000000000E+02,      /* K =  4 */
(PID.TID 0000.0001)                 1.900000000000000E+02,      /* K =  5 */
(PID.TID 0000.0001)                 2.400000000000000E+02,      /* K =  6 */
(PID.TID 0000.0001)                 2.900000000000000E+02,      /* K =  7 */
(PID.TID 0000.0001)                 3.400000000000000E+02,      /* K =  8 */
(PID.TID 0000.0001)                 3.900000000000000E+02,      /* K =  9 */
(PID.TID 0000.0001)                 4.400000000000000E+02,      /* K = 10 */
(PID.TID 0000.0001)                 4.900000000000000E+02,      /* K = 11 */
(PID.TID 0000.0001)                 5.400000000000000E+02,      /* K = 12 */
(PID.TID 0000.0001)                 5.900000000000000E+02,      /* K = 13 */
(PID.TID 0000.0001)                 6.400000000000000E+02,      /* K = 14 */
(PID.TID 0000.0001)                 6.900000000000000E+02       /* K = 15 */
(PID.TID 0000.0001)     ;
(PID.TID 0000.0001) delX =   /* U spacing ( m - cartesian, degrees - spherical ) */
(PID.TID 0000.0001)    90 @  4.000000000000000E+00              /* I =  1: 90 */
(PID.TID 0000.0001)     ;
(PID.TID 0000.0001) delY =   /* V spacing ( m - cartesian, degrees - spherical ) */
(PID.TID 0000.0001)    40 @  4.000000000000000E+00              /* J =  1: 40 */
(PID.TID 0000.0001)     ;
(PID.TID 0000.0001) phiMin =    /* South edge (ignored - cartesian, degrees - spherical ) */
(PID.TID 0000.0001)                -8.000000000000000E+01
(PID.TID 0000.0001)     ;
(PID.TID 0000.0001) thetaMin =    /* West edge ( ignored - cartesian, degrees - spherical ) */
(PID.TID 0000.0001)                 0.000000000000000E+00
(PID.TID 0000.0001)     ;
(PID.TID 0000.0001) rSphere =    /* Radius ( ignored - cartesian, m - spherical ) */
(PID.TID 0000.0001)                 6.370000000000000E+06
(PID.TID 0000.0001)     ;
(PID.TID 0000.0001) xcoord =   /* P-point X coord ( m - cartesian, degrees - spherical ) */
(PID.TID 0000.0001)                 2.000000000000000E+00,      /* I =  1 */
(PID.TID 0000.0001)                 6.000000000000000E+00,      /* I =  2 */
(PID.TID 0000.0001)                 1.000000000000000E+01,      /* I =  3 */
(PID.TID 0000.0001)                 1.400000000000000E+01,      /* I =  4 */
(PID.TID 0000.0001)                 1.800000000000000E+01,      /* I =  5 */
(PID.TID 0000.0001)                 2.200000000000000E+01,      /* I =  6 */
(PID.TID 0000.0001)                 2.600000000000000E+01,      /* I =  7 */
(PID.TID 0000.0001)                 3.000000000000000E+01,      /* I =  8 */
(PID.TID 0000.0001)                 3.400000000000000E+01,      /* I =  9 */
(PID.TID 0000.0001)                 3.800000000000000E+01,      /* I = 10 */
(PID.TID 0000.0001)                 4.200000000000000E+01,      /* I = 11 */
(PID.TID 0000.0001)                 4.600000000000000E+01,      /* I = 12 */
(PID.TID 0000.0001)                 5.000000000000000E+01,      /* I = 13 */
(PID.TID 0000.0001)                 5.400000000000000E+01,      /* I = 14 */
(PID.TID 0000.0001)                 5.800000000000000E+01,      /* I = 15 */
(PID.TID 0000.0001)                 6.200000000000000E+01,      /* I = 16 */
(PID.TID 0000.0001)                 6.600000000000000E+01,      /* I = 17 */
(PID.TID 0000.0001)                 7.000000000000000E+01,      /* I = 18 */
(PID.TID 0000.0001)                 7.400000000000000E+01,      /* I = 19 */
(PID.TID 0000.0001)                 7.800000000000000E+01,      /* I = 20 */
(PID.TID 0000.0001)                 8.200000000000000E+01,      /* I = 21 */
(PID.TID 0000.0001)                 8.600000000000000E+01,      /* I = 22 */
(PID.TID 0000.0001)                 9.000000000000000E+01,      /* I = 23 */
(PID.TID 0000.0001)                 9.400000000000000E+01,      /* I = 24 */
(PID.TID 0000.0001)                 9.800000000000000E+01,      /* I = 25 */
(PID.TID 0000.0001)                 1.020000000000000E+02,      /* I = 26 */
(PID.TID 0000.0001)                 1.060000000000000E+02,      /* I = 27 */
(PID.TID 0000.0001)                 1.100000000000000E+02,      /* I = 28 */
(PID.TID 0000.0001)                 1.140000000000000E+02,      /* I = 29 */
(PID.TID 0000.0001)                 1.180000000000000E+02,      /* I = 30 */
(PID.TID 0000.0001)                 1.220000000000000E+02,      /* I = 31 */
(PID.TID 0000.0001)                 1.260000000000000E+02,      /* I = 32 */
(PID.TID 0000.0001)                 1.300000000000000E+02,      /* I = 33 */
(PID.TID 0000.0001)                 1.340000000000000E+02,      /* I = 34 */
(PID.TID 0000.0001)                 1.380000000000000E+02,      /* I = 35 */
(PID.TID 0000.0001)                 1.420000000000000E+02,      /* I = 36 */
(PID.TID 0000.0001)                 1.460000000000000E+02,      /* I = 37 */
(PID.TID 0000.0001)                 1.500000000000000E+02,      /* I = 38 */
(PID.TID 0000.0001)                 1.540000000000000E+02,      /* I = 39 */
(PID.TID 0000.0001)                 1.580000000000000E+02,      /* I = 40 */
(PID.TID 0000.0001)                 1.620000000000000E+02,      /* I = 41 */
(PID.TID 0000.0001)                 1.660000000000000E+02,      /* I = 42 */
(PID.TID 0000.0001)                 1.700000000000000E+02,      /* I = 43 */
(PID.TID 0000.0001)                 1.740000000000000E+02,      /* I = 44 */
(PID.TID 0000.0001)                 1.780000000000000E+02,      /* I = 45 */
(PID.TID 0000.0001)                 1.820000000000000E+02,      /* I = 46 */
(PID.TID 0000.0001)                 1.860000000000000E+02,      /* I = 47 */
(PID.TID 0000.0001)                 1.900000000000000E+02,      /* I = 48 */
(PID.TID 0000.0001)                 1.940000000000000E+02,      /* I = 49 */
(PID.TID 0000.0001)                 1.980000000000000E+02,      /* I = 50 */
(PID.TID 0000.0001)                 2.020000000000000E+02,      /* I = 51 */
(PID.TID 0000.0001)                 2.060000000000000E+02,      /* I = 52 */
(PID.TID 0000.0001)                 2.100000000000000E+02,      /* I = 53 */
(PID.TID 0000.0001)                 2.140000000000000E+02,      /* I = 54 */
(PID.TID 0000.0001)                 2.180000000000000E+02,      /* I = 55 */
(PID.TID 0000.0001)                 2.220000000000000E+02,      /* I = 56 */
(PID.TID 0000.0001)                 2.260000000000000E+02,      /* I = 57 */
(PID.TID 0000.0001)                 2.300000000000000E+02,      /* I = 58 */
(PID.TID 0000.0001)                 2.340000000000000E+02,      /* I = 59 */
(PID.TID 0000.0001)                 2.380000000000000E+02,      /* I = 60 */
(PID.TID 0000.0001)                 2.420000000000000E+02,      /* I = 61 */
(PID.TID 0000.0001)                 2.460000000000000E+02,      /* I = 62 */
(PID.TID 0000.0001)                 2.500000000000000E+02,      /* I = 63 */
(PID.TID 0000.0001)                 2.540000000000000E+02,      /* I = 64 */
(PID.TID 0000.0001)                 2.580000000000000E+02,      /* I = 65 */
(PID.TID 0000.0001)                 2.620000000000000E+02,      /* I = 66 */
(PID.TID 0000.0001)                 2.660000000000000E+02,      /* I = 67 */
(PID.TID 0000.0001)                 2.700000000000000E+02,      /* I = 68 */
(PID.TID 0000.0001)                 2.740000000000000E+02,      /* I = 69 */
(PID.TID 0000.0001)                 2.780000000000000E+02,      /* I = 70 */
(PID.TID 0000.0001)                 2.820000000000000E+02,      /* I = 71 */
(PID.TID 0000.0001)                 2.860000000000000E+02,      /* I = 72 */
(PID.TID 0000.0001)                 2.900000000000000E+02,      /* I = 73 */
(PID.TID 0000.0001)                 2.940000000000000E+02,      /* I = 74 */
(PID.TID 0000.0001)                 2.980000000000000E+02,      /* I = 75 */
(PID.TID 0000.0001)                 3.020000000000000E+02,      /* I = 76 */
(PID.TID 0000.0001)                 3.060000000000000E+02,      /* I = 77 */
(PID.TID 0000.0001)                 3.100000000000000E+02,      /* I = 78 */
(PID.TID 0000.0001)                 3.140000000000000E+02,      /* I = 79 */
(PID.TID 0000.0001)                 3.180000000000000E+02,      /* I = 80 */
(PID.TID 0000.0001)                 3.220000000000000E+02,      /* I = 81 */
(PID.TID 0000.0001)                 3.260000000000000E+02,      /* I = 82 */
(PID.TID 0000.0001)                 3.300000000000000E+02,      /* I = 83 */
(PID.TID 0000.0001)                 3.340000000000000E+02,      /* I = 84 */
(PID.TID 0000.0001)                 3.380000000000000E+02,      /* I = 85 */
(PID.TID 0000.0001)                 3.420000000000000E+02,      /* I = 86 */
(PID.TID 0000.0001)                 3.460000000000000E+02,      /* I = 87 */
(PID.TID 0000.0001)                 3.500000000000000E+02,      /* I = 88 */
(PID.TID 0000.0001)                 3.540000000000000E+02,      /* I = 89 */
(PID.TID 0000.0001)                 3.580000000000000E+02       /* I = 90 */
(PID.TID 0000.0001)     ;
(PID.TID 0000.0001) ycoord =   /* P-point Y coord ( m - cartesian, degrees - spherical ) */
(PID.TID 0000.0001)                -7.800000000000000E+01,      /* J =  1 */
(PID.TID 0000.0001)                -7.400000000000000E+01,      /* J =  2 */
(PID.TID 0000.0001)                -7.000000000000000E+01,      /* J =  3 */
(PID.TID 0000.0001)                -6.600000000000000E+01,      /* J =  4 */
(PID.TID 0000.0001)                -6.200000000000000E+01,      /* J =  5 */
(PID.TID 0000.0001)                -5.800000000000000E+01,      /* J =  6 */
(PID.TID 0000.0001)                -5.400000000000000E+01,      /* J =  7 */
(PID.TID 0000.0001)                -5.000000000000000E+01,      /* J =  8 */
(PID.TID 0000.0001)                -4.600000000000000E+01,      /* J =  9 */
(PID.TID 0000.0001)                -4.200000000000000E+01,      /* J = 10 */
(PID.TID 0000.0001)                -3.800000000000000E+01,      /* J = 11 */
(PID.TID 0000.0001)                -3.400000000000000E+01,      /* J = 12 */
(PID.TID 0000.0001)                -3.000000000000000E+01,      /* J = 13 */
(PID.TID 0000.0001)                -2.600000000000000E+01,      /* J = 14 */
(PID.TID 0000.0001)                -2.200000000000000E+01,      /* J = 15 */
(PID.TID 0000.0001)                -1.800000000000000E+01,      /* J = 16 */
(PID.TID 0000.0001)                -1.400000000000000E+01,      /* J = 17 */
(PID.TID 0000.0001)                -1.000000000000000E+01,      /* J = 18 */
(PID.TID 0000.0001)                -6.000000000000000E+00,      /* J = 19 */
(PID.TID 0000.0001)                -2.000000000000000E+00,      /* J = 20 */
(PID.TID 0000.0001)                 2.000000000000000E+00,      /* J = 21 */
(PID.TID 0000.0001)                 6.000000000000000E+00,      /* J = 22 */
(PID.TID 0000.0001)                 1.000000000000000E+01,      /* J = 23 */
(PID.TID 0000.0001)                 1.400000000000000E+01,      /* J = 24 */
(PID.TID 0000.0001)                 1.800000000000000E+01,      /* J = 25 */
(PID.TID 0000.0001)                 2.200000000000000E+01,      /* J = 26 */
(PID.TID 0000.0001)                 2.600000000000000E+01,      /* J = 27 */
(PID.TID 0000.0001)                 3.000000000000000E+01,      /* J = 28 */
(PID.TID 0000.0001)                 3.400000000000000E+01,      /* J = 29 */
(PID.TID 0000.0001)                 3.800000000000000E+01,      /* J = 30 */
(PID.TID 0000.0001)                 4.200000000000000E+01,      /* J = 31 */
(PID.TID 0000.0001)                 4.600000000000000E+01,      /* J = 32 */
(PID.TID 0000.0001)                 5.000000000000000E+01,      /* J = 33 */
(PID.TID 0000.0001)                 5.400000000000000E+01,      /* J = 34 */
(PID.TID 0000.0001)                 5.800000000000000E+01,      /* J = 35 */
(PID.TID 0000.0001)                 6.200000000000000E+01,      /* J = 36 */
(PID.TID 0000.0001)                 6.600000000000000E+01,      /* J = 37 */
(PID.TID 0000.0001)                 7.000000000000000E+01,      /* J = 38 */
(PID.TID 0000.0001)                 7.400000000000000E+01,      /* J = 39 */
(PID.TID 0000.0001)                 7.800000000000000E+01       /* J = 40 */
(PID.TID 0000.0001)     ;
(PID.TID 0000.0001) rcoord =   /* P-point R coordinate (  units of r ) */
(PID.TID 0000.0001)                -2.500000000000000E+01,      /* K =  1 */
(PID.TID 0000.0001)                -8.500000000000000E+01,      /* K =  2 */
(PID.TID 0000.0001)                -1.700000000000000E+02,      /* K =  3 */
(PID.TID 0000.0001)                -2.900000000000000E+02,      /* K =  4 */
(PID.TID 0000.0001)                -4.550000000000000E+02,      /* K =  5 */
(PID.TID 0000.0001)                -6.700000000000000E+02,      /* K =  6 */
(PID.TID 0000.0001)                -9.350000000000000E+02,      /* K =  7 */
(PID.TID 0000.0001)                -1.250000000000000E+03,      /* K =  8 */
(PID.TID 0000.0001)                -1.615000000000000E+03,      /* K =  9 */
(PID.TID 0000.0001)                -2.030000000000000E+03,      /* K = 10 */
(PID.TID 0000.0001)                -2.495000000000000E+03,      /* K = 11 */
(PID.TID 0000.0001)                -3.010000000000000E+03,      /* K = 12 */
(PID.TID 0000.0001)                -3.575000000000000E+03,      /* K = 13 */
(PID.TID 0000.0001)                -4.190000000000000E+03,      /* K = 14 */
(PID.TID 0000.0001)                -4.855000000000000E+03       /* K = 15 */
(PID.TID 0000.0001)     ;
(PID.TID 0000.0001) rF =   /* W-Interf. R coordinate (  units of r ) */
(PID.TID 0000.0001)                 0.000000000000000E+00,      /* K =  1 */
(PID.TID 0000.0001)                -5.000000000000000E+01,      /* K =  2 */
(PID.TID 0000.0001)                -1.200000000000000E+02,      /* K =  3 */
(PID.TID 0000.0001)                -2.200000000000000E+02,      /* K =  4 */
(PID.TID 0000.0001)                -3.600000000000000E+02,      /* K =  5 */
(PID.TID 0000.0001)                -5.500000000000000E+02,      /* K =  6 */
(PID.TID 0000.0001)                -7.900000000000000E+02,      /* K =  7 */
(PID.TID 0000.0001)                -1.080000000000000E+03,      /* K =  8 */
(PID.TID 0000.0001)                -1.420000000000000E+03,      /* K =  9 */
(PID.TID 0000.0001)                -1.810000000000000E+03,      /* K = 10 */
(PID.TID 0000.0001)                -2.250000000000000E+03,      /* K = 11 */
(PID.TID 0000.0001)                -2.740000000000000E+03,      /* K = 12 */
(PID.TID 0000.0001)                -3.280000000000000E+03,      /* K = 13 */
(PID.TID 0000.0001)                -3.870000000000000E+03,      /* K = 14 */
(PID.TID 0000.0001)                -4.510000000000000E+03,      /* K = 15 */
(PID.TID 0000.0001)                -5.200000000000000E+03       /* K = 16 */
(PID.TID 0000.0001)     ;
(PID.TID 0000.0001) dxF =  /* dxF(:,1,:,1) ( m - cartesian, degrees - spherical ) */
(PID.TID 0000.0001)    90 @  9.246038586187513E+04              /* I =  1: 90 */
(PID.TID 0000.0001)     ;
(PID.TID 0000.0001) dxF =  /* dxF(1,:,1,:) ( m - cartesian, degrees - spherical ) */
(PID.TID 0000.0001)                 9.246038586187513E+04,      /* J =  1 */
(PID.TID 0000.0001)                 1.225786591246834E+05,      /* J =  2 */
(PID.TID 0000.0001)                 1.520997414818001E+05,      /* J =  3 */
(PID.TID 0000.0001)                 1.808798091874300E+05,      /* J =  4 */
(PID.TID 0000.0001)                 2.087786486446736E+05,      /* J =  5 */
(PID.TID 0000.0001)                 2.356603395120766E+05,      /* J =  6 */
(PID.TID 0000.0001)                 2.613939168938713E+05,      /* J =  7 */
(PID.TID 0000.0001)                 2.858540093877838E+05,      /* J =  8 */
(PID.TID 0000.0001)                 3.089214498819035E+05,      /* J =  9 */
(PID.TID 0000.0001)                 3.304838561248741E+05,      /* J = 10 */
(PID.TID 0000.0001)                 3.504361782409254E+05,      /* J = 11 */
(PID.TID 0000.0001)                 3.686812105223083E+05,      /* J = 12 */
(PID.TID 0000.0001)                 3.851300650057322E+05,      /* J = 13 */
(PID.TID 0000.0001)                 3.997026045255871E+05,      /* J = 14 */
(PID.TID 0000.0001)                 4.123278331341585E+05,      /* J = 15 */
(PID.TID 0000.0001)                 4.229442419867491E+05,      /* J = 16 */
(PID.TID 0000.0001)                 4.315001090065869E+05,      /* J = 17 */
(PID.TID 0000.0001)                 4.379537508695839E+05,      /* J = 18 */
(PID.TID 0000.0001)                 4.422737260813013E+05,      /* J = 19 */
(PID.TID 0000.0001)     2 @  4.444389881567501E+05,             /* J = 20: 21 */
(PID.TID 0000.0001)                 4.422737260813013E+05,      /* J = 22 */
(PID.TID 0000.0001)                 4.379537508695839E+05,      /* J = 23 */
(PID.TID 0000.0001)                 4.315001090065869E+05,      /* J = 24 */
(PID.TID 0000.0001)                 4.229442419867491E+05,      /* J = 25 */
(PID.TID 0000.0001)                 4.123278331341585E+05,      /* J = 26 */
(PID.TID 0000.0001)                 3.997026045255871E+05,      /* J = 27 */
(PID.TID 0000.0001)                 3.851300650057322E+05,      /* J = 28 */
(PID.TID 0000.0001)                 3.686812105223083E+05,      /* J = 29 */
(PID.TID 0000.0001)                 3.504361782409254E+05,      /* J = 30 */
(PID.TID 0000.0001)                 3.304838561248741E+05,      /* J = 31 */
(PID.TID 0000.0001)                 3.089214498819035E+05,      /* J = 32 */
(PID.TID 0000.0001)                 2.858540093877838E+05,      /* J = 33 */
(PID.TID 0000.0001)                 2.613939168938713E+05,      /* J = 34 */
(PID.TID 0000.0001)                 2.356603395120766E+05,      /* J = 35 */
(PID.TID 0000.0001)                 2.087786486446736E+05,      /* J = 36 */
(PID.TID 0000.0001)                 1.808798091874300E+05,      /* J = 37 */
(PID.TID 0000.0001)                 1.520997414818001E+05,      /* J = 38 */
(PID.TID 0000.0001)                 1.225786591246834E+05,      /* J = 39 */
(PID.TID 0000.0001)                 9.246038586187513E+04       /* J = 40 */
(PID.TID 0000.0001)     ;
(PID.TID 0000.0001) dyF =  /* dyF(:,1,:,1) ( m - cartesian, degrees - spherical ) */
(PID.TID 0000.0001)    90 @  4.447098934081552E+05              /* I =  1: 90 */
(PID.TID 0000.0001)     ;
(PID.TID 0000.0001) dyF =  /* dyF(1,:,1,:) ( m - cartesian, degrees - spherical ) */
(PID.TID 0000.0001)    40 @  4.447098934081552E+05              /* J =  1: 40 */
(PID.TID 0000.0001)     ;
(PID.TID 0000.0001) dxG =  /* dxG(:,1,:,1) ( m - cartesian, degrees - spherical ) */
(PID.TID 0000.0001)    90 @  7.722306258078101E+04              /* I =  1: 90 */
(PID.TID 0000.0001)     ;
(PID.TID 0000.0001) dxG =  /* dxG(1,:,1,:) ( m - cartesian, degrees - spherical ) */
(PID.TID 0000.0001)                 7.722306258078101E+04,      /* J =  1 */
(PID.TID 0000.0001)                 1.075850604052271E+05,      /* J =  2 */
(PID.TID 0000.0001)                 1.374229146297914E+05,      /* J =  3 */
(PID.TID 0000.0001)                 1.665912582279823E+05,      /* J =  4 */
(PID.TID 0000.0001)                 1.949479859617814E+05,      /* J =  5 */
(PID.TID 0000.0001)                 2.223549467040776E+05,      /* J =  6 */
(PID.TID 0000.0001)                 2.486786164970726E+05,      /* J =  7 */
(PID.TID 0000.0001)                 2.737907490675810E+05,      /* J =  8 */
(PID.TID 0000.0001)                 2.975690006299820E+05,      /* J =  9 */
(PID.TID 0000.0001)                 3.198975259328452E+05,      /* J = 10 */
(PID.TID 0000.0001)                 3.406675426453503E+05,      /* J = 11 */
(PID.TID 0000.0001)                 3.597778613338689E+05,      /* J = 12 */
(PID.TID 0000.0001)                 3.771353784467131E+05,      /* J = 13 */
(PID.TID 0000.0001)                 3.926555299052806E+05,      /* J = 14 */
(PID.TID 0000.0001)                 4.062627030917454E+05,      /* J = 15 */
(PID.TID 0000.0001)                 4.178906052261313E+05,      /* J = 16 */
(PID.TID 0000.0001)                 4.274825863380723E+05,      /* J = 17 */
(PID.TID 0000.0001)                 4.349919152597734E+05,      /* J = 18 */
(PID.TID 0000.0001)                 4.403820072955634E+05,      /* J = 19 */
(PID.TID 0000.0001)                 4.436266024588540E+05,      /* J = 20 */
(PID.TID 0000.0001)                 4.447098934081552E+05,      /* J = 21 */
(PID.TID 0000.0001)                 4.436266024588540E+05,      /* J = 22 */
(PID.TID 0000.0001)                 4.403820072955634E+05,      /* J = 23 */
(PID.TID 0000.0001)                 4.349919152597734E+05,      /* J = 24 */
(PID.TID 0000.0001)                 4.274825863380723E+05,      /* J = 25 */
(PID.TID 0000.0001)                 4.178906052261313E+05,      /* J = 26 */
(PID.TID 0000.0001)                 4.062627030917454E+05,      /* J = 27 */
(PID.TID 0000.0001)                 3.926555299052806E+05,      /* J = 28 */
(PID.TID 0000.0001)                 3.771353784467131E+05,      /* J = 29 */
(PID.TID 0000.0001)                 3.597778613338689E+05,      /* J = 30 */
(PID.TID 0000.0001)                 3.406675426453503E+05,      /* J = 31 */
(PID.TID 0000.0001)                 3.198975259328452E+05,      /* J = 32 */
(PID.TID 0000.0001)                 2.975690006299820E+05,      /* J = 33 */
(PID.TID 0000.0001)                 2.737907490675810E+05,      /* J = 34 */
(PID.TID 0000.0001)                 2.486786164970726E+05,      /* J = 35 */
(PID.TID 0000.0001)                 2.223549467040776E+05,      /* J = 36 */
(PID.TID 0000.0001)                 1.949479859617814E+05,      /* J = 37 */
(PID.TID 0000.0001)                 1.665912582279823E+05,      /* J = 38 */
(PID.TID 0000.0001)                 1.374229146297914E+05,      /* J = 39 */
(PID.TID 0000.0001)                 1.075850604052271E+05       /* J = 40 */
(PID.TID 0000.0001)     ;
(PID.TID 0000.0001) dyG =  /* dyG(:,1,:,1) ( m - cartesian, degrees - spherical ) */
(PID.TID 0000.0001)    90 @  4.447098934081552E+05              /* I =  1: 90 */
(PID.TID 0000.0001)     ;
(PID.TID 0000.0001) dyG =  /* dyG(1,:,1,:) ( m - cartesian, degrees - spherical ) */
(PID.TID 0000.0001)    40 @  4.447098934081552E+05              /* J =  1: 40 */
(PID.TID 0000.0001)     ;
(PID.TID 0000.0001) dxC =  /* dxC(:,1,:,1) ( m - cartesian, degrees - spherical ) */
(PID.TID 0000.0001)    90 @  9.246038586187513E+04              /* I =  1: 90 */
(PID.TID 0000.0001)     ;
(PID.TID 0000.0001) dxC =  /* dxC(1,:,1,:) ( m - cartesian, degrees - spherical ) */
(PID.TID 0000.0001)                 9.246038586187513E+04,      /* J =  1 */
(PID.TID 0000.0001)                 1.225786591246834E+05,      /* J =  2 */
(PID.TID 0000.0001)                 1.520997414818001E+05,      /* J =  3 */
(PID.TID 0000.0001)                 1.808798091874300E+05,      /* J =  4 */
(PID.TID 0000.0001)                 2.087786486446736E+05,      /* J =  5 */
(PID.TID 0000.0001)                 2.356603395120766E+05,      /* J =  6 */
(PID.TID 0000.0001)                 2.613939168938713E+05,      /* J =  7 */
(PID.TID 0000.0001)                 2.858540093877838E+05,      /* J =  8 */
(PID.TID 0000.0001)                 3.089214498819035E+05,      /* J =  9 */
(PID.TID 0000.0001)                 3.304838561248741E+05,      /* J = 10 */
(PID.TID 0000.0001)                 3.504361782409254E+05,      /* J = 11 */
(PID.TID 0000.0001)                 3.686812105223083E+05,      /* J = 12 */
(PID.TID 0000.0001)                 3.851300650057322E+05,      /* J = 13 */
(PID.TID 0000.0001)                 3.997026045255871E+05,      /* J = 14 */
(PID.TID 0000.0001)                 4.123278331341585E+05,      /* J = 15 */
(PID.TID 0000.0001)                 4.229442419867491E+05,      /* J = 16 */
(PID.TID 0000.0001)                 4.315001090065869E+05,      /* J = 17 */
(PID.TID 0000.0001)                 4.379537508695839E+05,      /* J = 18 */
(PID.TID 0000.0001)                 4.422737260813013E+05,      /* J = 19 */
(PID.TID 0000.0001)     2 @  4.444389881567501E+05,             /* J = 20: 21 */
(PID.TID 0000.0001)                 4.422737260813013E+05,      /* J = 22 */
(PID.TID 0000.0001)                 4.379537508695839E+05,      /* J = 23 */
(PID.TID 0000.0001)                 4.315001090065869E+05,      /* J = 24 */
(PID.TID 0000.0001)                 4.229442419867491E+05,      /* J = 25 */
(PID.TID 0000.0001)                 4.123278331341585E+05,      /* J = 26 */
(PID.TID 0000.0001)                 3.997026045255871E+05,      /* J = 27 */
(PID.TID 0000.0001)                 3.851300650057322E+05,      /* J = 28 */
(PID.TID 0000.0001)                 3.686812105223083E+05,      /* J = 29 */
(PID.TID 0000.0001)                 3.504361782409254E+05,      /* J = 30 */
(PID.TID 0000.0001)                 3.304838561248741E+05,      /* J = 31 */
(PID.TID 0000.0001)                 3.089214498819035E+05,      /* J = 32 */
(PID.TID 0000.0001)                 2.858540093877838E+05,      /* J = 33 */
(PID.TID 0000.0001)                 2.613939168938713E+05,      /* J = 34 */
(PID.TID 0000.0001)                 2.356603395120766E+05,      /* J = 35 */
(PID.TID 0000.0001)                 2.087786486446736E+05,      /* J = 36 */
(PID.TID 0000.0001)                 1.808798091874300E+05,      /* J = 37 */
(PID.TID 0000.0001)                 1.520997414818001E+05,      /* J = 38 */
(PID.TID 0000.0001)                 1.225786591246834E+05,      /* J = 39 */
(PID.TID 0000.0001)                 9.246038586187513E+04       /* J = 40 */
(PID.TID 0000.0001)     ;
(PID.TID 0000.0001) dyC =  /* dyC(:,1,:,1) ( m - cartesian, degrees - spherical ) */
(PID.TID 0000.0001)    90 @  4.447098934081552E+05              /* I =  1: 90 */
(PID.TID 0000.0001)     ;
(PID.TID 0000.0001) dyC =  /* dyC(1,:,1,:) ( m - cartesian, degrees - spherical ) */
(PID.TID 0000.0001)    40 @  4.447098934081552E+05              /* J =  1: 40 */
(PID.TID 0000.0001)     ;
(PID.TID 0000.0001) dxV =  /* dxV(:,1,:,1) ( m - cartesian, degrees - spherical ) */
(PID.TID 0000.0001)    90 @  7.722306258078101E+04              /* I =  1: 90 */
(PID.TID 0000.0001)     ;
(PID.TID 0000.0001) dxV =  /* dxV(1,:,1,:) ( m - cartesian, degrees - spherical ) */
(PID.TID 0000.0001)                 7.722306258078101E+04,      /* J =  1 */
(PID.TID 0000.0001)                 1.075850604052271E+05,      /* J =  2 */
(PID.TID 0000.0001)                 1.374229146297914E+05,      /* J =  3 */
(PID.TID 0000.0001)                 1.665912582279823E+05,      /* J =  4 */
(PID.TID 0000.0001)                 1.949479859617814E+05,      /* J =  5 */
(PID.TID 0000.0001)                 2.223549467040776E+05,      /* J =  6 */
(PID.TID 0000.0001)                 2.486786164970726E+05,      /* J =  7 */
(PID.TID 0000.0001)                 2.737907490675810E+05,      /* J =  8 */
(PID.TID 0000.0001)                 2.975690006299820E+05,      /* J =  9 */
(PID.TID 0000.0001)                 3.198975259328452E+05,      /* J = 10 */
(PID.TID 0000.0001)                 3.406675426453503E+05,      /* J = 11 */
(PID.TID 0000.0001)                 3.597778613338689E+05,      /* J = 12 */
(PID.TID 0000.0001)                 3.771353784467131E+05,      /* J = 13 */
(PID.TID 0000.0001)                 3.926555299052806E+05,      /* J = 14 */
(PID.TID 0000.0001)                 4.062627030917454E+05,      /* J = 15 */
(PID.TID 0000.0001)                 4.178906052261313E+05,      /* J = 16 */
(PID.TID 0000.0001)                 4.274825863380723E+05,      /* J = 17 */
(PID.TID 0000.0001)                 4.349919152597734E+05,      /* J = 18 */
(PID.TID 0000.0001)                 4.403820072955634E+05,      /* J = 19 */
(PID.TID 0000.0001)                 4.436266024588540E+05,      /* J = 20 */
(PID.TID 0000.0001)                 4.447098934081552E+05,      /* J = 21 */
(PID.TID 0000.0001)                 4.436266024588540E+05,      /* J = 22 */
(PID.TID 0000.0001)                 4.403820072955634E+05,      /* J = 23 */
(PID.TID 0000.0001)                 4.349919152597734E+05,      /* J = 24 */
(PID.TID 0000.0001)                 4.274825863380723E+05,      /* J = 25 */
(PID.TID 0000.0001)                 4.178906052261313E+05,      /* J = 26 */
(PID.TID 0000.0001)                 4.062627030917454E+05,      /* J = 27 */
(PID.TID 0000.0001)                 3.926555299052806E+05,      /* J = 28 */
(PID.TID 0000.0001)                 3.771353784467131E+05,      /* J = 29 */
(PID.TID 0000.0001)                 3.597778613338689E+05,      /* J = 30 */
(PID.TID 0000.0001)                 3.406675426453503E+05,      /* J = 31 */
(PID.TID 0000.0001)                 3.198975259328452E+05,      /* J = 32 */
(PID.TID 0000.0001)                 2.975690006299820E+05,      /* J = 33 */
(PID.TID 0000.0001)                 2.737907490675810E+05,      /* J = 34 */
(PID.TID 0000.0001)                 2.486786164970726E+05,      /* J = 35 */
(PID.TID 0000.0001)                 2.223549467040776E+05,      /* J = 36 */
(PID.TID 0000.0001)                 1.949479859617814E+05,      /* J = 37 */
(PID.TID 0000.0001)                 1.665912582279823E+05,      /* J = 38 */
(PID.TID 0000.0001)                 1.374229146297914E+05,      /* J = 39 */
(PID.TID 0000.0001)                 1.075850604052271E+05       /* J = 40 */
(PID.TID 0000.0001)     ;
(PID.TID 0000.0001) dyU =  /* dyU(:,1,:,1) ( m - cartesian, degrees - spherical ) */
(PID.TID 0000.0001)    90 @  4.447098934081552E+05              /* I =  1: 90 */
(PID.TID 0000.0001)     ;
(PID.TID 0000.0001) dyU =  /* dyU(1,:,1,:) ( m - cartesian, degrees - spherical ) */
(PID.TID 0000.0001)    40 @  4.447098934081552E+05              /* J =  1: 40 */
(PID.TID 0000.0001)     ;
(PID.TID 0000.0001) rA =  /* rA(:,1,:,1) ( m - cartesian, degrees - spherical ) */
(PID.TID 0000.0001)    90 @  4.110969866729052E+10              /* I =  1: 90 */
(PID.TID 0000.0001)     ;
(PID.TID 0000.0001) rA =  /* rA(1,:,1,:) ( m - cartesian, degrees - spherical ) */
(PID.TID 0000.0001)                 4.110969866729052E+10,      /* J =  1 */
(PID.TID 0000.0001)                 5.450087291636662E+10,      /* J =  2 */
(PID.TID 0000.0001)                 6.762652439100241E+10,      /* J =  3 */
(PID.TID 0000.0001)                 8.042270623660014E+10,      /* J =  4 */
(PID.TID 0000.0001)                 9.282707674147511E+10,      /* J =  5 */
(PID.TID 0000.0001)                 1.047792030594104E+11,      /* J =  6 */
(PID.TID 0000.0001)                 1.162208556324094E+11,      /* J =  7 */
(PID.TID 0000.0001)                 1.270962918792466E+11,      /* J =  8 */
(PID.TID 0000.0001)                 1.373525277677230E+11,      /* J =  9 */
(PID.TID 0000.0001)                 1.469395959475424E+11,      /* J = 10 */
(PID.TID 0000.0001)                 1.558107891862222E+11,      /* J = 11 */
(PID.TID 0000.0001)                 1.639228879220324E+11,      /* J = 12 */
(PID.TID 0000.0001)                 1.712363708253575E+11,      /* J = 13 */
(PID.TID 0000.0001)                 1.777156073426414E+11,      /* J = 14 */
(PID.TID 0000.0001)                 1.833290312848624E+11,      /* J = 15 */
(PID.TID 0000.0001)                 1.880492946148330E+11,      /* J = 16 */
(PID.TID 0000.0001)                 1.918534006840893E+11,      /* J = 17 */
(PID.TID 0000.0001)                 1.947228162702492E+11,      /* J = 18 */
(PID.TID 0000.0001)                 1.966435618690094E+11,      /* J = 19 */
(PID.TID 0000.0001)     2 @  1.976062798008856E+11,             /* J = 20: 21 */
(PID.TID 0000.0001)                 1.966435618690094E+11,      /* J = 22 */
(PID.TID 0000.0001)                 1.947228162702492E+11,      /* J = 23 */
(PID.TID 0000.0001)                 1.918534006840893E+11,      /* J = 24 */
(PID.TID 0000.0001)                 1.880492946148330E+11,      /* J = 25 */
(PID.TID 0000.0001)                 1.833290312848624E+11,      /* J = 26 */
(PID.TID 0000.0001)                 1.777156073426414E+11,      /* J = 27 */
(PID.TID 0000.0001)                 1.712363708253575E+11,      /* J = 28 */
(PID.TID 0000.0001)                 1.639228879220324E+11,      /* J = 29 */
(PID.TID 0000.0001)                 1.558107891862222E+11,      /* J = 30 */
(PID.TID 0000.0001)                 1.469395959475424E+11,      /* J = 31 */
(PID.TID 0000.0001)                 1.373525277677230E+11,      /* J = 32 */
(PID.TID 0000.0001)                 1.270962918792466E+11,      /* J = 33 */
(PID.TID 0000.0001)                 1.162208556324094E+11,      /* J = 34 */
(PID.TID 0000.0001)                 1.047792030594104E+11,      /* J = 35 */
(PID.TID 0000.0001)                 9.282707674147511E+10,      /* J = 36 */
(PID.TID 0000.0001)                 8.042270623660014E+10,      /* J = 37 */
(PID.TID 0000.0001)                 6.762652439100241E+10,      /* J = 38 */
(PID.TID 0000.0001)                 5.450087291636662E+10,      /* J = 39 */
(PID.TID 0000.0001)                 4.110969866729052E+10       /* J = 40 */
(PID.TID 0000.0001)     ;
(PID.TID 0000.0001) rAw =  /* rAw(:,1,:,1) ( m - cartesian, degrees - spherical ) */
(PID.TID 0000.0001)    90 @  4.110969866729052E+10              /* I =  1: 90 */
(PID.TID 0000.0001)     ;
(PID.TID 0000.0001) rAw =  /* rAw(1,:,1,:) ( m - cartesian, degrees - spherical ) */
(PID.TID 0000.0001)                 4.110969866729052E+10,      /* J =  1 */
(PID.TID 0000.0001)                 5.450087291636662E+10,      /* J =  2 */
(PID.TID 0000.0001)                 6.762652439100241E+10,      /* J =  3 */
(PID.TID 0000.0001)                 8.042270623660014E+10,      /* J =  4 */
(PID.TID 0000.0001)                 9.282707674147511E+10,      /* J =  5 */
(PID.TID 0000.0001)                 1.047792030594104E+11,      /* J =  6 */
(PID.TID 0000.0001)                 1.162208556324094E+11,      /* J =  7 */
(PID.TID 0000.0001)                 1.270962918792466E+11,      /* J =  8 */
(PID.TID 0000.0001)                 1.373525277677230E+11,      /* J =  9 */
(PID.TID 0000.0001)                 1.469395959475424E+11,      /* J = 10 */
(PID.TID 0000.0001)                 1.558107891862222E+11,      /* J = 11 */
(PID.TID 0000.0001)                 1.639228879220324E+11,      /* J = 12 */
(PID.TID 0000.0001)                 1.712363708253575E+11,      /* J = 13 */
(PID.TID 0000.0001)                 1.777156073426414E+11,      /* J = 14 */
(PID.TID 0000.0001)                 1.833290312848624E+11,      /* J = 15 */
(PID.TID 0000.0001)                 1.880492946148330E+11,      /* J = 16 */
(PID.TID 0000.0001)                 1.918534006840893E+11,      /* J = 17 */
(PID.TID 0000.0001)                 1.947228162702492E+11,      /* J = 18 */
(PID.TID 0000.0001)                 1.966435618690094E+11,      /* J = 19 */
(PID.TID 0000.0001)     2 @  1.976062798008856E+11,             /* J = 20: 21 */
(PID.TID 0000.0001)                 1.966435618690094E+11,      /* J = 22 */
(PID.TID 0000.0001)                 1.947228162702492E+11,      /* J = 23 */
(PID.TID 0000.0001)                 1.918534006840893E+11,      /* J = 24 */
(PID.TID 0000.0001)                 1.880492946148330E+11,      /* J = 25 */
(PID.TID 0000.0001)                 1.833290312848624E+11,      /* J = 26 */
(PID.TID 0000.0001)                 1.777156073426414E+11,      /* J = 27 */
(PID.TID 0000.0001)                 1.712363708253575E+11,      /* J = 28 */
(PID.TID 0000.0001)                 1.639228879220324E+11,      /* J = 29 */
(PID.TID 0000.0001)                 1.558107891862222E+11,      /* J = 30 */
(PID.TID 0000.0001)                 1.469395959475424E+11,      /* J = 31 */
(PID.TID 0000.0001)                 1.373525277677230E+11,      /* J = 32 */
(PID.TID 0000.0001)                 1.270962918792466E+11,      /* J = 33 */
(PID.TID 0000.0001)                 1.162208556324094E+11,      /* J = 34 */
(PID.TID 0000.0001)                 1.047792030594104E+11,      /* J = 35 */
(PID.TID 0000.0001)                 9.282707674147511E+10,      /* J = 36 */
(PID.TID 0000.0001)                 8.042270623660014E+10,      /* J = 37 */
(PID.TID 0000.0001)                 6.762652439100241E+10,      /* J = 38 */
(PID.TID 0000.0001)                 5.450087291636662E+10,      /* J = 39 */
(PID.TID 0000.0001)                 4.110969866729052E+10       /* J = 40 */
(PID.TID 0000.0001)     ;
(PID.TID 0000.0001) rAs =  /* rAs(:,1,:,1) ( m - cartesian, degrees - spherical ) */
(PID.TID 0000.0001)    90 @  3.433488626798226E+10              /* I =  1: 90 */
(PID.TID 0000.0001)     ;
(PID.TID 0000.0001) rAs =  /* rAs(1,:,1,:) ( m - cartesian, degrees - spherical ) */
(PID.TID 0000.0001)                 3.433488626798226E+10,      /* J =  1 */
(PID.TID 0000.0001)                 4.783442523123644E+10,      /* J =  2 */
(PID.TID 0000.0001)                 6.110091968306396E+10,      /* J =  3 */
(PID.TID 0000.0001)                 7.406973659603816E+10,      /* J =  4 */
(PID.TID 0000.0001)                 8.667769319778082E+10,      /* J =  5 */
(PID.TID 0000.0001)                 9.886336479107460E+10,      /* J =  6 */
(PID.TID 0000.0001)                 1.105673840088176E+11,      /* J =  7 */
(PID.TID 0000.0001)                 1.217327300458637E+11,      /* J =  8 */
(PID.TID 0000.0001)                 1.323050064586577E+11,      /* J =  9 */
(PID.TID 0000.0001)                 1.422327061792379E+11,      /* J = 10 */
(PID.TID 0000.0001)                 1.514674624524945E+11,      /* J = 11 */
(PID.TID 0000.0001)                 1.599642844741386E+11,      /* J = 12 */
(PID.TID 0000.0001)                 1.676817765813786E+11,      /* J = 13 */
(PID.TID 0000.0001)                 1.745823399284268E+11,      /* J = 14 */
(PID.TID 0000.0001)                 1.806323556642997E+11,      /* J = 15 */
(PID.TID 0000.0001)                 1.858023487204767E+11,      /* J = 16 */
(PID.TID 0000.0001)                 1.900671314104744E+11,      /* J = 17 */
(PID.TID 0000.0001)                 1.934059261417216E+11,      /* J = 18 */
(PID.TID 0000.0001)                 1.958024666419019E+11,      /* J = 19 */
(PID.TID 0000.0001)                 1.972450772065981E+11,      /* J = 20 */
(PID.TID 0000.0001)                 1.977267295821496E+11,      /* J = 21 */
(PID.TID 0000.0001)                 1.972450772065981E+11,      /* J = 22 */
(PID.TID 0000.0001)                 1.958024666419019E+11,      /* J = 23 */
(PID.TID 0000.0001)                 1.934059261417216E+11,      /* J = 24 */
(PID.TID 0000.0001)                 1.900671314104744E+11,      /* J = 25 */
(PID.TID 0000.0001)                 1.858023487204767E+11,      /* J = 26 */
(PID.TID 0000.0001)                 1.806323556642997E+11,      /* J = 27 */
(PID.TID 0000.0001)                 1.745823399284268E+11,      /* J = 28 */
(PID.TID 0000.0001)                 1.676817765813786E+11,      /* J = 29 */
(PID.TID 0000.0001)                 1.599642844741386E+11,      /* J = 30 */
(PID.TID 0000.0001)                 1.514674624524945E+11,      /* J = 31 */
(PID.TID 0000.0001)                 1.422327061792379E+11,      /* J = 32 */
(PID.TID 0000.0001)                 1.323050064586577E+11,      /* J = 33 */
(PID.TID 0000.0001)                 1.217327300458637E+11,      /* J = 34 */
(PID.TID 0000.0001)                 1.105673840088176E+11,      /* J = 35 */
(PID.TID 0000.0001)                 9.886336479107460E+10,      /* J = 36 */
(PID.TID 0000.0001)                 8.667769319778082E+10,      /* J = 37 */
(PID.TID 0000.0001)                 7.406973659603816E+10,      /* J = 38 */
(PID.TID 0000.0001)                 6.110091968306396E+10,      /* J = 39 */
(PID.TID 0000.0001)                 4.783442523123644E+10       /* J = 40 */
(PID.TID 0000.0001)     ;
(PID.TID 0000.0001) 
(PID.TID 0000.0001)  MDSREADFIELD: opening global file: Lev_clim_theta.bin
(PID.TID 0000.0001) // =======================================================
(PID.TID 0000.0001) // Field Initial Temperature at iteration          1
(PID.TID 0000.0001) // CMIN =         -1.668560028076172E+00
(PID.TID 0000.0001) // CMAX =          2.932958030700684E+01
(PID.TID 0000.0001) // CINT =          1.148079271669741E+00
(PID.TID 0000.0001) // SYMBOLS (CMIN->CMAX): -abcdefghijklmnopqrstuvwxyz+
(PID.TID 0000.0001) //                  0.0: .
(PID.TID 0000.0001) // RANGE I (Lo:Hi:Step):(   1:  90:   1)
(PID.TID 0000.0001) // RANGE J (Lo:Hi:Step):(  40:   1:  -1)
(PID.TID 0000.0001) // RANGE K (Lo:Hi:Step):(   1:   1:   1)
(PID.TID 0000.0001) // =======================================================
(PID.TID 0000.0001) K =   1
(PID.TID 0000.0001)                I=10      I=20      I=30      I=40      I=50      I=60      I=70      I=80      I=90
(PID.TID 0000.0001) |--J--|123456789|123456789|123456789|123456789|123456789|123456789|123456789|123456789|123456789|
(PID.TID 0000.0001)     40 ..........................................................................................
(PID.TID 0000.0001)     39 efffgf...................................................................bbb.........bbccd
(PID.TID 0000.0001)     38 hhhh......................................................................bc........dddefg
(PID.TID 0000.0001)     37 ij........................................................................ccc...ffgg..hhii
(PID.TID 0000.0001)     36 i..........................................efeed..........................deee.fhhijjkkjji
(PID.TID 0000.0001)     35 jj.................................dddd.ffffffffff.ghhiii..................defgghijkllll..
(PID.TID 0000.0001)     34 ....................................deeefffgggggghhhhiijjj..................dfhijklmmmml..
(PID.TID 0000.0001)     33 ....................................eeeffgggghhhhiiiiijjkkk...............ee.egkmmnnnnnmm.
(PID.TID 0000.0001)     32 ....................................hhhiiiijjjjjkkkkklllmml...............iiihkopppoooon..
(PID.TID 0000.0001)     31 ....................................mnnnnnnnnnnnnnnnnnooonm.............oprrrqrsrrrqqqp...
(PID.TID 0000.0001)     30 ...................................rrrrrqqqqqqqpppppqqqqpon............suuuuutttsssrrrrq..
(PID.TID 0000.0001)     29 ...............................ruuuuttttttttsssssssssssrrqpoo.........vvuuuuuutttttsssrr..
(PID.TID 0000.0001)     28 ..............................uvvvvvvvvvvvvvvvvuuuuuuutssrrqq......wv.wwvvvvvvvuuutttss...
(PID.TID 0000.0001)     27 ...............................xxxxwxxxxwxwwwwwwwwwvvuutttsssst...wxxxxxxxxxxwwwvvvuus....
(PID.TID 0000.0001)     26 ...............xyy....y.....xxyyyyyyyyyyyyyxxxxxxxxwwvvvvuuuuvvw..w.yyyyyyyxxxxwwvvuts....
(PID.TID 0000.0001)     25 .............xxyyz..yzzy...xyy.zzzzzzzzzzyyyyyyyxxxxwwwwwwwwxxxyy....zzyyyyyyxxxwwwvut....
(PID.TID 0000.0001)     24 ............xxyzzzz.zzzz...yyz.zzzzzzzzzzzzyyyyyyyxxxxxxxxxxxyyyyxww.yyy.yyyyyxxxwwwvu....
(PID.TID 0000.0001)     23 .............xyzzzzzzzzz.zyyzzzzzz++++zzzzzzzzzzzyyyyyyyyyyyyyyyxxwvw......yyyyyyxxxxww...
(PID.TID 0000.0001)     22 xx..........yyzz+zzzzzzz..zz..zzz++++++++++zzzzzzzzzzyyyyyxxxxxxxxxwww.......yyyyyyyyyyxww
(PID.TID 0000.0001)     21 ww.........yyyzzzzzzzz+++.....zzzz++++++++zzzzzzyyyyyyxxxwwwvvvvuuutut........yyyyyxxxxwww
(PID.TID 0000.0001)     20 vvu.......yyyyyyzzzzzzzzz.......y...++++++++++zzzzzzzyyyyxxxwwwvvuuut............yyyxxxwvv
(PID.TID 0000.0001)     19 vut.......yxyxxyyyyyyyzzzzz.zzzzzy...zz++++++++++++zzzzyyyyyxxxwwvvvus...........yyyxxxwww
(PID.TID 0000.0001)     18 uut.......yyyyxyyyyyyyyyyyyyzzzz....yyyzzzzzz++z++zzzzzzyyyxxxwwvvuutsr..........yyxxxwvvv
(PID.TID 0000.0001)     17 tts.......y..xxxxxxxxxxxxxxxyyy......xyyyyyyyyzzzzzzzzyyyyxxxwwvvuuutsr..........xxxwwvuut
(PID.TID 0000.0001)     16 tsq......xx.xxwwwwwwwvvvvwwww........wwwxxxxxxxxxxxxxxxxxxxxxwvvvuuttssr........xxxxwvvuut
(PID.TID 0000.0001)     15 srq......ww.wwwvvvvvuuuuuuuv..........vvvvvvvvvvvvvvvvvwwwwwwvvvuuttsrrq.......vwwwwvvuutt
(PID.TID 0000.0001)     14 ssrp....vvvvvvuuuuuttstttstt...........uuuttutttttttuuuuuuuuuvuuuttssrqp......uvvvuuuuuuts
(PID.TID 0000.0001)     13 rrrq...ttsssssrrrrrrqrqqqqqr..........uttsssssrrrrsrrsssssssssrrrrrrrqpo.....tttttsttttssr
(PID.TID 0000.0001)     12 ppqqrssssrrqqqqpppooooooopppq.qppp....ssrqqqqqpppppppppppppoooopooppppon....orrrrrqqqqqqqp
(PID.TID 0000.0001)     11 mlmopqpppppoooononnmmmlmmmmmnnnnnnnoopppppp.pooonnnnnnnnnmmmmmmmmmmnnnn....lmpoooooonnnnmm
(PID.TID 0000.0001)     10 iiijkkkkkjjiijkkkkkkkkjjjjjjkkkkllllmnnnnn.lmmmnmmlllllmllllllkkkjkllll...kjlmlkkkkkjjjjii
(PID.TID 0000.0001)      9 ffffffffffffefffeefgggggfggghhiiiiijjkllllkkkkkkkkkkkkjjjjjjiiiiiiijjjk...ihiiihggggfffeee
(PID.TID 0000.0001)      8 ccccccddddddddeedddddddedeeeefffgfggghhhiiiiiiiihhhhhhhhhgggggghggggghi..hhhgffedddddddccc
(PID.TID 0000.0001)      7 aaabbbccccccccccccccbccccccccddddddddeeffghhgggggfeedddeeffffffffggfggggggffeddccbbbbbbbbb
(PID.TID 0000.0001)      6 aaaabbbbbbbbbbbbbbbbbbbbbbbbbcccccccccccdeeeeeeedcbbbbbccccdddddeeeeeeeeddcccbbbaaaaaaaaaa
(PID.TID 0000.0001)      5 aaabbbbbbbbaaaaabbbaaaaaa.aaabbbbbbbbbbbbbbbbbbbbbaaaaaaaabbbbcccccccbbbbb.aaaaaaaaaaaaaaa
(PID.TID 0000.0001)      4 aaaaaaaa.a..............................aaaaaaaaaaaaaaaaaaaaaaaaaaaaaaaa...aa--aaaaaaaaaaa
(PID.TID 0000.0001)      3 ...........................................aaaaaa------------aaaa..........------aaaaa....
(PID.TID 0000.0001)      2 ...........................................aaaaaa--...........................----........
(PID.TID 0000.0001)      1 ..........................................................................................
(PID.TID 0000.0001) // =======================================================
(PID.TID 0000.0001) // END OF FIELD                                          =
(PID.TID 0000.0001) // =======================================================
(PID.TID 0000.0001) 
(PID.TID 0000.0001)  MDSREADFIELD: opening global file: Lev_clim_salt.bin
(PID.TID 0000.0001) // =======================================================
(PID.TID 0000.0001) // Field Initial Salinity at iteration          1
(PID.TID 0000.0001) // CMIN =          3.102835273742676E+01
(PID.TID 0000.0001) // CMAX =          3.743946075439453E+01
(PID.TID 0000.0001) // CINT =          2.374484450728805E-01
(PID.TID 0000.0001) // SYMBOLS (CMIN->CMAX): -abcdefghijklmnopqrstuvwxyz+
(PID.TID 0000.0001) //                  0.0: .
(PID.TID 0000.0001) // RANGE I (Lo:Hi:Step):(   1:  90:   1)
(PID.TID 0000.0001) // RANGE J (Lo:Hi:Step):(  40:   1:  -1)
(PID.TID 0000.0001) // RANGE K (Lo:Hi:Step):(   1:   1:   1)
(PID.TID 0000.0001) // =======================================================
(PID.TID 0000.0001) K =   1
(PID.TID 0000.0001)                I=10      I=20      I=30      I=40      I=50      I=60      I=70      I=80      I=90
(PID.TID 0000.0001) |--J--|123456789|123456789|123456789|123456789|123456789|123456789|123456789|123456789|123456789|
(PID.TID 0000.0001)     40 ..........................................................................................
(PID.TID 0000.0001)     39 qqqqpp...................................................................ghi.........kmnpp
(PID.TID 0000.0001)     38 rqpn......................................................................gh........mnoppq
(PID.TID 0000.0001)     37 qo........................................................................hjj...noqq..pqqq
(PID.TID 0000.0001)     36 p..........................................hhgeb..........................jmom.npqqrrrrrrq
(PID.TID 0000.0001)     35 po.................................gghh.ghiiiihfdb.egggec..................gloppppqqrrrr..
(PID.TID 0000.0001)     34 ....................................fghghhhhhhhhgfgggggfed..................flopppqrrsrr..
(PID.TID 0000.0001)     33 ....................................gghhhhhhhhgghhgggggggfe...............-b.glprsrrssssr.
(PID.TID 0000.0001)     32 ....................................hhijjjjjkjjjjiihhhhhggf...............cghiosttttssts..
(PID.TID 0000.0001)     31 ....................................llmmmmmmmmmmmllkjkjihgh.............mpsttsuvuuuuuut...
(PID.TID 0000.0001)     30 ...................................nooooooooonnnnnmmmmlkjih............qvwwwwwvvvvvvvvvv..
(PID.TID 0000.0001)     29 ...............................knooooooopppppppppppppppomkjjj.........vwwwwwwwwxxxxxxwww..
(PID.TID 0000.0001)     28 ..............................lnopoppppqqqqqqrrrrrrrrrrqpnlkk......tu.vwwxxxyyyzzzzyyxw...
(PID.TID 0000.0001)     27 ...............................pppppqqqqqrrrrrrrrrqqqqqqponmmmp...wwvuwwwwxxyz++++zzyx....
(PID.TID 0000.0001)     26 ...............vwu....h.....mmnooppppqqqqqrqqqqqqpppoppoooonnnoo..v.uuvvvuuuwyzzyyyxwu....
(PID.TID 0000.0001)     25 .............uuvwv..gihf...llk.nnooopppppppppppoooonnoonnnnnmmmmm....uttsssstwwwwwwvut....
(PID.TID 0000.0001)     24 ............utuvvuq.kkig...kjk.nnnnnoooooooooooonnnnnnnmmmmmlllllmmm.vuu.vsrrtuvuuuuts....
(PID.TID 0000.0001)     23 .............stttspommki.eijjkmnmmmnnnnnnnnnnnnoonnnnnnnnmmmmmllklmml......srstttuttssp...
(PID.TID 0000.0001)     22 qm..........ssrrrrqponml..jj..mnnnnoonnonopopppqqppppppppooonnnmlllkjj.......outtttssrrqrr
(PID.TID 0000.0001)     21 qp.........rrrrrqqqpppnml.....mmnoooooppppqqrrrrrrrqqqqqqppppppppooonm........tuuuuutttsrr
(PID.TID 0000.0001)     20 ssq.......rrrrqqqqppponmm.......n...noppppqqrssssssrssrrrrqqqqqqppppp............uuuutttts
(PID.TID 0000.0001)     19 usr.......qqrqppppooonnmmml.kklmmm...nppoppppqrrssssssssssrrrrrrqqrqqq...........wvvuuuuuu
(PID.TID 0000.0001)     18 vut.......qqqppoooonnnnnnnnnnnno....qqpppppppqrrsttttttuutttttttssssrrq..........xxxxxwwww
(PID.TID 0000.0001)     17 uut.......q..qpppoooooooooooooo......rqqpqqqqrsrsttuuuvvvvvvvvvuuttssrq..........yzzyyxwwv
(PID.TID 0000.0001)     16 tts......qq.qqqppqpqpppqqqqqq........rrrrrrrqrsssstttuuvvvwwwwvvvutsrrqq........yyzzyxxwvu
(PID.TID 0000.0001)     15 tsr......rr.qqrrrrssrssssssr..........sssssssssssssssssstuvwvvuuvtsrqppp.......wxxxxxxwwvu
(PID.TID 0000.0001)     14 ttsr....rrrrrrssstttttttttts...........sttttsssssssssrrrssttttttssrqpoon......vwwuuvvvvuuu
(PID.TID 0000.0001)     13 tsss...rssssssssstttsttttttt..........sssssttssssrrssrrqqqqrrqqppppooonm.....svuuttttstttt
(PID.TID 0000.0001)     12 rrrsrrrssssssrrssrrrrrrqrssss.srrs....ssssssssrrqqqqqqpqpoooonnnnnnnnmml....ksutsssrrrrrqr
(PID.TID 0000.0001)     11 oooqrrrrrqqqppprrrqqpppppqqqqqpppqqrrsrrrrr.rrrqppponnnnnmmmmmmmllmmlml....korqppqrqqpppoo
(PID.TID 0000.0001)     10 mmmnnooonmllkklnnnoonnonooooooopooppqqqppp.ooppppoonnnnnnmmmmmmmllmlllk...kmoponoonnnnnnnn
(PID.TID 0000.0001)      9 lllllllllllkkklkkklllmmmmmmmnnnnnnnooooooonnnnoooooooonnnnnnnnmmmmmmmmk...kmnnnnmmmlllllll
(PID.TID 0000.0001)      8 lllmmmmlllllllllllllllllllllllllllmmmmmmnnnnnnnnnnnnnnnnnnnnnnmnnmmmmml..ikmmmllllllllllll
(PID.TID 0000.0001)      7 mmmmmmmllllllllllllllllllllllllllllllllllmmmmmmmmlllmmmmmmmmmmmmmmmmmmmlkllmmlllllllllllll
(PID.TID 0000.0001)      6 mmmlllllllllllllllllllllllllllllllllllllllllllllllmmmmmmmmmmmmmmmmmmmmmmmlllmmmmmllllllmmm
(PID.TID 0000.0001)      5 nnmmmllllllllllllllllllll.lllmmllllllllmmmmmmmmmmmmmmlllllllllllllllllllll.mmmmmmmmmmmmmmn
(PID.TID 0000.0001)      4 nmmmllll.l..............................mmmmmmlmmmllkkkkkkkkkkkkkkkkkkkk...mnnnnnnnnnnmmnn
(PID.TID 0000.0001)      3 ...........................................nmmmlllllkkkkklmmmmllk..........nnnnnmmmmmm....
(PID.TID 0000.0001)      2 ...........................................nnnmmmmm...........................nnnm........
(PID.TID 0000.0001)      1 ..........................................................................................
(PID.TID 0000.0001) // =======================================================
(PID.TID 0000.0001) // END OF FIELD                                          =
(PID.TID 0000.0001) // =======================================================
(PID.TID 0000.0001) 
(PID.TID 0000.0001) Start initial hydrostatic pressure computation
(PID.TID 0000.0001) Pressure is predetermined for buoyancyRelation OCEANIC
(PID.TID 0000.0001) 
(PID.TID 0000.0001)  MDSREADFIELD: opening global file: Taux.bin
(PID.TID 0000.0001)  MDSREADFIELD: opening global file: Tauy.bin
(PID.TID 0000.0001)  MDSREADFIELD: opening global file: SST.bin
(PID.TID 0000.0001)  MDSREADFIELD: opening global file: SSS.bin
(PID.TID 0000.0001)  MDSREADFIELD: opening global file: SSS.bin
(PID.TID 0000.0001)  MDSREADFIELD: opening global file: SST.bin
(PID.TID 0000.0001)  MDSREADFIELD: opening global file: Runoff.bin
(PID.TID 0000.0001)  MDSREADFIELD: opening global file: Taux.bin
(PID.TID 0000.0001)  MDSREADFIELD: opening global file: Tauy.bin
(PID.TID 0000.0001) // =======================================================
(PID.TID 0000.0001) // Field Theta Climatology at iteration          1
(PID.TID 0000.0001) // CMIN =         -1.668560028076172E+00
(PID.TID 0000.0001) // CMAX =          2.932958030700684E+01
(PID.TID 0000.0001) // CINT =          1.148079271669741E+00
(PID.TID 0000.0001) // SYMBOLS (CMIN->CMAX): -abcdefghijklmnopqrstuvwxyz+
(PID.TID 0000.0001) //                  0.0: .
(PID.TID 0000.0001) // RANGE I (Lo:Hi:Step):(  -1:  92:   1)
(PID.TID 0000.0001) // RANGE J (Lo:Hi:Step):(  42:  -1:  -1)
(PID.TID 0000.0001) // RANGE K (Lo:Hi:Step):(   1:   1:   1)
(PID.TID 0000.0001) // =======================================================
(PID.TID 0000.0001) K =   1
(PID.TID 0000.0001) //                I=8       I=18      I=28      I=38      I=44      I=54      I=64      I=74      I=84
(PID.TID 0000.0001) // |--J--|*01234567|901234567|901234567|901234567|901234567|567890123|567890123|567890123|567890123|56789012
(PID.TID 0000.0001) //     42 .............................................aaaaaaaaaa--...........................----..........
(PID.TID 0000.0001) //     41 ..................................................................................................
(PID.TID 0000.0001) //     40 ..................................................................................................
(PID.TID 0000.0001) //     39 cdefffgf.......................................................................bbb.........bbccdef
(PID.TID 0000.0001) //     38 fghhhh..........................................................................bc........dddefghh
(PID.TID 0000.0001) //     37 iiij............................................................................ccc...ffgg..hhiiij
(PID.TID 0000.0001) //     36 jii..........................................efeeefeed..........................deee.fhhijjkkjjii.
(PID.TID 0000.0001) //     35 ..jj.................................dddd.ffffffffffffff.ghhiii..................defgghijkllll..jj
(PID.TID 0000.0001) //     34 ......................................deeefffgggggggggghhhhiijjj..................dfhijklmmmml....
(PID.TID 0000.0001) //     33 m.....................................eeeffgggghhgghhhhiiiiijjkkk...............ee.egkmmnnnnnmm...
(PID.TID 0000.0001) //     32 ......................................hhhiiiijjjjjjjjjkkkkklllmml...............iiihkopppoooon....
(PID.TID 0000.0001) //     31 ......................................mnnnnnnnnnnnnnnnnnnnnnooonm.............oprrrqrsrrrqqqp.....
(PID.TID 0000.0001) //     30 .....................................rrrrrqqqqqqqqqqqpppppqqqqpon............suuuuutttsssrrrrq....
(PID.TID 0000.0001) //     29 .................................ruuuuttttttttssstsssssssssssrrqpoo.........vvuuuuuutttttsssrr....
(PID.TID 0000.0001) //     28 ................................uvvvvvvvvvvvvvvvvvvvvuuuuuuutssrrqq......wv.wwvvvvvvvuuutttss.....
(PID.TID 0000.0001) //     27 .................................xxxxwxxxxwxwwwwwwwwwwwwwvvuutttsssst...wxxxxxxxxxxwwwvvvuus......
(PID.TID 0000.0001) //     26 .................xyy....y.....xxyyyyyyyyyyyyyxxxxxxxxxxxxwwvvvvuuuuvvw..w.yyyyyyyxxxxwwvvuts......
(PID.TID 0000.0001) //     25 ...............xxyyz..yzzy...xyy.zzzzzzzzzzyyyyyyyyyyyxxxxwwwwwwwwxxxyy....zzyyyyyyxxxwwwvut......
(PID.TID 0000.0001) //     24 ..............xxyzzzz.zzzz...yyz.zzzzzzzzzzzzyyyyyyyyyyyxxxxxxxxxxxyyyyxww.yyy.yyyyyxxxwwwvu......
(PID.TID 0000.0001) //     23 ...............xyzzzzzzzzz.zyyzzzzzz++++zzzzzzzzzzzzzzzyyyyyyyyyyyyyyyxxwvw......yyyyyyxxxxww.....
(PID.TID 0000.0001) //     22 wwxx..........yyzz+zzzzzzz..zz..zzz++++++++++zzzzzzzzzzzzzzyyyyyxxxxxxxxxwww.......yyyyyyyyyyxwwxx
(PID.TID 0000.0001) //     21 wwww.........yyyzzzzzzzz+++.....zzzz++++++++zzzzzzzzzzyyyyyyxxxwwwvvvvuuutut........yyyyyxxxxwwwww
(PID.TID 0000.0001) //     20 vvvvu.......yyyyyyzzzzzzzzz.......y...++++++++++z+++zzzzzzzyyyyxxxwwwvvuuut............yyyxxxwvvvv
(PID.TID 0000.0001) //     19 wwvut.......yxyxxyyyyyyyzzzzz.zzzzzy...zz++++++++++++++++zzzzyyyyyxxxwwvvvus...........yyyxxxwwwvu
(PID.TID 0000.0001) //     18 vvuut.......yyyyxyyyyyyyyyyyyyzzzz....yyyzzzzzz++zz++z++zzzzzzyyyxxxwwvvuutsr..........yyxxxwvvvuu
(PID.TID 0000.0001) //     17 uttts.......y..xxxxxxxxxxxxxxxyyy......xyyyyyyyyzyyyzzzzzzzzyyyyxxxwwvvuuutsr..........xxxwwvuuttt
(PID.TID 0000.0001) //     16 uttsq......xx.xxwwwwwwwvvvvwwww........wwwxxxxxxxxxxxxxxxxxxxxxxxxxwvvvuuttssr........xxxxwvvuutts
(PID.TID 0000.0001) //     15 ttsrq......ww.wwwvvvvvuuuuuuuv..........vvvvvvvvvvvvvvvvvvvvvwwwwwwvvvuuttsrrq.......vwwwwvvuuttsr
(PID.TID 0000.0001) //     14 tsssrp....vvvvvvuuuuuttstttstt...........uuuttutttutttttttuuuuuuuuuvuuuttssrqp......uvvvuuuuuutsss
(PID.TID 0000.0001) //     13 srrrrq...ttsssssrrrrrrqrqqqqqr..........uttsssssrsssrrrrsrrsssssssssrrrrrrrqpo.....tttttsttttssrrr
(PID.TID 0000.0001) //     12 qpppqqrssssrrqqqqpppooooooopppq.qppp....ssrqqqqqpqqqpppppppppppppoooopooppppon....orrrrrqqqqqqqppp
(PID.TID 0000.0001) //     11 mmmlmopqpppppoooononnmmmlmmmmmnnnnnnnoopppppp.poo.pooonnnnnnnnnmmmmmmmmmmnnnn....lmpoooooonnnnmmml
(PID.TID 0000.0001) //     10 iiiiijkkkkkjjiijkkkkkkkkjjjjjjkkkkllllmnnnnn.lmmmlmmmnmmlllllmllllllkkkjkllll...kjlmlkkkkkjjjjiiii
(PID.TID 0000.0001) //      9 eeffffffffffffefffeefgggggfggghhiiiiijjkllllkkkkkkkkkkkkkkkkjjjjjjiiiiiiijjjk...ihiiihggggfffeeeff
(PID.TID 0000.0001) //      8 ccccccccddddddddeedddddddedeeeefffgfggghhhiiiiiiiiiiiihhhhhhhhhgggggghggggghi..hhhgffedddddddccccc
(PID.TID 0000.0001) //      7 bbaaabbbccccccccccccccbccccccccddddddddeeffghhggghgggggfeedddeeffffffffggfggggggffeddccbbbbbbbbbaa
(PID.TID 0000.0001) //      6 aaaaaabbbbbbbbbbbbbbbbbbbbbbbbbcccccccccccdeeeeeeeeeeedcbbbbbccccdddddeeeeeeeeddcccbbbaaaaaaaaaaaa
(PID.TID 0000.0001) //      5 aaaaabbbbbbbbaaaaabbbaaaaaa.aaabbbbbbbbbbbbbbbbbbbbbbbbbaaaaaaaabbbbcccccccbbbbb.aaaaaaaaaaaaaaaaa
(PID.TID 0000.0001) //      4 aaaaaaaaaa.a..............................aaaaaaaaaaaaaaaaaaaaaaaaaaaaaaaaaaaa...aa--aaaaaaaaaaaaa
(PID.TID 0000.0001) //      3 .............................................aaaaaaaaaa------------aaaa..........------aaaaa......
(PID.TID 0000.0001) //      2 .............................................aaaaaaaaaa--...........................----..........
(PID.TID 0000.0001) //      1 ..................................................................................................
(PID.TID 0000.0001) //      0 ..................................................................................................
(PID.TID 0000.0001) //     -1 cdefffgf.......................................................................bbb.........bbccdef
(PID.TID 0000.0001) // =======================================================
(PID.TID 0000.0001) // END OF FIELD                                          =
(PID.TID 0000.0001) // =======================================================
(PID.TID 0000.0001) 
(PID.TID 0000.0001) // =======================================================
(PID.TID 0000.0001) // Field Salt  Climatology at iteration          1
(PID.TID 0000.0001) // CMIN =          3.102835273742676E+01
(PID.TID 0000.0001) // CMAX =          3.743946075439453E+01
(PID.TID 0000.0001) // CINT =          2.374484450728805E-01
(PID.TID 0000.0001) // SYMBOLS (CMIN->CMAX): -abcdefghijklmnopqrstuvwxyz+
(PID.TID 0000.0001) //                  0.0: .
(PID.TID 0000.0001) // RANGE I (Lo:Hi:Step):(  -1:  92:   1)
(PID.TID 0000.0001) // RANGE J (Lo:Hi:Step):(  42:  -1:  -1)
(PID.TID 0000.0001) // RANGE K (Lo:Hi:Step):(   1:   1:   1)
(PID.TID 0000.0001) // =======================================================
(PID.TID 0000.0001) K =   1
(PID.TID 0000.0001) //                I=8       I=18      I=28      I=38      I=44      I=54      I=64      I=74      I=84
(PID.TID 0000.0001) // |--J--|*01234567|901234567|901234567|901234567|901234567|567890123|567890123|567890123|567890123|56789012
(PID.TID 0000.0001) //     42 .............................................nnnmnnnmmmmm...........................nnnm..........
(PID.TID 0000.0001) //     41 ..................................................................................................
(PID.TID 0000.0001) //     40 ..................................................................................................
(PID.TID 0000.0001) //     39 ppqqqqpp.......................................................................ghi.........kmnppqq
(PID.TID 0000.0001) //     38 pqrqpn..........................................................................gh........mnoppqrq
(PID.TID 0000.0001) //     37 qqqo............................................................................hjj...noqq..pqqqqo
(PID.TID 0000.0001) //     36 rqp..........................................hhgehhgeb..........................jmom.npqqrrrrrrqp.
(PID.TID 0000.0001) //     35 ..po.................................gghh.ghiiiihiiihfdb.egggec..................gloppppqqrrrr..po
(PID.TID 0000.0001) //     34 ......................................fghghhhhhhhhhhhhgfgggggfed..................flopppqrrsrr....
(PID.TID 0000.0001) //     33 r.....................................gghhhhhhhhghhhgghhgggggggfe...............-b.glprsrrssssr...
(PID.TID 0000.0001) //     32 ......................................hhijjjjjkjjjkjjjjiihhhhhggf...............cghiosttttssts....
(PID.TID 0000.0001) //     31 ......................................llmmmmmmmmmmmmmmmllkjkjihgh.............mpsttsuvuuuuuut.....
(PID.TID 0000.0001) //     30 .....................................nooooooooonnoonnnnnmmmmlkjih............qvwwwwwvvvvvvvvvv....
(PID.TID 0000.0001) //     29 .................................knooooooopppppppppppppppppppomkjjj.........vwwwwwwwwxxxxxxwww....
(PID.TID 0000.0001) //     28 ................................lnopoppppqqqqqqrrqqrrrrrrrrrrqpnlkk......tu.vwwxxxyyyzzzzyyxw.....
(PID.TID 0000.0001) //     27 .................................pppppqqqqqrrrrrrrrrrrrrqqqqqqponmmmp...wwvuwwwwxxyz++++zzyx......
(PID.TID 0000.0001) //     26 .................vwu....h.....mmnooppppqqqqqrqqqqqqqqqqpppoppoooonnnoo..v.uuvvvuuuwyzzyyyxwu......
(PID.TID 0000.0001) //     25 ...............uuvwv..gihf...llk.nnooopppppppppppppppoooonnoonnnnnmmmmm....uttsssstwwwwwwvut......
(PID.TID 0000.0001) //     24 ..............utuvvuq.kkig...kjk.nnnnnoooooooooooooooonnnnnnnmmmmmlllllmmm.vuu.vsrrtuvuuuuts......
(PID.TID 0000.0001) //     23 ...............stttspommki.eijjkmnmmmnnnnnnnnnnnnnnnnoonnnnnnnnmmmmmllklmml......srstttuttssp.....
(PID.TID 0000.0001) //     22 rrqm..........ssrrrrqponml..jj..mnnnnoonnonopopppopppqqppppppppooonnnmlllkjj.......outtttssrrqrrqm
(PID.TID 0000.0001) //     21 rrqp.........rrrrrqqqpppnml.....mmnoooooppppqqrrrqrrrrrrrqqqqqqppppppppooonm........tuuuuutttsrrqp
(PID.TID 0000.0001) //     20 tsssq.......rrrrqqqqppponmm.......n...noppppqqrssqrssssssrssrrrrqqqqqqppppp............uuuuttttsss
(PID.TID 0000.0001) //     19 uuusr.......qqrqppppooonnmmml.kklmmm...nppoppppqrppqrrssssssssssrrrrrrqqrqqq...........wvvuuuuuuus
(PID.TID 0000.0001) //     18 wwvut.......qqqppoooonnnnnnnnnnnno....qqpppppppqrppqrrsttttttuutttttttssssrrq..........xxxxxwwwwvu
(PID.TID 0000.0001) //     17 wvuut.......q..qpppoooooooooooooo......rqqpqqqqrsqqrsrsttuuuvvvvvvvvvuuttssrq..........yzzyyxwwvuu
(PID.TID 0000.0001) //     16 vutts......qq.qqqppqpqpppqqqqqq........rrrrrrrqrsrqrsssstttuuvvvwwwwvvvutsrrqq........yyzzyxxwvutt
(PID.TID 0000.0001) //     15 vutsr......rr.qqrrrrssrssssssr..........sssssssssssssssssssssstuvwvvuuvtsrqppp.......wxxxxxxwwvuts
(PID.TID 0000.0001) //     14 uuttsr....rrrrrrssstttttttttts...........sttttssstsssssssssrrrssttttttssrqpoon......vwwuuvvvvuuutt
(PID.TID 0000.0001) //     13 tttsss...rssssssssstttsttttttt..........sssssttssttssssrrssrrqqqqrrqqppppooonm.....svuuttttsttttts
(PID.TID 0000.0001) //     12 qrrrrsrrrssssssrrssrrrrrrqrssss.srrs....ssssssssrsssrrqqqqqqpqpoooonnnnnnnnmml....ksutsssrrrrrqrrr
(PID.TID 0000.0001) //     11 oooooqrrrrrqqqppprrrqqpppppqqqqqpppqqrrsrrrrr.rrr.rrrqppponnnnnmmmmmmmllmmlml....korqppqrqqpppoooo
(PID.TID 0000.0001) //     10 nnmmmnnooonmllkklnnnoonnonooooooopooppqqqppp.ooppooppppoonnnnnnmmmmmmmllmlllk...kmoponoonnnnnnnnmm
(PID.TID 0000.0001) //      9 lllllllllllllkkklkkklllmmmmmmmnnnnnnnooooooonnnnonnnoooooooonnnnnnnnmmmmmmmmk...kmnnnnmmmlllllllll
(PID.TID 0000.0001) //      8 lllllmmmmlllllllllllllllllllllllllllmmmmmmnnnnnnnnnnnnnnnnnnnnnnnnnnmnnmmmmml..ikmmmllllllllllllll
(PID.TID 0000.0001) //      7 llmmmmmmmllllllllllllllllllllllllllllllllllmmmmmmmmmmmmlllmmmmmmmmmmmmmmmmmmmlkllmmlllllllllllllmm
(PID.TID 0000.0001) //      6 mmmmmlllllllllllllllllllllllllllllllllllllllllllllllllllmmmmmmmmmmmmmmmmmmmmmmmlllmmmmmllllllmmmmm
(PID.TID 0000.0001) //      5 mnnnmmmllllllllllllllllllll.lllmmllllllllmmmmmmmmmmmmmmmmmmlllllllllllllllllllll.mmmmmmmmmmmmmmnnn
(PID.TID 0000.0001) //      4 nnnmmmllll.l..............................mmmmmmlmmmlmmmllkkkkkkkkkkkkkkkkkkkk...mnnnnnnnnnnmmnnnm
(PID.TID 0000.0001) //      3 .............................................nmmmnmmmlllllkkkkklmmmmllk..........nnnnnmmmmmm......
(PID.TID 0000.0001) //      2 .............................................nnnmnnnmmmmm...........................nnnm..........
(PID.TID 0000.0001) //      1 ..................................................................................................
(PID.TID 0000.0001) //      0 ..................................................................................................
(PID.TID 0000.0001) //     -1 ppqqqqpp.......................................................................ghi.........kmnppqq
(PID.TID 0000.0001) // =======================================================
(PID.TID 0000.0001) // END OF FIELD                                          =
(PID.TID 0000.0001) // =======================================================
(PID.TID 0000.0001) 
(PID.TID 0000.0001) // =======================================================
(PID.TID 0000.0001) // Field Runoff Climatology at iteration          1
(PID.TID 0000.0001) // CMIN =          1.421085439756465E-16
(PID.TID 0000.0001) // CMAX =          9.460258178710938E+02
(PID.TID 0000.0001) // CINT =          3.503799325448495E+01
(PID.TID 0000.0001) // SYMBOLS (CMIN->CMAX): -abcdefghijklmnopqrstuvwxyz+
(PID.TID 0000.0001) //                  0.0: .
(PID.TID 0000.0001) // RANGE I (Lo:Hi:Step):(  -1:  92:   1)
(PID.TID 0000.0001) // RANGE J (Lo:Hi:Step):(  42:  -1:  -1)
(PID.TID 0000.0001) // RANGE K (Lo:Hi:Step):(   1:   1:   1)
(PID.TID 0000.0001) // =======================================================
(PID.TID 0000.0001) K =   1
(PID.TID 0000.0001) //                I=8       I=18      I=28      I=38      I=44      I=54      I=64      I=74      I=84
(PID.TID 0000.0001) // |--J--|*01234567|901234567|901234567|901234567|901234567|567890123|567890123|567890123|567890123|56789012
(PID.TID 0000.0001) //     42 ..................................................................................................
(PID.TID 0000.0001) //     41 ..................................................................................................
(PID.TID 0000.0001) //     40 ..................................................................................................
(PID.TID 0000.0001) //     39 .......-..........................................................................................
(PID.TID 0000.0001) //     38 ..................................................................................................
(PID.TID 0000.0001) //     37 ..................................................................................................
(PID.TID 0000.0001) //     36 .............................................--....--a............................................
(PID.TID 0000.0001) //     35 .....................................a---.----......-abb.------..................--...............
(PID.TID 0000.0001) //     34 ......................................ba--..........------....--..................---.............
(PID.TID 0000.0001) //     33 ......................................ba--...........---......--b...............--.---............
(PID.TID 0000.0001) //     32 ......................................---.....................--c...............-aba--............
(PID.TID 0000.0001) //     31 ......................................-.......................--b.............--------............
(PID.TID 0000.0001) //     30 .....................................--.......................---...............-----.............
(PID.TID 0000.0001) //     29 .................................da---.........................----.........-.....................
(PID.TID 0000.0001) //     28 ................................gca---...................................cb.--....................
(PID.TID 0000.0001) //     27 .................................a---...............................-...aaa---....................
(PID.TID 0000.0001) //     26 ........................k.....cb----................................--..-.---.------..............
(PID.TID 0000.0001) //     25 ......................-adc...---.-....................................-.....------------..........
(PID.TID 0000.0001) //     24 ....................-.-abc...---.-.........................................-ab.bba--------........
(PID.TID 0000.0001) //     23 ....................-----a.bcb---.........................................-......gdba------.......
(PID.TID 0000.0001) //     22 ..--..................----..--..-.........................................--.......ngba-----......
(PID.TID 0000.0001) //     21 ..-a...................----.....-..........................................-........+ngb----...-..
(PID.TID 0000.0001) //     20 ..-bh...................-.-............................................................b----...-..
(PID.TID 0000.0001) //     19 ..-bg......................................................................-...........b----...-..
(PID.TID 0000.0001) //     18 ..--c......................................................................--..........a---....-..
(PID.TID 0000.0001) //     17 ..--a.......................................................................-..........---........
(PID.TID 0000.0001) //     16 ...--.......................................................................--........a-..........
(PID.TID 0000.0001) //     15 ....-........................................................................-.......--...........
(PID.TID 0000.0001) //     14 ....--.......................................................................-......--............
(PID.TID 0000.0001) //     13 .............................................................................-.....---............
(PID.TID 0000.0001) //     12 .............................................................................-....da--............
(PID.TID 0000.0001) //     11 .................................................................................cb---............
(PID.TID 0000.0001) //     10 ................................................................................-----.............
(PID.TID 0000.0001) //      9 ................................................................................----..............
(PID.TID 0000.0001) //      8 ..................................................................................................
(PID.TID 0000.0001) //      7 ..................................................................................................
(PID.TID 0000.0001) //      6 ..................................................................................................
(PID.TID 0000.0001) //      5 ..................................................................................................
(PID.TID 0000.0001) //      4 ..................................................................................................
(PID.TID 0000.0001) //      3 ..................................................................................................
(PID.TID 0000.0001) //      2 ..................................................................................................
(PID.TID 0000.0001) //      1 ..................................................................................................
(PID.TID 0000.0001) //      0 ..................................................................................................
(PID.TID 0000.0001) //     -1 ..................................................................................................
(PID.TID 0000.0001) // =======================================================
(PID.TID 0000.0001) // END OF FIELD                                          =
(PID.TID 0000.0001) // =======================================================
(PID.TID 0000.0001) 
(PID.TID 0000.0001) // =======================================================
(PID.TID 0000.0001) // Field WIND_STRESS_CLIMATOLOGY FU at iteration          1
(PID.TID 0000.0001) // CMIN =         -1.032922118902206E-01
(PID.TID 0000.0001) // CMAX =          1.600433439016342E-01
(PID.TID 0000.0001) // CINT =          9.753168733031661E-03
(PID.TID 0000.0001) // SYMBOLS (CMIN->CMAX): -abcdefghijklmnopqrstuvwxyz+
(PID.TID 0000.0001) //                  0.0: .
(PID.TID 0000.0001) // RANGE I (Lo:Hi:Step):(  -1:  92:   1)
(PID.TID 0000.0001) // RANGE J (Lo:Hi:Step):(  42:  -1:  -1)
(PID.TID 0000.0001) // RANGE K (Lo:Hi:Step):(   1:   1:   1)
(PID.TID 0000.0001) // =======================================================
(PID.TID 0000.0001) K =   1
(PID.TID 0000.0001) //                I=8       I=18      I=28      I=38      I=44      I=54      I=64      I=74      I=84
(PID.TID 0000.0001) // |--J--|*01234567|901234567|901234567|901234567|901234567|567890123|567890123|567890123|567890123|56789012
(PID.TID 0000.0001) //     42 ..............................................kkl.kkllllm............................jjj..........
(PID.TID 0000.0001) //     41 ..................................................................................................
(PID.TID 0000.0001) //     40 ..................................................................................................
(PID.TID 0000.0001) //     39 jjjjjiii........................................................................lk..........jjjjjj
(PID.TID 0000.0001) //     38 jkllmm...........................................................................l.........hijjkll
(PID.TID 0000.0001) //     37 llmn.............................................................................ll....dde...jllmn
(PID.TID 0000.0001) //     36 nmm...........................................fff.fffg...........................mml..nopponnnnmm.
(PID.TID 0000.0001) //     35 ...m..................................kjj..iihhiihhiijkk..mmlki...................ooopstuttsrp...m
(PID.TID 0000.0001) //     34 .......................................mmlmmmmmmnmmmnnnoppqqqpnl...................qstuuuuttrq....
(PID.TID 0000.0001) //     33 o......................................nopqqqpppppppppppqqqqqqpom................n..svvutsrrqpo...
(PID.TID 0000.0001) //     32 .......................................opqrqqrrqqrrqqqqqqqqqqqqpn................pppqtusrqppon....
(PID.TID 0000.0001) //     31 .......................................oppqqrrqqqrqqqqpppppoooonn..............oqrrpqrqpoonnm.....
(PID.TID 0000.0001) //     30 ......................................nopppqqqqppqqppooonnnnmmmmm.............oqrrrqponnmmllkk....
(PID.TID 0000.0001) //     29 ..................................kkmmnnoonnnnmmmnmmmmllllkjjjjjkno..........lmnnnmmlllkkjjjjj....
(PID.TID 0000.0001) //     28 .................................ijjkkkkkkkkjjjjijjjiiiiihggggghikm.......i..jjjjjjjiiiiihhhh.....
(PID.TID 0000.0001) //     27 ..................................hhhhhhhgggggggfgggffeeedddddefghjll....ggghgfggggggggffffg......
(PID.TID 0000.0001) //     26 ..................nn...........ddfgffffffeeeeddddddddddddccbbbcdefhjkl.....ffgheeeeeeddddeeg......
(PID.TID 0000.0001) //     25 ................mooo...lll....gg..gffeeedddcccccccccccccbabbbbbcdeghjkk.....dbbcddccccccdefi......
(PID.TID 0000.0001) //     24 ...............lnoonn..lll....ii..hggfeedddcccccbcccbbbbaabbbccdefhiijjiii..d-..edcccccdeghj......
(PID.TID 0000.0001) //     23 ................nmmmmmlmll..jjjijjjiihggffeeeedddeddddccccdcdeefghhiijjijjk.......ddddefghikl.....
(PID.TID 0000.0001) //     22 kkll...........mmlllmmnnml...j...kkkjjiihhggggffegffeeeeeeeeefffgghhiiijklll........eeefghijkkkkll
(PID.TID 0000.0001) //     21 jjkk..........jkkklllmmmmll......kkkkkjjjjihhhggfhggffeeeeeeeefffggghiiijjjk.........eefggghiijjkk
(PID.TID 0000.0001) //     20 hijjk........hijjjjkkkllkkk............jjjjiiihggihggffeeeeedeeeeeffggghhhh.............feffgghijj
(PID.TID 0000.0001) //     19 fghik........hghhhhhhhhihhhhh..jjjii....iiiiiihhgihhggffeeeeddddddddddeeefgh............edddeffghi
(PID.TID 0000.0001) //     18 efghj........igfffeeeedddddefhiijj.....gggggggggggggggfffffeeeddddccccccdeefh...........eddcddefgh
(PID.TID 0000.0001) //     17 eefgi...........dcccccbaaabcegijk.......eeeffffffffffffffffffeeeeddccccccddeg...........eeedddeefg
(PID.TID 0000.0001) //     16 eeeeg.......i..fdcccbaaabbcdegj.........eeeeeeeeeeeeeeffffffffffeeeedddddddefh.........ggfffeeeeee
(PID.TID 0000.0001) //     15 feeef.......g..feddccccdddeefg...........ffffffffffffffffggghggggggfffggffffgi........hhhhhgggfeee
(PID.TID 0000.0001) //     14 ihhggg.....hgeefffffggggghhihh............hhhhhhhhhhhhhhiiiiiiiihhiiihiihhhhhj.......hhiijjjjiihhg
(PID.TID 0000.0001) //     13 mllkji....jiihhiijjjkkkklllmml...........kjjjjjkkjjkkkkkkkkjjjjjjjkkjjkkkkjkjk......jkkkkllllmmllk
(PID.TID 0000.0001) //     12 onnonnmmnmllllllmmnnnoooppppppo..nnn.....llllllmlllmlllllmmmlllkllmmllmmmmmmml.....lmmmnnnnnnoonno
(PID.TID 0000.0001) //     11 qqrrrrrrpooopppprssssttsstttssrqppppppooonmmm..mm..mmmmmmmnnnmmmnopppooooooon.....moooopqqqqqqqqrr
(PID.TID 0000.0001) //     10 tuvvvvutssstttttvvwwwwxxxxwwvvuutsrrrqqqqppo..mmn.mmnnnnnooooooppqqrrqrrrrqqp....npqrrrrsssssttuvv
(PID.TID 0000.0001) //      9 vwwxxxwvwwwxxxxxyyyzzzz+++zyxwwwwvutsssssrrqpooppoopppqqqqpppqqrsttttsstttssr....pqrssssstttuvvwwx
(PID.TID 0000.0001) //      8 vvvvwvvwyyzzzyyyzzzzzyzz+zywvvwwwvuttssttttttssttssttuuttssrsstuvwwvuttttuuuu...rqrrrrrsssttuuvvvv
(PID.TID 0000.0001) //      7 sttsstvxyxxwvvwwwwwwvvvvvvuttttttssrrrrstuuvvvvvvvvvvvvuutttttuuvvvusrrrstuvvvvrssrqqqqqqrrrssstts
(PID.TID 0000.0001) //      6 oooooqrsrrqpoppppppppooooooooooonnmmmnopqsttuuuttuutttsssssssssrrrqpooopqrssssrrqppoonnnnoooopoooo
(PID.TID 0000.0001) //      5 kkkkllllkkjiiiiiijjjjjiiiii..iihhggghijlmnopppppopppoonoooqqqponmmlkklmmnnnnmmmm..lllkkkkkkkkkkkkk
(PID.TID 0000.0001) //      4 hhhgggggff.................................llllmmllmmmnnnnnooonmlkjjkkkkkkkkjj....jkjjjjjjiiiihhhg
(PID.TID 0000.0001) //      3 ..............................................llm.llmmnnnnnnnmmmmllllll...........kkkkjjjjii......
(PID.TID 0000.0001) //      2 ..............................................kkl.kkllllm............................jjj..........
(PID.TID 0000.0001) //      1 ..................................................................................................
(PID.TID 0000.0001) //      0 ..................................................................................................
(PID.TID 0000.0001) //     -1 jjjjjiii........................................................................lk..........jjjjjj
(PID.TID 0000.0001) // =======================================================
(PID.TID 0000.0001) // END OF FIELD                                          =
(PID.TID 0000.0001) // =======================================================
(PID.TID 0000.0001) 
(PID.TID 0000.0001) // =======================================================
(PID.TID 0000.0001) // Field WIND_STRESS_CLIMATOLOGY FV at iteration          1
(PID.TID 0000.0001) // CMIN =         -7.049009948968887E-02
(PID.TID 0000.0001) // CMAX =          8.463316410779953E-02
(PID.TID 0000.0001) // CINT =          5.745306059166237E-03
(PID.TID 0000.0001) // SYMBOLS (CMIN->CMAX): -abcdefghijklmnopqrstuvwxyz+
(PID.TID 0000.0001) //                  0.0: .
(PID.TID 0000.0001) // RANGE I (Lo:Hi:Step):(  -1:  92:   1)
(PID.TID 0000.0001) // RANGE J (Lo:Hi:Step):(  42:  -1:  -1)
(PID.TID 0000.0001) // RANGE K (Lo:Hi:Step):(   1:   1:   1)
(PID.TID 0000.0001) // =======================================================
(PID.TID 0000.0001) K =   1
(PID.TID 0000.0001) //                I=8       I=18      I=28      I=38      I=44      I=54      I=64      I=74      I=84
(PID.TID 0000.0001) // |--J--|*01234567|901234567|901234567|901234567|901234567|567890123|567890123|567890123|567890123|56789012
(PID.TID 0000.0001) //     42 ..................................................................................................
(PID.TID 0000.0001) //     41 ..................................................................................................
(PID.TID 0000.0001) //     40 ..................................................................................................
(PID.TID 0000.0001) //     39 hiijkl..........................................................................ii.........gghhiij
(PID.TID 0000.0001) //     38 klmo............................................................................if..........jjklmo
(PID.TID 0000.0001) //     37 noq.............................................................................ihg...-fjm..mmnoq.
(PID.TID 0000.0001) //     36 ..p..........................................ggghggghi...........................hhf.cinpqqqqq..p.
(PID.TID 0000.0001) //     35 ......................................ghi.hikklllkllllkk.mprssr...................ijijlnoppqqo....
(PID.TID 0000.0001) //     34 ......................................hhiiklmnnnonnnonnnoppqqqqp...................lmnoooooonn....
(PID.TID 0000.0001) //     33 ......................................iiijkmmnnnnnnnnnnoooooonmmn...............lk.llmoponmlll....
(PID.TID 0000.0001) //     32 ......................................ihhijkklmmnlmmnnnnnooonmkih...............iijkkmnonmljh.....
(PID.TID 0000.0001) //     31 ......................................gghijkllmmmlmmmmnnnnnnmkida.............hijlmnnnnnmljhe.....
(PID.TID 0000.0001) //     30 .....................................iijllmmmmmllmmlllllmmmmljgc-............kllmnnnnmmmljhfef....
(PID.TID 0000.0001) //     29 .................................dfijkllmmmmlllkkllkkkkkllllkigebbe.........lmmmmmmllllkjigec.....
(PID.TID 0000.0001) //     28 .................................eijkkkkllkkkjjjjjjjjjjjkkkkjigedcc......kk.llmllllllkkjigec......
(PID.TID 0000.0001) //     27 .................................hijjkkkkkkkjjiiijiiiiiijjjihgfedddeh...k.kkkklllkkkkjihgebb......
(PID.TID 0000.0001) //     26 .................plk....o.....ge.iijjjkkkkjjiiiiiiiiiiiiihhgfeedccdfgi.....jkklkkkjjiigfdcab......
(PID.TID 0000.0001) //     25 ...............rsplj..ooon...jhi.jjjjjjkjjiiiiihhiihhhhggfffedddddeghjk....ihi.kkjiihgfedccg......
(PID.TID 0000.0001) //     24 ...............trnkjj.noon...hjk.jkkkjjjjihhhhggghggggffgggffggghijkllljjj.......iihggffffgj......
(PID.TID 0000.0001) //     23 ...............qnlkkkknoon..kj..kllkkkkkjjjjjiijjiijjjjkkllmmnnopqqrrqqpooo........hhiiijklno.....
(PID.TID 0000.0001) //     22 rrrq..........onmlllllnnnm......lmmlkllllkkllllmmllmmmmnnoopqqqqqrrrrsstttsq........jlnnopqqrsrrrq
(PID.TID 0000.0001) //     21 sssr.........poonmmmmmnnnmm.......m...lmllkkkkkkkkkkkklllmmnoonoopppqqqqqqr............qqqrrrssssr
(PID.TID 0000.0001) //     20 ttsrp.......qqrppoooooooonn.......o....nnmllkkkkjkkkjjjjkllmmnnopqqrrsssrrs............pqrssssttsr
(PID.TID 0000.0001) //     19 tttsq.......pqtsrqqqqrrrrqqqp.onmm.....oqponnllllllllkkkkklllmnnopqqrssssttt...........ppqrsstttts
(PID.TID 0000.0001) //     18 stuus.......o..tssssrstuuuutsrpon......ssrqqpoooooooonmmmmmmlmmmnnoopqqrstuut..........nnopqrsstuu
(PID.TID 0000.0001) //     17 stvww.......o..rrrrrsttuvvvvutr........rssrrrqpppqpppppoonnmmmmmmmmnnnopqrsuu..........lllmopqstvw
(PID.TID 0000.0001) //     16 qsvxy......rq.noppqqrrrstuuvwx..........srrrrrqqqrqqqqqqpponmmmmlllllmmopqsuvt........jkkllmnpqsvx
(PID.TID 0000.0001) //     15 pqtx+......qr.lmnoppqppqrrsuxz...........qqqqqpppqppppppppoonnmlllkkklmmopqsvv.......jjkllllmopqtx
(PID.TID 0000.0001) //     14 noqtyz....mopnmnnnopppppqqrsvx...........pppppopppopppppppoonmmllkkkllmmnoprvy......llkkklkklmnoqt
(PID.TID 0000.0001) //     13 lmopsu...mlmmmmmnnnnooopppqrst..........qpppoooooooooopppoonmmmllkjklmnmmopruw.....mmllkkkkkkklmop
(PID.TID 0000.0001) //     12 jkklnqqonmlllllllmlmmnnoooooopp.mlmn....qqppp.nnn.nnnnooooonmmmmljjjllkklmnpq.....mmlllmlllkjijkkl
(PID.TID 0000.0001) //     11 jjjjlmmmllkjjjjkklkkllmmmmmlllkkkkjklllnopoo..onn.onnmmlllllkllmllkkkkkllllmm....klllmmmmllkjijjjj
(PID.TID 0000.0001) //     10 hiiiiijiiiihgghiijjjklllkkjjjjjjiiiiijklmmnm.nnnmnnnmmlllkkkkkllllkkkkllllkji...kkllmmnmllkkiihiii
(PID.TID 0000.0001) //      9 ghhhhhgggggffffggghijkkjihhhhhiihhhgghiijjkkkklllkllllkkklllkkkkkklmmlkkkjhge...llllmmmmlllkihghhh
(PID.TID 0000.0001) //      8 hhhhhhhgggggggggggghijkjjihhhiiihgfffggghhhhhhijkhijkkjjjklllkjjjkmnnlkjihgee..klmmmmllllllkjihhhh
(PID.TID 0000.0001) //      7 kllkkkkjjihhghhiijjkllmmnmlmllkjhhghhiihhhhhhiijkiijkkkjjklmmmllllnoonmkjiihgghjlmnnnmmmmmmmlkkllk
(PID.TID 0000.0001) //      6 mmnnooonmljkkkklmnooppppqqp.nnlkkklllllkkjjkkkllmkllmmmmmlllmmllmmnooonnmlkjiiij.mnnnnnnnnnnnmmmnn
(PID.TID 0000.0001) //      5 ooopqqqpon.m..............................nnooonnoonnmmlllkkkllmnnooopponmlkkj...lmmnnnnoonoooooop
(PID.TID 0000.0001) //      4 .............................................srqosrqonnmllllmmnnooooooo..........kkklllllmno......
(PID.TID 0000.0001) //      3 .............................................wvutwvutssrr...........................mmmm..........
(PID.TID 0000.0001) //      2 ..................................................................................................
(PID.TID 0000.0001) //      1 ..................................................................................................
(PID.TID 0000.0001) //      0 ..................................................................................................
(PID.TID 0000.0001) //     -1 hiijkl..........................................................................ii.........gghhiij
(PID.TID 0000.0001) // =======================================================
(PID.TID 0000.0001) // END OF FIELD                                          =
(PID.TID 0000.0001) // =======================================================
(PID.TID 0000.0001) 
 ph-ebm a   3733.29329
 ph-ebm b   278.371383
 SH  5.22138922  23.2965364
 NH  10.4779825  25.5643986
 SH  5.22138922  23.2965364
 NH  10.4779825  25.5643986
  5.22138922  23.2965364
  10.4779825  25.5643986
(PID.TID 0000.0001) // =======================================================
(PID.TID 0000.0001) // Model current state
(PID.TID 0000.0001) // =======================================================
(PID.TID 0000.0001) 
(PID.TID 0000.0001) // =======================================================
(PID.TID 0000.0001) // Begin MONITOR dynamic field statistics
(PID.TID 0000.0001) // =======================================================
(PID.TID 0000.0001) %MON time_tsnumber                =                     0
(PID.TID 0000.0001) %MON time_secondsf                =   0.0000000000000E+00
(PID.TID 0000.0001) %MON dynstat_eta_max              =   0.0000000000000E+00
(PID.TID 0000.0001) %MON dynstat_eta_min              =   0.0000000000000E+00
(PID.TID 0000.0001) %MON dynstat_eta_mean             =   0.0000000000000E+00
(PID.TID 0000.0001) %MON dynstat_eta_sd               =   0.0000000000000E+00
(PID.TID 0000.0001) %MON dynstat_eta_del2             =   0.0000000000000E+00
(PID.TID 0000.0001) %MON dynstat_uvel_max             =   0.0000000000000E+00
(PID.TID 0000.0001) %MON dynstat_uvel_min             =   0.0000000000000E+00
(PID.TID 0000.0001) %MON dynstat_uvel_mean            =   0.0000000000000E+00
(PID.TID 0000.0001) %MON dynstat_uvel_sd              =   0.0000000000000E+00
(PID.TID 0000.0001) %MON dynstat_uvel_del2            =   0.0000000000000E+00
(PID.TID 0000.0001) %MON dynstat_vvel_max             =   0.0000000000000E+00
(PID.TID 0000.0001) %MON dynstat_vvel_min             =   0.0000000000000E+00
(PID.TID 0000.0001) %MON dynstat_vvel_mean            =   0.0000000000000E+00
(PID.TID 0000.0001) %MON dynstat_vvel_sd              =   0.0000000000000E+00
(PID.TID 0000.0001) %MON dynstat_vvel_del2            =   0.0000000000000E+00
(PID.TID 0000.0001) %MON dynstat_wvel_max             =   0.0000000000000E+00
(PID.TID 0000.0001) %MON dynstat_wvel_min             =   0.0000000000000E+00
(PID.TID 0000.0001) %MON dynstat_wvel_mean            =   0.0000000000000E+00
(PID.TID 0000.0001) %MON dynstat_wvel_sd              =   0.0000000000000E+00
(PID.TID 0000.0001) %MON dynstat_wvel_del2            =   0.0000000000000E+00
(PID.TID 0000.0001) %MON dynstat_theta_max            =   2.9329580307007E+01
(PID.TID 0000.0001) %MON dynstat_theta_min            =  -1.8507585525513E+00
(PID.TID 0000.0001) %MON dynstat_theta_mean           =   3.4385862740246E+00
(PID.TID 0000.0001) %MON dynstat_theta_sd             =   4.1126810597649E+00
(PID.TID 0000.0001) %MON dynstat_theta_del2           =   1.3650057162091E-01
(PID.TID 0000.0001) %MON dynstat_salt_max             =   3.7439460754395E+01
(PID.TID 0000.0001) %MON dynstat_salt_min             =   3.1028352737427E+01
(PID.TID 0000.0001) %MON dynstat_salt_mean            =   3.4715046474651E+01
(PID.TID 0000.0001) %MON dynstat_salt_sd              =   2.7634376761930E-01
(PID.TID 0000.0001) %MON dynstat_salt_del2            =   2.2114221965762E-02
(PID.TID 0000.0001) %MON advcfl_uvel_max              =   0.0000000000000E+00
(PID.TID 0000.0001) %MON advcfl_vvel_max              =   0.0000000000000E+00
(PID.TID 0000.0001) %MON advcfl_wvel_max              =   0.0000000000000E+00
(PID.TID 0000.0001) %MON advcfl_W_hf_max              =   0.0000000000000E+00
(PID.TID 0000.0001) %MON pe_b_mean                    =   0.0000000000000E+00
(PID.TID 0000.0001) %MON ke_max                       =   0.0000000000000E+00
(PID.TID 0000.0001) %MON ke_mean                      =   0.0000000000000E+00
(PID.TID 0000.0001) %MON ke_vol                       =   1.4101703507225E+18
(PID.TID 0000.0001) %MON vort_r_min                   =   0.0000000000000E+00
(PID.TID 0000.0001) %MON vort_r_max                   =   0.0000000000000E+00
(PID.TID 0000.0001) %MON vort_a_mean                  =  -1.9922043059712E-05
(PID.TID 0000.0001) %MON vort_a_sd                    =   7.3517359474083E-05
(PID.TID 0000.0001) %MON vort_p_mean                  =  -2.3665444248068E-05
(PID.TID 0000.0001) %MON vort_p_sd                    =   1.0341451660816E-04
(PID.TID 0000.0001) %MON surfExpan_theta_mean         =   0.0000000000000E+00
(PID.TID 0000.0001) %MON surfExpan_salt_mean          =   0.0000000000000E+00
(PID.TID 0000.0001) // =======================================================
(PID.TID 0000.0001) // End MONITOR dynamic field statistics
(PID.TID 0000.0001) // =======================================================
 ph-ebm a   3733.29329
 ph-ebm b   278.371383
 SH  5.22138922  23.2965364
 NH  10.4779825  25.5643986
 SH  5.22138922  23.2965364
 NH  10.4779825  25.5643986
 cg2d: Sum(rhs),rhsMax =   1.12062139444024E-02  7.56856566341524E+00
(PID.TID 0000.0001)                    cg2d_init_res =    2.96826525488388E+00
(PID.TID 0000.0001)                       cg2d_iters =    22
(PID.TID 0000.0001)                         cg2d_res =    7.97954301434242E-14
(PID.TID 0000.0001) // =======================================================
(PID.TID 0000.0001) // Begin MONITOR dynamic field statistics
(PID.TID 0000.0001) // =======================================================
(PID.TID 0000.0001) %MON time_tsnumber                =                     1
(PID.TID 0000.0001) %MON time_secondsf                =   4.3200000000000E+04
(PID.TID 0000.0001) %MON dynstat_eta_max              =   3.7649399131779E-01
(PID.TID 0000.0001) %MON dynstat_eta_min              =  -1.7612323135071E-01
(PID.TID 0000.0001) %MON dynstat_eta_mean             =  -1.8771872821503E-06
(PID.TID 0000.0001) %MON dynstat_eta_sd               =   2.7747059256376E-02
(PID.TID 0000.0001) %MON dynstat_eta_del2             =   1.0070951810222E-02
(PID.TID 0000.0001) %MON dynstat_uvel_max             =   4.1046482620899E-02
(PID.TID 0000.0001) %MON dynstat_uvel_min             =  -6.9949891341308E-02
(PID.TID 0000.0001) %MON dynstat_uvel_mean            =  -3.6664390112758E-04
(PID.TID 0000.0001) %MON dynstat_uvel_sd              =   1.3806802673502E-03
(PID.TID 0000.0001) %MON dynstat_uvel_del2            =   2.9854432841346E-04
(PID.TID 0000.0001) %MON dynstat_vvel_max             =   6.0208692355544E-02
(PID.TID 0000.0001) %MON dynstat_vvel_min             =  -9.0703836573081E-02
(PID.TID 0000.0001) %MON dynstat_vvel_mean            =   9.8155253965385E-04
(PID.TID 0000.0001) %MON dynstat_vvel_sd              =   3.5442114345614E-03
(PID.TID 0000.0001) %MON dynstat_vvel_del2            =   4.6566338862922E-04
(PID.TID 0000.0001) %MON dynstat_wvel_max             =   3.6127898973961E-04
(PID.TID 0000.0001) %MON dynstat_wvel_min             =  -2.0231725322386E-04
(PID.TID 0000.0001) %MON dynstat_wvel_mean            =   1.3966220710249E-22
(PID.TID 0000.0001) %MON dynstat_wvel_sd              =   1.8907694040013E-05
(PID.TID 0000.0001) %MON dynstat_wvel_del2            =   7.8361568107037E-06
(PID.TID 0000.0001) %MON dynstat_theta_max            =   2.9084327512766E+01
(PID.TID 0000.0001) %MON dynstat_theta_min            =  -1.8502991113548E+00
(PID.TID 0000.0001) %MON dynstat_theta_mean           =   3.4367120449939E+00
(PID.TID 0000.0001) %MON dynstat_theta_sd             =   4.1037719176724E+00
(PID.TID 0000.0001) %MON dynstat_theta_del2           =   1.3644726380925E-01
(PID.TID 0000.0001) %MON dynstat_salt_max             =   3.7439172827326E+01
(PID.TID 0000.0001) %MON dynstat_salt_min             =   3.1029390096134E+01
(PID.TID 0000.0001) %MON dynstat_salt_mean            =   3.4715046457201E+01
(PID.TID 0000.0001) %MON dynstat_salt_sd              =   2.7632925832756E-01
(PID.TID 0000.0001) %MON dynstat_salt_del2            =   2.2120641418748E-02
(PID.TID 0000.0001) %MON advcfl_uvel_max              =   6.8998959363733E-03
(PID.TID 0000.0001) %MON advcfl_vvel_max              =   8.8111503657527E-03
(PID.TID 0000.0001) %MON advcfl_wvel_max              =   5.4212557788622E-01
(PID.TID 0000.0001) %MON advcfl_W_hf_max              =   5.4753777541052E-01
(PID.TID 0000.0001) %MON pe_b_mean                    =   8.9322549836775E-07
(PID.TID 0000.0001) %MON ke_max                       =   2.3546783249348E-03
(PID.TID 0000.0001) %MON ke_mean                      =   7.0957135008121E-06
(PID.TID 0000.0001) %MON ke_vol                       =   1.4101703507225E+18
(PID.TID 0000.0001) %MON vort_r_min                   =  -2.1402960237431E-07
(PID.TID 0000.0001) %MON vort_r_max                   =   2.0304683894478E-07
(PID.TID 0000.0001) %MON vort_a_mean                  =  -1.9922043059712E-05
(PID.TID 0000.0001) %MON vort_a_sd                    =   7.3517273567133E-05
(PID.TID 0000.0001) %MON vort_p_mean                  =  -2.3665444248068E-05
(PID.TID 0000.0001) %MON vort_p_sd                    =   1.0341438339718E-04
(PID.TID 0000.0001) %MON surfExpan_theta_mean         =   4.7124137316799E-05
(PID.TID 0000.0001) %MON surfExpan_salt_mean          =   3.9477470768746E-06
(PID.TID 0000.0001) // =======================================================
(PID.TID 0000.0001) // End MONITOR dynamic field statistics
(PID.TID 0000.0001) // =======================================================
 ph-ebm a   3702.25739
 ph-ebm b   278.327976
 SH  5.17798236  23.1014014
 NH  10.3445531  25.3497901
 SH  5.17798236  23.1014014
 NH  10.3445531  25.3497901
 cg2d: Sum(rhs),rhsMax =   9.79277809104493E-03  1.73219417998035E+01
(PID.TID 0000.0001)                    cg2d_init_res =    1.45646992013931E+00
(PID.TID 0000.0001)                       cg2d_iters =    22
(PID.TID 0000.0001)                         cg2d_res =    5.26173747709106E-14
(PID.TID 0000.0001) // =======================================================
(PID.TID 0000.0001) // Begin MONITOR dynamic field statistics
(PID.TID 0000.0001) // =======================================================
(PID.TID 0000.0001) %MON time_tsnumber                =                     2
(PID.TID 0000.0001) %MON time_secondsf                =   8.6400000000000E+04
(PID.TID 0000.0001) %MON dynstat_eta_max              =   8.7729261765108E-01
(PID.TID 0000.0001) %MON dynstat_eta_min              =  -3.2138317568368E-01
(PID.TID 0000.0001) %MON dynstat_eta_mean             =  -3.7543745642720E-06
(PID.TID 0000.0001) %MON dynstat_eta_sd               =   6.4676500942789E-02
(PID.TID 0000.0001) %MON dynstat_eta_del2             =   1.9643079015336E-02
(PID.TID 0000.0001) %MON dynstat_uvel_max             =   7.4463610389778E-02
(PID.TID 0000.0001) %MON dynstat_uvel_min             =  -1.2538563188713E-01
(PID.TID 0000.0001) %MON dynstat_uvel_mean            =  -9.0865937952636E-04
(PID.TID 0000.0001) %MON dynstat_uvel_sd              =   2.5462851362030E-03
(PID.TID 0000.0001) %MON dynstat_uvel_del2            =   5.9973721187389E-04
(PID.TID 0000.0001) %MON dynstat_vvel_max             =   1.0851823633334E-01
(PID.TID 0000.0001) %MON dynstat_vvel_min             =  -1.5984930410695E-01
(PID.TID 0000.0001) %MON dynstat_vvel_mean            =   1.9057192980834E-03
(PID.TID 0000.0001) %MON dynstat_vvel_sd              =   6.5064673959538E-03
(PID.TID 0000.0001) %MON dynstat_vvel_del2            =   8.6710493044953E-04
(PID.TID 0000.0001) %MON dynstat_wvel_max             =   6.0864245657578E-04
(PID.TID 0000.0001) %MON dynstat_wvel_min             =  -3.1504739039792E-04
(PID.TID 0000.0001) %MON dynstat_wvel_mean            =   1.1640563454045E-22
(PID.TID 0000.0001) %MON dynstat_wvel_sd              =   2.8666500074649E-05
(PID.TID 0000.0001) %MON dynstat_wvel_del2            =   9.4355175382315E-06
(PID.TID 0000.0001) %MON dynstat_theta_max            =   2.8835064827965E+01
(PID.TID 0000.0001) %MON dynstat_theta_min            =  -1.8502283588601E+00
(PID.TID 0000.0001) %MON dynstat_theta_mean           =   3.4340890160522E+00
(PID.TID 0000.0001) %MON dynstat_theta_sd             =   4.0936279848061E+00
(PID.TID 0000.0001) %MON dynstat_theta_del2           =   1.3445983882990E-01
(PID.TID 0000.0001) %MON dynstat_salt_max             =   3.7438779020577E+01
(PID.TID 0000.0001) %MON dynstat_salt_min             =   3.1030465358171E+01
(PID.TID 0000.0001) %MON dynstat_salt_mean            =   3.4714981893309E+01
(PID.TID 0000.0001) %MON dynstat_salt_sd              =   2.7634723887235E-01
(PID.TID 0000.0001) %MON dynstat_salt_del2            =   2.2038749006693E-02
(PID.TID 0000.0001) %MON advcfl_uvel_max              =   1.2368108017727E-02
(PID.TID 0000.0001) %MON advcfl_vvel_max              =   1.5528078056681E-02
(PID.TID 0000.0001) %MON advcfl_wvel_max              =   7.2112425230856E-01
(PID.TID 0000.0001) %MON advcfl_W_hf_max              =   7.3845732334210E-01
(PID.TID 0000.0001) %MON pe_b_mean                    =   4.8531109555216E-06
(PID.TID 0000.0001) %MON ke_max                       =   7.5950736793557E-03
(PID.TID 0000.0001) %MON ke_mean                      =   2.4288098387802E-05
(PID.TID 0000.0001) %MON ke_vol                       =   1.4101703507225E+18
(PID.TID 0000.0001) %MON vort_r_min                   =  -3.8212645794403E-07
(PID.TID 0000.0001) %MON vort_r_max                   =   3.6505782432462E-07
(PID.TID 0000.0001) %MON vort_a_mean                  =  -1.9922043059712E-05
(PID.TID 0000.0001) %MON vort_a_sd                    =   7.3517156931244E-05
(PID.TID 0000.0001) %MON vort_p_mean                  =  -2.3665444248068E-05
(PID.TID 0000.0001) %MON vort_p_sd                    =   1.0341417999354E-04
(PID.TID 0000.0001) %MON surfExpan_theta_mean         =   8.4933507280434E-05
(PID.TID 0000.0001) %MON surfExpan_salt_mean          =   7.4979809004993E-06
(PID.TID 0000.0001) // =======================================================
(PID.TID 0000.0001) // End MONITOR dynamic field statistics
(PID.TID 0000.0001) // =======================================================
 ph-ebm a   3673.84954
 ph-ebm b   278.288245
 SH  5.13825111  22.907856
 NH  10.2235418  25.1373671
 SH  5.13825111  22.907856
 NH  10.2235418  25.1373671
 cg2d: Sum(rhs),rhsMax =   1.06876909646982E-02  2.38072843859745E+01
(PID.TID 0000.0001)                    cg2d_init_res =    8.52506353785260E-01
(PID.TID 0000.0001)                       cg2d_iters =    22
(PID.TID 0000.0001)                         cg2d_res =    4.19510507067561E-14
(PID.TID 0000.0001) // =======================================================
(PID.TID 0000.0001) // Begin MONITOR dynamic field statistics
(PID.TID 0000.0001) // =======================================================
(PID.TID 0000.0001) %MON time_tsnumber                =                     3
(PID.TID 0000.0001) %MON time_secondsf                =   1.2960000000000E+05
(PID.TID 0000.0001) %MON dynstat_eta_max              =   1.2391242384988E+00
(PID.TID 0000.0001) %MON dynstat_eta_min              =  -4.0261201594443E-01
(PID.TID 0000.0001) %MON dynstat_eta_mean             =  -5.6315618464043E-06
(PID.TID 0000.0001) %MON dynstat_eta_sd               =   9.9566627234256E-02
(PID.TID 0000.0001) %MON dynstat_eta_del2             =   2.3898897091737E-02
(PID.TID 0000.0001) %MON dynstat_uvel_max             =   9.4235906907469E-02
(PID.TID 0000.0001) %MON dynstat_uvel_min             =  -1.6628440502174E-01
(PID.TID 0000.0001) %MON dynstat_uvel_mean            =  -1.5975168466723E-03
(PID.TID 0000.0001) %MON dynstat_uvel_sd              =   3.6794951552965E-03
(PID.TID 0000.0001) %MON dynstat_uvel_del2            =   9.0835925762232E-04
(PID.TID 0000.0001) %MON dynstat_vvel_max             =   1.4477006567775E-01
(PID.TID 0000.0001) %MON dynstat_vvel_min             =  -2.1172871035351E-01
(PID.TID 0000.0001) %MON dynstat_vvel_mean            =   2.7482060871074E-03
(PID.TID 0000.0001) %MON dynstat_vvel_sd              =   8.9627622040755E-03
(PID.TID 0000.0001) %MON dynstat_vvel_del2            =   1.2548056270748E-03
(PID.TID 0000.0001) %MON dynstat_wvel_max             =   7.4197317725249E-04
(PID.TID 0000.0001) %MON dynstat_wvel_min             =  -3.6501800300123E-04
(PID.TID 0000.0001) %MON dynstat_wvel_mean            =   1.6908927295428E-22
(PID.TID 0000.0001) %MON dynstat_wvel_sd              =   3.2672593385815E-05
(PID.TID 0000.0001) %MON dynstat_wvel_del2            =   8.3104365476608E-06
(PID.TID 0000.0001) %MON dynstat_theta_max            =   2.8590913504827E+01
(PID.TID 0000.0001) %MON dynstat_theta_min            =  -1.8518203390483E+00
(PID.TID 0000.0001) %MON dynstat_theta_mean           =   3.4311492847853E+00
(PID.TID 0000.0001) %MON dynstat_theta_sd             =   4.0830570378219E+00
(PID.TID 0000.0001) %MON dynstat_theta_del2           =   1.3297437777757E-01
(PID.TID 0000.0001) %MON dynstat_salt_max             =   3.7438177715097E+01
(PID.TID 0000.0001) %MON dynstat_salt_min             =   3.1031091068929E+01
(PID.TID 0000.0001) %MON dynstat_salt_mean            =   3.4714883498308E+01
(PID.TID 0000.0001) %MON dynstat_salt_sd              =   2.7638214905106E-01
(PID.TID 0000.0001) %MON dynstat_salt_del2            =   2.1966402825521E-02
(PID.TID 0000.0001) %MON advcfl_uvel_max              =   1.6402385600479E-02
(PID.TID 0000.0001) %MON advcfl_vvel_max              =   2.0567746350713E-02
(PID.TID 0000.0001) %MON advcfl_wvel_max              =   5.2101176440932E-01
(PID.TID 0000.0001) %MON advcfl_W_hf_max              =   5.5401823677087E-01
(PID.TID 0000.0001) %MON pe_b_mean                    =   1.1501507845430E-05
(PID.TID 0000.0001) %MON ke_max                       =   1.3527190658076E-02
(PID.TID 0000.0001) %MON ke_mean                      =   4.7414033128172E-05
(PID.TID 0000.0001) %MON ke_vol                       =   1.4101703507225E+18
(PID.TID 0000.0001) %MON vort_r_min                   =  -5.0890257125134E-07
(PID.TID 0000.0001) %MON vort_r_max                   =   4.9275225923464E-07
(PID.TID 0000.0001) %MON vort_a_mean                  =  -1.9922043059712E-05
(PID.TID 0000.0001) %MON vort_a_sd                    =   7.3517014730203E-05
(PID.TID 0000.0001) %MON vort_p_mean                  =  -2.3665444248068E-05
(PID.TID 0000.0001) %MON vort_p_sd                    =   1.0341390656810E-04
(PID.TID 0000.0001) %MON surfExpan_theta_mean         =   1.1463261067850E-04
(PID.TID 0000.0001) %MON surfExpan_salt_mean          =   1.0295940508342E-05
(PID.TID 0000.0001) // =======================================================
(PID.TID 0000.0001) // End MONITOR dynamic field statistics
(PID.TID 0000.0001) // =======================================================
 ph-ebm a   3646.64039
 ph-ebm b   278.25019
 SH  5.10019635  22.7143695
 NH  10.1124036  24.9239434
 SH  5.10019635  22.7143695
 NH  10.1124036  24.9239434
 cg2d: Sum(rhs),rhsMax =   1.30904277747817E-02  2.59166369607848E+01
(PID.TID 0000.0001)                    cg2d_init_res =    7.21883530793611E-01
(PID.TID 0000.0001)                       cg2d_iters =    22
(PID.TID 0000.0001)                         cg2d_res =    4.01207298158987E-14
(PID.TID 0000.0001) // =======================================================
(PID.TID 0000.0001) // Begin MONITOR dynamic field statistics
(PID.TID 0000.0001) // =======================================================
(PID.TID 0000.0001) %MON time_tsnumber                =                     4
(PID.TID 0000.0001) %MON time_secondsf                =   1.7280000000000E+05
(PID.TID 0000.0001) %MON dynstat_eta_max              =   1.3928054076481E+00
(PID.TID 0000.0001) %MON dynstat_eta_min              =  -5.1916181420827E-01
(PID.TID 0000.0001) %MON dynstat_eta_mean             =  -7.5087491285690E-06
(PID.TID 0000.0001) %MON dynstat_eta_sd               =   1.3181266283086E-01
(PID.TID 0000.0001) %MON dynstat_eta_del2             =   2.4372792438373E-02
(PID.TID 0000.0001) %MON dynstat_uvel_max             =   1.0994911170162E-01
(PID.TID 0000.0001) %MON dynstat_uvel_min             =  -2.0274576964032E-01
(PID.TID 0000.0001) %MON dynstat_uvel_mean            =  -2.4040954298409E-03
(PID.TID 0000.0001) %MON dynstat_uvel_sd              =   4.8960457907053E-03
(PID.TID 0000.0001) %MON dynstat_uvel_del2            =   1.1878765449581E-03
(PID.TID 0000.0001) %MON dynstat_vvel_max             =   1.7808529375276E-01
(PID.TID 0000.0001) %MON dynstat_vvel_min             =  -2.5883310413787E-01
(PID.TID 0000.0001) %MON dynstat_vvel_mean            =   3.4889632135460E-03
(PID.TID 0000.0001) %MON dynstat_vvel_sd              =   1.1048362742199E-02
(PID.TID 0000.0001) %MON dynstat_vvel_del2            =   1.6327221497656E-03
(PID.TID 0000.0001) %MON dynstat_wvel_max             =   8.6278222835636E-04
(PID.TID 0000.0001) %MON dynstat_wvel_min             =  -4.4627106528582E-04
(PID.TID 0000.0001) %MON dynstat_wvel_mean            =   1.6412846270155E-22
(PID.TID 0000.0001) %MON dynstat_wvel_sd              =   3.6050205790323E-05
(PID.TID 0000.0001) %MON dynstat_wvel_del2            =   8.2423973376139E-06
(PID.TID 0000.0001) %MON dynstat_theta_max            =   2.8351930951349E+01
(PID.TID 0000.0001) %MON dynstat_theta_min            =  -1.8528135689163E+00
(PID.TID 0000.0001) %MON dynstat_theta_mean           =   3.4279681589017E+00
(PID.TID 0000.0001) %MON dynstat_theta_sd             =   4.0721428563401E+00
(PID.TID 0000.0001) %MON dynstat_theta_del2           =   1.3206404377922E-01
(PID.TID 0000.0001) %MON dynstat_salt_max             =   3.7437346092792E+01
(PID.TID 0000.0001) %MON dynstat_salt_min             =   3.1030670348268E+01
(PID.TID 0000.0001) %MON dynstat_salt_mean            =   3.4714761137245E+01
(PID.TID 0000.0001) %MON dynstat_salt_sd              =   2.7642262363385E-01
(PID.TID 0000.0001) %MON dynstat_salt_del2            =   2.1902143966172E-02
(PID.TID 0000.0001) %MON advcfl_uvel_max              =   1.9998954755088E-02
(PID.TID 0000.0001) %MON advcfl_vvel_max              =   2.5143560475039E-02
(PID.TID 0000.0001) %MON advcfl_wvel_max              =   2.3232571085119E-01
(PID.TID 0000.0001) %MON advcfl_W_hf_max              =   2.7018405866908E-01
(PID.TID 0000.0001) %MON pe_b_mean                    =   2.0157722183840E-05
(PID.TID 0000.0001) %MON ke_max                       =   2.0334052351244E-02
(PID.TID 0000.0001) %MON ke_mean                      =   7.4811139497145E-05
(PID.TID 0000.0001) %MON ke_vol                       =   1.4101703507225E+18
(PID.TID 0000.0001) %MON vort_r_min                   =  -6.1399766511011E-07
(PID.TID 0000.0001) %MON vort_r_max                   =   6.0853440991144E-07
(PID.TID 0000.0001) %MON vort_a_mean                  =  -1.9922043059712E-05
(PID.TID 0000.0001) %MON vort_a_sd                    =   7.3516852026508E-05
(PID.TID 0000.0001) %MON vort_p_mean                  =  -2.3665444248068E-05
(PID.TID 0000.0001) %MON vort_p_sd                    =   1.0341355770824E-04
(PID.TID 0000.0001) %MON surfExpan_theta_mean         =   1.3735215411222E-04
(PID.TID 0000.0001) %MON surfExpan_salt_mean          =   1.2266700526851E-05
(PID.TID 0000.0001) // =======================================================
(PID.TID 0000.0001) // End MONITOR dynamic field statistics
(PID.TID 0000.0001) // =======================================================
 ph-ebm a   3620.51847
 ph-ebm b   278.213656
 SH  5.06366219  22.5202229
 NH  10.0127387  24.7106732
 SH  5.06366219  22.5202229
 NH  10.0127387  24.7106732
 cg2d: Sum(rhs),rhsMax =   1.67200562667482E-02  2.53632418222984E+01
(PID.TID 0000.0001)                    cg2d_init_res =    7.14702818036320E-01
(PID.TID 0000.0001)                       cg2d_iters =    22
(PID.TID 0000.0001)                         cg2d_res =    4.09129143957041E-14
(PID.TID 0000.0001) // =======================================================
(PID.TID 0000.0001) // Begin MONITOR dynamic field statistics
(PID.TID 0000.0001) // =======================================================
(PID.TID 0000.0001) %MON time_tsnumber                =                     5
(PID.TID 0000.0001) %MON time_secondsf                =   2.1600000000000E+05
(PID.TID 0000.0001) %MON dynstat_eta_max              =   1.4007387670214E+00
(PID.TID 0000.0001) %MON dynstat_eta_min              =  -6.1677931454893E-01
(PID.TID 0000.0001) %MON dynstat_eta_mean             =  -9.3859364107631E-06
(PID.TID 0000.0001) %MON dynstat_eta_sd               =   1.6285105129631E-01
(PID.TID 0000.0001) %MON dynstat_eta_del2             =   2.3428954363640E-02
(PID.TID 0000.0001) %MON dynstat_uvel_max             =   1.3781849599785E-01
(PID.TID 0000.0001) %MON dynstat_uvel_min             =  -2.3972717037985E-01
(PID.TID 0000.0001) %MON dynstat_uvel_mean            =  -3.2958942121459E-03
(PID.TID 0000.0001) %MON dynstat_uvel_sd              =   6.1940331097597E-03
(PID.TID 0000.0001) %MON dynstat_uvel_del2            =   1.4324100256539E-03
(PID.TID 0000.0001) %MON dynstat_vvel_max             =   2.1318047131085E-01
(PID.TID 0000.0001) %MON dynstat_vvel_min             =  -3.0879675800974E-01
(PID.TID 0000.0001) %MON dynstat_vvel_mean            =   4.1099692668666E-03
(PID.TID 0000.0001) %MON dynstat_vvel_sd              =   1.2795409503471E-02
(PID.TID 0000.0001) %MON dynstat_vvel_del2            =   1.9637723114311E-03
(PID.TID 0000.0001) %MON dynstat_wvel_max             =   1.0007246587434E-03
(PID.TID 0000.0001) %MON dynstat_wvel_min             =  -5.6828680951705E-04
(PID.TID 0000.0001) %MON dynstat_wvel_mean            =   1.7396129913089E-22
(PID.TID 0000.0001) %MON dynstat_wvel_sd              =   4.0185776482463E-05
(PID.TID 0000.0001) %MON dynstat_wvel_del2            =   9.2792485657262E-06
(PID.TID 0000.0001) %MON dynstat_theta_max            =   2.8114974926749E+01
(PID.TID 0000.0001) %MON dynstat_theta_min            =  -1.8536478186274E+00
(PID.TID 0000.0001) %MON dynstat_theta_mean           =   3.4246096634054E+00
(PID.TID 0000.0001) %MON dynstat_theta_sd             =   4.0609799674153E+00
(PID.TID 0000.0001) %MON dynstat_theta_del2           =   1.3164254717950E-01
(PID.TID 0000.0001) %MON dynstat_salt_max             =   3.7436271734127E+01
(PID.TID 0000.0001) %MON dynstat_salt_min             =   3.1028733164539E+01
(PID.TID 0000.0001) %MON dynstat_salt_mean            =   3.4714623724064E+01
(PID.TID 0000.0001) %MON dynstat_salt_sd              =   2.7646236183299E-01
(PID.TID 0000.0001) %MON dynstat_salt_del2            =   2.1843589670353E-02
(PID.TID 0000.0001) %MON advcfl_uvel_max              =   2.3646820560040E-02
(PID.TID 0000.0001) %MON advcfl_vvel_max              =   2.9997128788357E-02
(PID.TID 0000.0001) %MON advcfl_wvel_max              =   2.5341096729504E-01
(PID.TID 0000.0001) %MON advcfl_W_hf_max              =   2.5154577692320E-01
(PID.TID 0000.0001) %MON pe_b_mean                    =   3.0768641477722E-05
(PID.TID 0000.0001) %MON ke_max                       =   2.8749918046127E-02
(PID.TID 0000.0001) %MON ke_mean                      =   1.0490287790126E-04
(PID.TID 0000.0001) %MON ke_vol                       =   1.4101703507225E+18
(PID.TID 0000.0001) %MON vort_r_min                   =  -7.1580593715140E-07
(PID.TID 0000.0001) %MON vort_r_max                   =   7.2724410234994E-07
(PID.TID 0000.0001) %MON vort_a_mean                  =  -1.9922043059712E-05
(PID.TID 0000.0001) %MON vort_a_sd                    =   7.3516674467778E-05
(PID.TID 0000.0001) %MON vort_p_mean                  =  -2.3665444248068E-05
(PID.TID 0000.0001) %MON vort_p_sd                    =   1.0341314795144E-04
(PID.TID 0000.0001) %MON surfExpan_theta_mean         =   1.5334450820898E-04
(PID.TID 0000.0001) %MON surfExpan_salt_mean          =   1.3508879412209E-05
(PID.TID 0000.0001) // =======================================================
(PID.TID 0000.0001) // End MONITOR dynamic field statistics
(PID.TID 0000.0001) // =======================================================
 ph-ebm a   3595.52853
 ph-ebm b   278.178705
 SH  5.02871123  22.3255551
 NH  9.90671233  24.4992539
 SH  5.02871123  22.3255551
 NH  9.90671233  24.4992539
 cg2d: Sum(rhs),rhsMax =   2.13011651684944E-02  2.38902328782226E+01
(PID.TID 0000.0001)                    cg2d_init_res =    7.33741634260105E-01
(PID.TID 0000.0001)                       cg2d_iters =    22
(PID.TID 0000.0001)                         cg2d_res =    4.19530944058582E-14
(PID.TID 0000.0001) // =======================================================
(PID.TID 0000.0001) // Begin MONITOR dynamic field statistics
(PID.TID 0000.0001) // =======================================================
(PID.TID 0000.0001) %MON time_tsnumber                =                     6
(PID.TID 0000.0001) %MON time_secondsf                =   2.5920000000000E+05
(PID.TID 0000.0001) %MON dynstat_eta_max              =   1.3405964245636E+00
(PID.TID 0000.0001) %MON dynstat_eta_min              =  -6.8312115075254E-01
(PID.TID 0000.0001) %MON dynstat_eta_mean             =  -1.1263123692976E-05
(PID.TID 0000.0001) %MON dynstat_eta_sd               =   1.9318920847671E-01
(PID.TID 0000.0001) %MON dynstat_eta_del2             =   2.2353116717980E-02
(PID.TID 0000.0001) %MON dynstat_uvel_max             =   1.6711954454171E-01
(PID.TID 0000.0001) %MON dynstat_uvel_min             =  -2.7732226040538E-01
(PID.TID 0000.0001) %MON dynstat_uvel_mean            =  -4.2366592335178E-03
(PID.TID 0000.0001) %MON dynstat_uvel_sd              =   7.5558588278589E-03
(PID.TID 0000.0001) %MON dynstat_uvel_del2            =   1.6540531148576E-03
(PID.TID 0000.0001) %MON dynstat_vvel_max             =   2.5005040459676E-01
(PID.TID 0000.0001) %MON dynstat_vvel_min             =  -3.6152203548363E-01
(PID.TID 0000.0001) %MON dynstat_vvel_mean            =   4.5970505283608E-03
(PID.TID 0000.0001) %MON dynstat_vvel_sd              =   1.4219721309293E-02
(PID.TID 0000.0001) %MON dynstat_vvel_del2            =   2.2473414435039E-03
(PID.TID 0000.0001) %MON dynstat_wvel_max             =   1.1616891419776E-03
(PID.TID 0000.0001) %MON dynstat_wvel_min             =  -7.0756499973569E-04
(PID.TID 0000.0001) %MON dynstat_wvel_mean            =   2.4992717425376E-22
(PID.TID 0000.0001) %MON dynstat_wvel_sd              =   4.4705569706534E-05
(PID.TID 0000.0001) %MON dynstat_wvel_del2            =   1.0553518610740E-05
(PID.TID 0000.0001) %MON dynstat_theta_max            =   2.7941903402091E+01
(PID.TID 0000.0001) %MON dynstat_theta_min            =  -1.8543273279521E+00
(PID.TID 0000.0001) %MON dynstat_theta_mean           =   3.4211416122991E+00
(PID.TID 0000.0001) %MON dynstat_theta_sd             =   4.0496615180594E+00
(PID.TID 0000.0001) %MON dynstat_theta_del2           =   1.3118714869188E-01
(PID.TID 0000.0001) %MON dynstat_salt_max             =   3.7434874183973E+01
(PID.TID 0000.0001) %MON dynstat_salt_min             =   3.1025151911297E+01
(PID.TID 0000.0001) %MON dynstat_salt_mean            =   3.4714478101169E+01
(PID.TID 0000.0001) %MON dynstat_salt_sd              =   2.7649600878395E-01
(PID.TID 0000.0001) %MON dynstat_salt_del2            =   2.1777886605965E-02
(PID.TID 0000.0001) %MON advcfl_uvel_max              =   2.7355221015290E-02
(PID.TID 0000.0001) %MON advcfl_vvel_max              =   3.5118966689052E-02
(PID.TID 0000.0001) %MON advcfl_wvel_max              =   2.4363139330409E-01
(PID.TID 0000.0001) %MON advcfl_W_hf_max              =   2.4228214059224E-01
(PID.TID 0000.0001) %MON pe_b_mean                    =   4.3300500329081E-05
(PID.TID 0000.0001) %MON ke_max                       =   3.8942285419558E-02
(PID.TID 0000.0001) %MON ke_mean                      =   1.3625470450143E-04
(PID.TID 0000.0001) %MON ke_vol                       =   1.4101703507225E+18
(PID.TID 0000.0001) %MON vort_r_min                   =  -8.2193986683106E-07
(PID.TID 0000.0001) %MON vort_r_max                   =   8.5047129968527E-07
(PID.TID 0000.0001) %MON vort_a_mean                  =  -1.9922043059712E-05
(PID.TID 0000.0001) %MON vort_a_sd                    =   7.3516488477140E-05
(PID.TID 0000.0001) %MON vort_p_mean                  =  -2.3665444248068E-05
(PID.TID 0000.0001) %MON vort_p_sd                    =   1.0341270588932E-04
(PID.TID 0000.0001) %MON surfExpan_theta_mean         =   1.6309536941156E-04
(PID.TID 0000.0001) %MON surfExpan_salt_mean          =   1.4126256087055E-05
(PID.TID 0000.0001) // =======================================================
(PID.TID 0000.0001) // End MONITOR dynamic field statistics
(PID.TID 0000.0001) // =======================================================
 ph-ebm a   3571.741
 ph-ebm b   278.145436
 SH  4.99544196  22.1314887
 NH  9.82446651  24.2906044
 SH  4.99544196  22.1314887
 NH  9.82446651  24.2906044
 cg2d: Sum(rhs),rhsMax =   2.65939446051200E-02  2.23248100778262E+01
(PID.TID 0000.0001)                    cg2d_init_res =    7.57364689509088E-01
(PID.TID 0000.0001)                       cg2d_iters =    22
(PID.TID 0000.0001)                         cg2d_res =    4.31155506028269E-14
(PID.TID 0000.0001) // =======================================================
(PID.TID 0000.0001) // Begin MONITOR dynamic field statistics
(PID.TID 0000.0001) // =======================================================
(PID.TID 0000.0001) %MON time_tsnumber                =                     7
(PID.TID 0000.0001) %MON time_secondsf                =   3.0240000000000E+05
(PID.TID 0000.0001) %MON dynstat_eta_max              =   1.2594981001668E+00
(PID.TID 0000.0001) %MON dynstat_eta_min              =  -7.4766936244302E-01
(PID.TID 0000.0001) %MON dynstat_eta_mean             =  -1.3140310975194E-05
(PID.TID 0000.0001) %MON dynstat_eta_sd               =   2.2264029586901E-01
(PID.TID 0000.0001) %MON dynstat_eta_del2             =   2.1517101418998E-02
(PID.TID 0000.0001) %MON dynstat_uvel_max             =   1.9355472133164E-01
(PID.TID 0000.0001) %MON dynstat_uvel_min             =  -3.1517179001537E-01
(PID.TID 0000.0001) %MON dynstat_uvel_mean            =  -5.1880783980021E-03
(PID.TID 0000.0001) %MON dynstat_uvel_sd              =   8.9573633787301E-03
(PID.TID 0000.0001) %MON dynstat_uvel_del2            =   1.8584975610800E-03
(PID.TID 0000.0001) %MON dynstat_vvel_max             =   2.8761955276120E-01
(PID.TID 0000.0001) %MON dynstat_vvel_min             =  -4.1457619614172E-01
(PID.TID 0000.0001) %MON dynstat_vvel_mean            =   4.9413517284290E-03
(PID.TID 0000.0001) %MON dynstat_vvel_sd              =   1.5342863903323E-02
(PID.TID 0000.0001) %MON dynstat_vvel_del2            =   2.4898933524817E-03
(PID.TID 0000.0001) %MON dynstat_wvel_max             =   1.3333333308758E-03
(PID.TID 0000.0001) %MON dynstat_wvel_min             =  -8.3951361829209E-04
(PID.TID 0000.0001) %MON dynstat_wvel_mean            =   2.2604425777978E-22
(PID.TID 0000.0001) %MON dynstat_wvel_sd              =   4.9087054463045E-05
(PID.TID 0000.0001) %MON dynstat_wvel_del2            =   1.1691173392149E-05
(PID.TID 0000.0001) %MON dynstat_theta_max            =   2.7889943733127E+01
(PID.TID 0000.0001) %MON dynstat_theta_min            =  -1.8549470480145E+00
(PID.TID 0000.0001) %MON dynstat_theta_mean           =   3.4176233316442E+00
(PID.TID 0000.0001) %MON dynstat_theta_sd             =   4.0382875077731E+00
(PID.TID 0000.0001) %MON dynstat_theta_del2           =   1.3074869176153E-01
(PID.TID 0000.0001) %MON dynstat_salt_max             =   3.7432919147690E+01
(PID.TID 0000.0001) %MON dynstat_salt_min             =   3.1020185360028E+01
(PID.TID 0000.0001) %MON dynstat_salt_mean            =   3.4714330005920E+01
(PID.TID 0000.0001) %MON dynstat_salt_sd              =   2.7652376648170E-01
(PID.TID 0000.0001) %MON dynstat_salt_del2            =   2.1729696690584E-02
(PID.TID 0000.0001) %MON advcfl_uvel_max              =   3.1088719531754E-02
(PID.TID 0000.0001) %MON advcfl_vvel_max              =   4.0272752953766E-02
(PID.TID 0000.0001) %MON advcfl_wvel_max              =   2.0823634913661E-01
(PID.TID 0000.0001) %MON advcfl_W_hf_max              =   2.0773306431998E-01
(PID.TID 0000.0001) %MON pe_b_mean                    =   5.7508856112015E-05
(PID.TID 0000.0001) %MON ke_max                       =   5.0827777191090E-02
(PID.TID 0000.0001) %MON ke_mean                      =   1.6767881387354E-04
(PID.TID 0000.0001) %MON ke_vol                       =   1.4101703507225E+18
(PID.TID 0000.0001) %MON vort_r_min                   =  -9.3208956594202E-07
(PID.TID 0000.0001) %MON vort_r_max                   =   9.7546408273337E-07
(PID.TID 0000.0001) %MON vort_a_mean                  =  -1.9922043059712E-05
(PID.TID 0000.0001) %MON vort_a_sd                    =   7.3516300902481E-05
(PID.TID 0000.0001) %MON vort_p_mean                  =  -2.3665444248068E-05
(PID.TID 0000.0001) %MON vort_p_sd                    =   1.0341226239407E-04
(PID.TID 0000.0001) %MON surfExpan_theta_mean         =   1.6736423596709E-04
(PID.TID 0000.0001) %MON surfExpan_salt_mean          =   1.4220362002888E-05
(PID.TID 0000.0001) // =======================================================
(PID.TID 0000.0001) // End MONITOR dynamic field statistics
(PID.TID 0000.0001) // =======================================================
 ph-ebm a   3549.18326
 ph-ebm b   278.113887
 SH  4.96389266  21.9398232
 NH  9.72640248  24.0876161
 SH  4.96389266  21.9398232
 NH  9.72640248  24.0876161
 cg2d: Sum(rhs),rhsMax =   3.24447989162268E-02  2.09130508208322E+01
(PID.TID 0000.0001)                    cg2d_init_res =    7.79537220111944E-01
(PID.TID 0000.0001)                       cg2d_iters =    22
(PID.TID 0000.0001)                         cg2d_res =    4.42421087792606E-14
(PID.TID 0000.0001) // =======================================================
(PID.TID 0000.0001) // Begin MONITOR dynamic field statistics
(PID.TID 0000.0001) // =======================================================
(PID.TID 0000.0001) %MON time_tsnumber                =                     8
(PID.TID 0000.0001) %MON time_secondsf                =   3.4560000000000E+05
(PID.TID 0000.0001) %MON dynstat_eta_max              =   1.1802083690462E+00
(PID.TID 0000.0001) %MON dynstat_eta_min              =  -8.4797127317322E-01
(PID.TID 0000.0001) %MON dynstat_eta_mean             =  -1.5017498257424E-05
(PID.TID 0000.0001) %MON dynstat_eta_sd               =   2.5077981491700E-01
(PID.TID 0000.0001) %MON dynstat_eta_del2             =   2.0815398108076E-02
(PID.TID 0000.0001) %MON dynstat_uvel_max             =   2.1700137191809E-01
(PID.TID 0000.0001) %MON dynstat_uvel_min             =  -3.5289883673828E-01
(PID.TID 0000.0001) %MON dynstat_uvel_mean            =  -6.1129984362781E-03
(PID.TID 0000.0001) %MON dynstat_uvel_sd              =   1.0370243698580E-02
(PID.TID 0000.0001) %MON dynstat_uvel_del2            =   2.0480444527008E-03
(PID.TID 0000.0001) %MON dynstat_vvel_max             =   3.2489453386945E-01
(PID.TID 0000.0001) %MON dynstat_vvel_min             =  -4.6635174793056E-01
(PID.TID 0000.0001) %MON dynstat_vvel_mean            =   5.1411393666906E-03
(PID.TID 0000.0001) %MON dynstat_vvel_sd              =   1.6195646803100E-02
(PID.TID 0000.0001) %MON dynstat_vvel_del2            =   2.6945915366694E-03
(PID.TID 0000.0001) %MON dynstat_wvel_max             =   1.5064925715639E-03
(PID.TID 0000.0001) %MON dynstat_wvel_min             =  -9.5501472155041E-04
(PID.TID 0000.0001) %MON dynstat_wvel_mean            =   9.6619270828297E-23
(PID.TID 0000.0001) %MON dynstat_wvel_sd              =   5.3175029666909E-05
(PID.TID 0000.0001) %MON dynstat_wvel_del2            =   1.2621697972905E-05
(PID.TID 0000.0001) %MON dynstat_theta_max            =   2.7863268913600E+01
(PID.TID 0000.0001) %MON dynstat_theta_min            =  -1.8570309729800E+00
(PID.TID 0000.0001) %MON dynstat_theta_mean           =   3.4141073818800E+00
(PID.TID 0000.0001) %MON dynstat_theta_sd             =   4.0269269623861E+00
(PID.TID 0000.0001) %MON dynstat_theta_del2           =   1.3033818245460E-01
(PID.TID 0000.0001) %MON dynstat_salt_max             =   3.7425474181337E+01
(PID.TID 0000.0001) %MON dynstat_salt_min             =   3.1014393097306E+01
(PID.TID 0000.0001) %MON dynstat_salt_mean            =   3.4714184165074E+01
(PID.TID 0000.0001) %MON dynstat_salt_sd              =   2.7654103349795E-01
(PID.TID 0000.0001) %MON dynstat_salt_del2            =   2.1691051961430E-02
(PID.TID 0000.0001) %MON advcfl_uvel_max              =   3.4810136268552E-02
(PID.TID 0000.0001) %MON advcfl_vvel_max              =   4.5302332620043E-02
(PID.TID 0000.0001) %MON advcfl_wvel_max              =   2.1496121427838E-01
(PID.TID 0000.0001) %MON advcfl_W_hf_max              =   2.0922753957339E-01
(PID.TID 0000.0001) %MON pe_b_mean                    =   7.2964623098336E-05
(PID.TID 0000.0001) %MON ke_max                       =   6.4222612398757E-02
(PID.TID 0000.0001) %MON ke_mean                      =   1.9826353074273E-04
(PID.TID 0000.0001) %MON ke_vol                       =   1.4101703507225E+18
(PID.TID 0000.0001) %MON vort_r_min                   =  -1.0425961275145E-06
(PID.TID 0000.0001) %MON vort_r_max                   =   1.0996659074537E-06
(PID.TID 0000.0001) %MON vort_a_mean                  =  -1.9922043059712E-05
(PID.TID 0000.0001) %MON vort_a_sd                    =   7.3516118357705E-05
(PID.TID 0000.0001) %MON vort_p_mean                  =  -2.3665444248068E-05
(PID.TID 0000.0001) %MON vort_p_sd                    =   1.0341184235093E-04
(PID.TID 0000.0001) %MON surfExpan_theta_mean         =   1.6683692209858E-04
(PID.TID 0000.0001) %MON surfExpan_salt_mean          =   1.3861479052704E-05
(PID.TID 0000.0001) // =======================================================
(PID.TID 0000.0001) // End MONITOR dynamic field statistics
(PID.TID 0000.0001) // =======================================================
 ph-ebm a   3528.19454
 ph-ebm b   278.084532
 SH  4.93453781  21.7486121
 NH  9.64043419  23.8865619
 SH  4.93453781  21.7486121
 NH  9.64043419  23.8865619
 cg2d: Sum(rhs),rhsMax =   3.86731977243646E-02  1.97380806242961E+01
(PID.TID 0000.0001)                    cg2d_init_res =    7.91382135415573E-01
(PID.TID 0000.0001)                       cg2d_iters =    22
(PID.TID 0000.0001)                         cg2d_res =    4.52645123023550E-14
(PID.TID 0000.0001) // =======================================================
(PID.TID 0000.0001) // Begin MONITOR dynamic field statistics
(PID.TID 0000.0001) // =======================================================
(PID.TID 0000.0001) %MON time_tsnumber                =                     9
(PID.TID 0000.0001) %MON time_secondsf                =   3.8880000000000E+05
(PID.TID 0000.0001) %MON dynstat_eta_max              =   1.1143766659859E+00
(PID.TID 0000.0001) %MON dynstat_eta_min              =  -9.2019156735739E-01
(PID.TID 0000.0001) %MON dynstat_eta_mean             =  -1.6894685539678E-05
(PID.TID 0000.0001) %MON dynstat_eta_sd               =   2.7710568356598E-01
(PID.TID 0000.0001) %MON dynstat_eta_del2             =   2.0210812928100E-02
(PID.TID 0000.0001) %MON dynstat_uvel_max             =   2.3794396386849E-01
(PID.TID 0000.0001) %MON dynstat_uvel_min             =  -3.8977650763103E-01
(PID.TID 0000.0001) %MON dynstat_uvel_mean            =  -6.9779325133130E-03
(PID.TID 0000.0001) %MON dynstat_uvel_sd              =   1.1764504261272E-02
(PID.TID 0000.0001) %MON dynstat_uvel_del2            =   2.2235818145339E-03
(PID.TID 0000.0001) %MON dynstat_vvel_max             =   3.6114644974314E-01
(PID.TID 0000.0001) %MON dynstat_vvel_min             =  -5.1616312646144E-01
(PID.TID 0000.0001) %MON dynstat_vvel_mean            =   5.2029785086128E-03
(PID.TID 0000.0001) %MON dynstat_vvel_sd              =   1.6817487952118E-02
(PID.TID 0000.0001) %MON dynstat_vvel_del2            =   2.8659356139495E-03
(PID.TID 0000.0001) %MON dynstat_wvel_max             =   1.6768667152579E-03
(PID.TID 0000.0001) %MON dynstat_wvel_min             =  -1.0542296687681E-03
(PID.TID 0000.0001) %MON dynstat_wvel_mean            =   2.0109593239246E-22
(PID.TID 0000.0001) %MON dynstat_wvel_sd              =   5.6893953753588E-05
(PID.TID 0000.0001) %MON dynstat_wvel_del2            =   1.3324269418637E-05
(PID.TID 0000.0001) %MON dynstat_theta_max            =   2.7838687197925E+01
(PID.TID 0000.0001) %MON dynstat_theta_min            =  -1.8976249730621E+00
(PID.TID 0000.0001) %MON dynstat_theta_mean           =   3.4106413517212E+00
(PID.TID 0000.0001) %MON dynstat_theta_sd             =   4.0156455957776E+00
(PID.TID 0000.0001) %MON dynstat_theta_del2           =   1.2999916442069E-01
(PID.TID 0000.0001) %MON dynstat_salt_max             =   3.7321985724570E+01
(PID.TID 0000.0001) %MON dynstat_salt_min             =   3.1008498058637E+01
(PID.TID 0000.0001) %MON dynstat_salt_mean            =   3.4714044794095E+01
(PID.TID 0000.0001) %MON dynstat_salt_sd              =   2.7654793557398E-01
(PID.TID 0000.0001) %MON dynstat_salt_del2            =   2.1681370095094E-02
(PID.TID 0000.0001) %MON advcfl_uvel_max              =   3.8447770104096E-02
(PID.TID 0000.0001) %MON advcfl_vvel_max              =   5.0141108605085E-02
(PID.TID 0000.0001) %MON advcfl_wvel_max              =   2.1296987199540E-01
(PID.TID 0000.0001) %MON advcfl_W_hf_max              =   2.1586777585813E-01
(PID.TID 0000.0001) %MON pe_b_mean                    =   8.9087763299936E-05
(PID.TID 0000.0001) %MON ke_max                       =   7.8821160930829E-02
(PID.TID 0000.0001) %MON ke_mean                      =   2.2736838368848E-04
(PID.TID 0000.0001) %MON ke_vol                       =   1.4101703507225E+18
(PID.TID 0000.0001) %MON vort_r_min                   =  -1.1498304768622E-06
(PID.TID 0000.0001) %MON vort_r_max                   =   1.2212625410000E-06
(PID.TID 0000.0001) %MON vort_a_mean                  =  -1.9922043059712E-05
(PID.TID 0000.0001) %MON vort_a_sd                    =   7.3515946751925E-05
(PID.TID 0000.0001) %MON vort_p_mean                  =  -2.3665444248068E-05
(PID.TID 0000.0001) %MON vort_p_sd                    =   1.0341146461092E-04
(PID.TID 0000.0001) %MON surfExpan_theta_mean         =   1.6229751000519E-04
(PID.TID 0000.0001) %MON surfExpan_salt_mean          =   1.3130587159687E-05
(PID.TID 0000.0001) // =======================================================
(PID.TID 0000.0001) // End MONITOR dynamic field statistics
(PID.TID 0000.0001) // =======================================================
 ph-ebm a   3508.36184
 ph-ebm b   278.056794
 SH  4.90679977  21.5635842
 NH  9.55649961  23.6876487
 SH  4.90679977  21.5635842
 NH  9.55649961  23.6876487
 cg2d: Sum(rhs),rhsMax =   4.50139660514028E-02  1.88419225222765E+01
(PID.TID 0000.0001)                    cg2d_init_res =    7.88608818789910E-01
(PID.TID 0000.0001)                       cg2d_iters =    22
(PID.TID 0000.0001)                         cg2d_res =    4.54155515472275E-14
(PID.TID 0000.0001) // =======================================================
(PID.TID 0000.0001) // Begin MONITOR dynamic field statistics
(PID.TID 0000.0001) // =======================================================
(PID.TID 0000.0001) %MON time_tsnumber                =                    10
(PID.TID 0000.0001) %MON time_secondsf                =   4.3200000000000E+05
(PID.TID 0000.0001) %MON dynstat_eta_max              =   1.1081775120325E+00
(PID.TID 0000.0001) %MON dynstat_eta_min              =  -9.7335238936456E-01
(PID.TID 0000.0001) %MON dynstat_eta_mean             =  -1.8771872821955E-05
(PID.TID 0000.0001) %MON dynstat_eta_sd               =   3.0108895686313E-01
(PID.TID 0000.0001) %MON dynstat_eta_del2             =   1.9759109434752E-02
(PID.TID 0000.0001) %MON dynstat_uvel_max             =   2.5702108826359E-01
(PID.TID 0000.0001) %MON dynstat_uvel_min             =  -4.2495687882025E-01
(PID.TID 0000.0001) %MON dynstat_uvel_mean            =  -7.7545842472942E-03
(PID.TID 0000.0001) %MON dynstat_uvel_sd              =   1.3112517303110E-02
(PID.TID 0000.0001) %MON dynstat_uvel_del2            =   2.3863243709070E-03
(PID.TID 0000.0001) %MON dynstat_vvel_max             =   3.9592656998759E-01
(PID.TID 0000.0001) %MON dynstat_vvel_min             =  -5.6367208102845E-01
(PID.TID 0000.0001) %MON dynstat_vvel_mean            =   5.1413956103796E-03
(PID.TID 0000.0001) %MON dynstat_vvel_sd              =   1.7255663120926E-02
(PID.TID 0000.0001) %MON dynstat_vvel_del2            =   3.0049653996905E-03
(PID.TID 0000.0001) %MON dynstat_wvel_max             =   1.8421305129179E-03
(PID.TID 0000.0001) %MON dynstat_wvel_min             =  -1.1453396790449E-03
(PID.TID 0000.0001) %MON dynstat_wvel_mean            =   1.0876049323654E-22
(PID.TID 0000.0001) %MON dynstat_wvel_sd              =   6.0173152717994E-05
(PID.TID 0000.0001) %MON dynstat_wvel_del2            =   1.3782396102779E-05
(PID.TID 0000.0001) %MON dynstat_theta_max            =   2.7813425936782E+01
(PID.TID 0000.0001) %MON dynstat_theta_min            =  -1.8976279851428E+00
(PID.TID 0000.0001) %MON dynstat_theta_mean           =   3.4072626223095E+00
(PID.TID 0000.0001) %MON dynstat_theta_sd             =   4.0044896200544E+00
(PID.TID 0000.0001) %MON dynstat_theta_del2           =   1.2962431861415E-01
(PID.TID 0000.0001) %MON dynstat_salt_max             =   3.7321767820315E+01
(PID.TID 0000.0001) %MON dynstat_salt_min             =   3.1003244529721E+01
(PID.TID 0000.0001) %MON dynstat_salt_mean            =   3.4713915201914E+01
(PID.TID 0000.0001) %MON dynstat_salt_sd              =   2.7654456933634E-01
(PID.TID 0000.0001) %MON dynstat_salt_del2            =   2.1648436024220E-02
(PID.TID 0000.0001) %MON advcfl_uvel_max              =   4.1917981358953E-02
(PID.TID 0000.0001) %MON advcfl_vvel_max              =   5.4756222565258E-02
(PID.TID 0000.0001) %MON advcfl_wvel_max              =   2.0520719405825E-01
(PID.TID 0000.0001) %MON advcfl_W_hf_max              =   2.3845489551602E-01
(PID.TID 0000.0001) %MON pe_b_mean                    =   1.0517604666759E-04
(PID.TID 0000.0001) %MON ke_max                       =   9.4236839107838E-02
(PID.TID 0000.0001) %MON ke_mean                      =   2.5463384515224E-04
(PID.TID 0000.0001) %MON ke_vol                       =   1.4101703507225E+18
(PID.TID 0000.0001) %MON vort_r_min                   =  -1.2514422915869E-06
(PID.TID 0000.0001) %MON vort_r_max                   =   1.3389949602470E-06
(PID.TID 0000.0001) %MON vort_a_mean                  =  -1.9922043059712E-05
(PID.TID 0000.0001) %MON vort_a_sd                    =   7.3515791067990E-05
(PID.TID 0000.0001) %MON vort_p_mean                  =  -2.3665444248068E-05
(PID.TID 0000.0001) %MON vort_p_sd                    =   1.0341114375425E-04
(PID.TID 0000.0001) %MON surfExpan_theta_mean         =   1.5450467769483E-04
(PID.TID 0000.0001) %MON surfExpan_salt_mean          =   1.2096671444292E-05
(PID.TID 0000.0001) // =======================================================
(PID.TID 0000.0001) // End MONITOR dynamic field statistics
(PID.TID 0000.0001) // =======================================================
 ph-ebm a   3489.68963
 ph-ebm b   278.030679
 SH  4.8806848  21.3840252
 NH  9.47331304  23.4964979
 SH  4.8806848  21.3840252
 NH  9.47331304  23.4964979
 cg2d: Sum(rhs),rhsMax =   5.11905994515182E-02  1.82253116164180E+01
(PID.TID 0000.0001)                    cg2d_init_res =    7.70161724202949E-01
(PID.TID 0000.0001)                       cg2d_iters =    22
(PID.TID 0000.0001)                         cg2d_res =    4.36646317390807E-14
(PID.TID 0000.0001) // =======================================================
(PID.TID 0000.0001) // Begin MONITOR dynamic field statistics
(PID.TID 0000.0001) // =======================================================
(PID.TID 0000.0001) %MON time_tsnumber                =                    11
(PID.TID 0000.0001) %MON time_secondsf                =   4.7520000000000E+05
(PID.TID 0000.0001) %MON dynstat_eta_max              =   1.1272793536797E+00
(PID.TID 0000.0001) %MON dynstat_eta_min              =  -1.0504282854538E+00
(PID.TID 0000.0001) %MON dynstat_eta_mean             =  -2.0649060104240E-05
(PID.TID 0000.0001) %MON dynstat_eta_sd               =   3.2223063961946E-01
(PID.TID 0000.0001) %MON dynstat_eta_del2             =   1.9364621140078E-02
(PID.TID 0000.0001) %MON dynstat_uvel_max             =   2.7455814038792E-01
(PID.TID 0000.0001) %MON dynstat_uvel_min             =  -4.5790893650065E-01
(PID.TID 0000.0001) %MON dynstat_uvel_mean            =  -8.4206397220174E-03
(PID.TID 0000.0001) %MON dynstat_uvel_sd              =   1.4390839061396E-02
(PID.TID 0000.0001) %MON dynstat_uvel_del2            =   2.5343453675097E-03
(PID.TID 0000.0001) %MON dynstat_vvel_max             =   4.2903679300999E-01
(PID.TID 0000.0001) %MON dynstat_vvel_min             =  -6.0857988854028E-01
(PID.TID 0000.0001) %MON dynstat_vvel_mean            =   4.9769810378340E-03
(PID.TID 0000.0001) %MON dynstat_vvel_sd              =   1.7562176003394E-02
(PID.TID 0000.0001) %MON dynstat_vvel_del2            =   3.1111283919205E-03
(PID.TID 0000.0001) %MON dynstat_wvel_max             =   2.0000858839086E-03
(PID.TID 0000.0001) %MON dynstat_wvel_min             =  -1.2294498258837E-03
(PID.TID 0000.0001) %MON dynstat_wvel_mean            =   3.2348478131211E-22
(PID.TID 0000.0001) %MON dynstat_wvel_sd              =   6.3030041873787E-05
(PID.TID 0000.0001) %MON dynstat_wvel_del2            =   1.4016453430398E-05
(PID.TID 0000.0001) %MON dynstat_theta_max            =   2.7775241730121E+01
(PID.TID 0000.0001) %MON dynstat_theta_min            =  -1.8976856438054E+00
(PID.TID 0000.0001) %MON dynstat_theta_mean           =   3.4039967096006E+00
(PID.TID 0000.0001) %MON dynstat_theta_sd             =   3.9934984785606E+00
(PID.TID 0000.0001) %MON dynstat_theta_del2           =   1.2928590568914E-01
(PID.TID 0000.0001) %MON dynstat_salt_max             =   3.7321812063944E+01
(PID.TID 0000.0001) %MON dynstat_salt_min             =   3.0999279415928E+01
(PID.TID 0000.0001) %MON dynstat_salt_mean            =   3.4713798033433E+01
(PID.TID 0000.0001) %MON dynstat_salt_sd              =   2.7652768833672E-01
(PID.TID 0000.0001) %MON dynstat_salt_del2            =   2.1635439233088E-02
(PID.TID 0000.0001) %MON advcfl_uvel_max              =   4.5168390537929E-02
(PID.TID 0000.0001) %MON advcfl_vvel_max              =   5.9118655947711E-02
(PID.TID 0000.0001) %MON advcfl_wvel_max              =   2.2333148756080E-01
(PID.TID 0000.0001) %MON advcfl_W_hf_max              =   2.6019862556768E-01
(PID.TID 0000.0001) %MON pe_b_mean                    =   1.2046499179005E-04
(PID.TID 0000.0001) %MON ke_max                       =   1.1010931706203E-01
(PID.TID 0000.0001) %MON ke_mean                      =   2.7993585460816E-04
(PID.TID 0000.0001) %MON ke_vol                       =   1.4101703507225E+18
(PID.TID 0000.0001) %MON vort_r_min                   =  -1.3459532866116E-06
(PID.TID 0000.0001) %MON vort_r_max                   =   1.4519308357213E-06
(PID.TID 0000.0001) %MON vort_a_mean                  =  -1.9922043059712E-05
(PID.TID 0000.0001) %MON vort_a_sd                    =   7.3515655302092E-05
(PID.TID 0000.0001) %MON vort_p_mean                  =  -2.3665444248068E-05
(PID.TID 0000.0001) %MON vort_p_sd                    =   1.0341088981888E-04
(PID.TID 0000.0001) %MON surfExpan_theta_mean         =   1.4416847272160E-04
(PID.TID 0000.0001) %MON surfExpan_salt_mean          =   1.0826466422403E-05
(PID.TID 0000.0001) // =======================================================
(PID.TID 0000.0001) // End MONITOR dynamic field statistics
(PID.TID 0000.0001) // =======================================================
 ph-ebm a   3471.50645
 ph-ebm b   278.005248
 SH  4.85525377  21.2150904
 NH  9.38479972  23.3123365
 SH  4.85525377  21.2150904
 NH  9.38479972  23.3123365
 cg2d: Sum(rhs),rhsMax =   5.70337614772461E-02  1.78452124943748E+01
(PID.TID 0000.0001)                    cg2d_init_res =    7.40696804356462E-01
(PID.TID 0000.0001)                       cg2d_iters =    22
(PID.TID 0000.0001)                         cg2d_res =    3.93830262268180E-14
(PID.TID 0000.0001) // =======================================================
(PID.TID 0000.0001) // Begin MONITOR dynamic field statistics
(PID.TID 0000.0001) // =======================================================
(PID.TID 0000.0001) %MON time_tsnumber                =                    12
(PID.TID 0000.0001) %MON time_secondsf                =   5.1840000000000E+05
(PID.TID 0000.0001) %MON dynstat_eta_max              =   1.1447933321691E+00
(PID.TID 0000.0001) %MON dynstat_eta_min              =  -1.1099034008541E+00
(PID.TID 0000.0001) %MON dynstat_eta_mean             =  -2.2526247386508E-05
(PID.TID 0000.0001) %MON dynstat_eta_sd               =   3.4013374579778E-01
(PID.TID 0000.0001) %MON dynstat_eta_del2             =   1.8960130271733E-02
(PID.TID 0000.0001) %MON dynstat_uvel_max             =   2.9062454752733E-01
(PID.TID 0000.0001) %MON dynstat_uvel_min             =  -4.8841266216802E-01
(PID.TID 0000.0001) %MON dynstat_uvel_mean            =  -8.9599659934845E-03
(PID.TID 0000.0001) %MON dynstat_uvel_sd              =   1.5581508795250E-02
(PID.TID 0000.0001) %MON dynstat_uvel_del2            =   2.6664425562019E-03
(PID.TID 0000.0001) %MON dynstat_vvel_max             =   4.6035674430947E-01
(PID.TID 0000.0001) %MON dynstat_vvel_min             =  -6.5061293177092E-01
(PID.TID 0000.0001) %MON dynstat_vvel_mean            =   4.7338685693321E-03
(PID.TID 0000.0001) %MON dynstat_vvel_sd              =   1.7788618300361E-02
(PID.TID 0000.0001) %MON dynstat_vvel_del2            =   3.1862732080872E-03
(PID.TID 0000.0001) %MON dynstat_wvel_max             =   2.1487489872510E-03
(PID.TID 0000.0001) %MON dynstat_wvel_min             =  -1.3065696057058E-03
(PID.TID 0000.0001) %MON dynstat_wvel_mean            =   2.2595547370367E-22
(PID.TID 0000.0001) %MON dynstat_wvel_sd              =   6.5547985373124E-05
(PID.TID 0000.0001) %MON dynstat_wvel_del2            =   1.4067242905560E-05
(PID.TID 0000.0001) %MON dynstat_theta_max            =   2.7745864576294E+01
(PID.TID 0000.0001) %MON dynstat_theta_min            =  -1.8977455565029E+00
(PID.TID 0000.0001) %MON dynstat_theta_mean           =   3.4008629367020E+00
(PID.TID 0000.0001) %MON dynstat_theta_sd             =   3.9827000965871E+00
(PID.TID 0000.0001) %MON dynstat_theta_del2           =   1.2905403190374E-01
(PID.TID 0000.0001) %MON dynstat_salt_max             =   3.7322278373761E+01
(PID.TID 0000.0001) %MON dynstat_salt_min             =   3.0997073336292E+01
(PID.TID 0000.0001) %MON dynstat_salt_mean            =   3.4713695254488E+01
(PID.TID 0000.0001) %MON dynstat_salt_sd              =   2.7649642581386E-01
(PID.TID 0000.0001) %MON dynstat_salt_del2            =   2.1639699813731E-02
(PID.TID 0000.0001) %MON advcfl_uvel_max              =   4.8177294894185E-02
(PID.TID 0000.0001) %MON advcfl_vvel_max              =   6.3201829033085E-02
(PID.TID 0000.0001) %MON advcfl_wvel_max              =   2.4039928017813E-01
(PID.TID 0000.0001) %MON advcfl_W_hf_max              =   2.8066008962826E-01
(PID.TID 0000.0001) %MON pe_b_mean                    =   1.3422290451273E-04
(PID.TID 0000.0001) %MON ke_max                       =   1.2612587626795E-01
(PID.TID 0000.0001) %MON ke_mean                      =   3.0330512890551E-04
(PID.TID 0000.0001) %MON ke_vol                       =   1.4101703507225E+18
(PID.TID 0000.0001) %MON vort_r_min                   =  -1.4322873419737E-06
(PID.TID 0000.0001) %MON vort_r_max                   =   1.5592876285881E-06
(PID.TID 0000.0001) %MON vort_a_mean                  =  -1.9922043059712E-05
(PID.TID 0000.0001) %MON vort_a_sd                    =   7.3515542481513E-05
(PID.TID 0000.0001) %MON vort_p_mean                  =  -2.3665444248068E-05
(PID.TID 0000.0001) %MON vort_p_sd                    =   1.0341070848599E-04
(PID.TID 0000.0001) %MON surfExpan_theta_mean         =   1.3190902619476E-04
(PID.TID 0000.0001) %MON surfExpan_salt_mean          =   9.3867464582258E-06
(PID.TID 0000.0001) // =======================================================
(PID.TID 0000.0001) // End MONITOR dynamic field statistics
(PID.TID 0000.0001) // =======================================================
 ph-ebm a   3453.34759
 ph-ebm b   277.979851
 SH  4.82985677  21.0545161
 NH  9.29724212  23.1342707
 SH  4.82985677  21.0545161
 NH  9.29724212  23.1342707
 cg2d: Sum(rhs),rhsMax =   6.25267603339444E-02  1.76339626921615E+01
(PID.TID 0000.0001)                    cg2d_init_res =    7.10321852996063E-01
(PID.TID 0000.0001)                       cg2d_iters =    22
(PID.TID 0000.0001)                         cg2d_res =    3.24177180740946E-14
(PID.TID 0000.0001) // =======================================================
(PID.TID 0000.0001) // Begin MONITOR dynamic field statistics
(PID.TID 0000.0001) // =======================================================
(PID.TID 0000.0001) %MON time_tsnumber                =                    13
(PID.TID 0000.0001) %MON time_secondsf                =   5.6160000000000E+05
(PID.TID 0000.0001) %MON dynstat_eta_max              =   1.1965666212552E+00
(PID.TID 0000.0001) %MON dynstat_eta_min              =  -1.1407148535706E+00
(PID.TID 0000.0001) %MON dynstat_eta_mean             =  -2.4403434668743E-05
(PID.TID 0000.0001) %MON dynstat_eta_sd               =   3.5457044887727E-01
(PID.TID 0000.0001) %MON dynstat_eta_del2             =   1.8524966649052E-02
(PID.TID 0000.0001) %MON dynstat_uvel_max             =   3.0523895068613E-01
(PID.TID 0000.0001) %MON dynstat_uvel_min             =  -5.1633810933271E-01
(PID.TID 0000.0001) %MON dynstat_uvel_mean            =  -9.3623795924291E-03
(PID.TID 0000.0001) %MON dynstat_uvel_sd              =   1.6672298539096E-02
(PID.TID 0000.0001) %MON dynstat_uvel_del2            =   2.7832517211704E-03
(PID.TID 0000.0001) %MON dynstat_vvel_max             =   4.8972348913471E-01
(PID.TID 0000.0001) %MON dynstat_vvel_min             =  -6.8950941796606E-01
(PID.TID 0000.0001) %MON dynstat_vvel_mean            =   4.4373444052698E-03
(PID.TID 0000.0001) %MON dynstat_vvel_sd              =   1.7979264678351E-02
(PID.TID 0000.0001) %MON dynstat_vvel_del2            =   3.2331654935351E-03
(PID.TID 0000.0001) %MON dynstat_wvel_max             =   2.2866577328030E-03
(PID.TID 0000.0001) %MON dynstat_wvel_min             =  -1.3769773639345E-03
(PID.TID 0000.0001) %MON dynstat_wvel_mean            =   2.4539918637208E-22
(PID.TID 0000.0001) %MON dynstat_wvel_sd              =   6.7792934314662E-05
(PID.TID 0000.0001) %MON dynstat_wvel_del2            =   1.3974104852877E-05
(PID.TID 0000.0001) %MON dynstat_theta_max            =   2.7641135397432E+01
(PID.TID 0000.0001) %MON dynstat_theta_min            =  -1.8978021361946E+00
(PID.TID 0000.0001) %MON dynstat_theta_mean           =   3.3978768701236E+00
(PID.TID 0000.0001) %MON dynstat_theta_sd             =   3.9721144270604E+00
(PID.TID 0000.0001) %MON dynstat_theta_del2           =   1.2878959792906E-01
(PID.TID 0000.0001) %MON dynstat_salt_max             =   3.7322969474561E+01
(PID.TID 0000.0001) %MON dynstat_salt_min             =   3.0996888553744E+01
(PID.TID 0000.0001) %MON dynstat_salt_mean            =   3.4713608177083E+01
(PID.TID 0000.0001) %MON dynstat_salt_sd              =   2.7644385364605E-01
(PID.TID 0000.0001) %MON dynstat_salt_del2            =   2.1654147907632E-02
(PID.TID 0000.0001) %MON advcfl_uvel_max              =   5.0931876434175E-02
(PID.TID 0000.0001) %MON advcfl_vvel_max              =   6.6980310754624E-02
(PID.TID 0000.0001) %MON advcfl_wvel_max              =   2.5621694716605E-01
(PID.TID 0000.0001) %MON advcfl_W_hf_max              =   2.9955905033543E-01
(PID.TID 0000.0001) %MON pe_b_mean                    =   1.4585867473057E-04
(PID.TID 0000.0001) %MON ke_max                       =   1.4197934714717E-01
(PID.TID 0000.0001) %MON ke_mean                      =   3.2481495297271E-04
(PID.TID 0000.0001) %MON ke_vol                       =   1.4101703507225E+18
(PID.TID 0000.0001) %MON vort_r_min                   =  -1.5095980892329E-06
(PID.TID 0000.0001) %MON vort_r_max                   =   1.6603229526400E-06
(PID.TID 0000.0001) %MON vort_a_mean                  =  -1.9922043059712E-05
(PID.TID 0000.0001) %MON vort_a_sd                    =   7.3515454723778E-05
(PID.TID 0000.0001) %MON vort_p_mean                  =  -2.3665444248068E-05
(PID.TID 0000.0001) %MON vort_p_sd                    =   1.0341060163619E-04
(PID.TID 0000.0001) %MON surfExpan_theta_mean         =   1.1819475988977E-04
(PID.TID 0000.0001) %MON surfExpan_salt_mean          =   7.8181637319150E-06
(PID.TID 0000.0001) // =======================================================
(PID.TID 0000.0001) // End MONITOR dynamic field statistics
(PID.TID 0000.0001) // =======================================================
 ph-ebm a   3435.10612
 ph-ebm b   277.954338
 SH  4.80434423  20.8967209
 NH  9.22082678  22.9629403
 SH  4.80434423  20.8967209
 NH  9.22082678  22.9629403
 cg2d: Sum(rhs),rhsMax =   6.77469114192412E-02  1.75271388789548E+01
(PID.TID 0000.0001)                    cg2d_init_res =    6.89158351876298E-01
(PID.TID 0000.0001)                       cg2d_iters =    21
(PID.TID 0000.0001)                         cg2d_res =    9.85026475767079E-14
(PID.TID 0000.0001) // =======================================================
(PID.TID 0000.0001) // Begin MONITOR dynamic field statistics
(PID.TID 0000.0001) // =======================================================
(PID.TID 0000.0001) %MON time_tsnumber                =                    14
(PID.TID 0000.0001) %MON time_secondsf                =   6.0480000000000E+05
(PID.TID 0000.0001) %MON dynstat_eta_max              =   1.2182568996421E+00
(PID.TID 0000.0001) %MON dynstat_eta_min              =  -1.1452442629993E+00
(PID.TID 0000.0001) %MON dynstat_eta_mean             =  -2.6280621950872E-05
(PID.TID 0000.0001) %MON dynstat_eta_sd               =   3.6551882684836E-01
(PID.TID 0000.0001) %MON dynstat_eta_del2             =   1.8078757807791E-02
(PID.TID 0000.0001) %MON dynstat_uvel_max             =   3.1841903713046E-01
(PID.TID 0000.0001) %MON dynstat_uvel_min             =  -5.4156525269839E-01
(PID.TID 0000.0001) %MON dynstat_uvel_mean            =  -9.6233016014140E-03
(PID.TID 0000.0001) %MON dynstat_uvel_sd              =   1.7656141213268E-02
(PID.TID 0000.0001) %MON dynstat_uvel_del2            =   2.8847019731335E-03
(PID.TID 0000.0001) %MON dynstat_vvel_max             =   5.1695285696844E-01
(PID.TID 0000.0001) %MON dynstat_vvel_min             =  -7.2500271363472E-01
(PID.TID 0000.0001) %MON dynstat_vvel_mean            =   4.1119733153785E-03
(PID.TID 0000.0001) %MON dynstat_vvel_sd              =   1.8165115806991E-02
(PID.TID 0000.0001) %MON dynstat_vvel_del2            =   3.2559713827833E-03
(PID.TID 0000.0001) %MON dynstat_wvel_max             =   2.4126970796548E-03
(PID.TID 0000.0001) %MON dynstat_wvel_min             =  -1.4405862298258E-03
(PID.TID 0000.0001) %MON dynstat_wvel_mean            =  -7.6709441760302E-23
(PID.TID 0000.0001) %MON dynstat_wvel_sd              =   6.9788137523929E-05
(PID.TID 0000.0001) %MON dynstat_wvel_del2            =   1.3768308987579E-05
(PID.TID 0000.0001) %MON dynstat_theta_max            =   2.7599880941157E+01
(PID.TID 0000.0001) %MON dynstat_theta_min            =  -1.8978512494409E+00
(PID.TID 0000.0001) %MON dynstat_theta_mean           =   3.3950502149189E+00
(PID.TID 0000.0001) %MON dynstat_theta_sd             =   3.9617845700568E+00
(PID.TID 0000.0001) %MON dynstat_theta_del2           =   1.2857905360379E-01
(PID.TID 0000.0001) %MON dynstat_salt_max             =   3.7323644033067E+01
(PID.TID 0000.0001) %MON dynstat_salt_min             =   3.0998789666907E+01
(PID.TID 0000.0001) %MON dynstat_salt_mean            =   3.4713537888771E+01
(PID.TID 0000.0001) %MON dynstat_salt_sd              =   2.7638296919071E-01
(PID.TID 0000.0001) %MON dynstat_salt_del2            =   2.1649408215427E-02
(PID.TID 0000.0001) %MON advcfl_uvel_max              =   5.3420295796342E-02
(PID.TID 0000.0001) %MON advcfl_vvel_max              =   7.0428199806822E-02
(PID.TID 0000.0001) %MON advcfl_wvel_max              =   2.7064750793693E-01
(PID.TID 0000.0001) %MON advcfl_W_hf_max              =   3.1673788271426E-01
(PID.TID 0000.0001) %MON pe_b_mean                    =   1.5500535118970E-04
(PID.TID 0000.0001) %MON ke_max                       =   1.5736449923195E-01
(PID.TID 0000.0001) %MON ke_mean                      =   3.4448329901697E-04
(PID.TID 0000.0001) %MON ke_vol                       =   1.4101703507225E+18
(PID.TID 0000.0001) %MON vort_r_min                   =  -1.5772997649155E-06
(PID.TID 0000.0001) %MON vort_r_max                   =   1.7544312512087E-06
(PID.TID 0000.0001) %MON vort_a_mean                  =  -1.9922043059712E-05
(PID.TID 0000.0001) %MON vort_a_sd                    =   7.3515393283756E-05
(PID.TID 0000.0001) %MON vort_p_mean                  =  -2.3665444248068E-05
(PID.TID 0000.0001) %MON vort_p_sd                    =   1.0341056718301E-04
(PID.TID 0000.0001) %MON surfExpan_theta_mean         =   1.0363009024008E-04
(PID.TID 0000.0001) %MON surfExpan_salt_mean          =   6.2135687517859E-06
(PID.TID 0000.0001) // =======================================================
(PID.TID 0000.0001) // End MONITOR dynamic field statistics
(PID.TID 0000.0001) // =======================================================
 ph-ebm a   3416.5311
 ph-ebm b   277.928359
 SH  4.77836518  20.7487555
 NH  9.14167019  22.7968563
 SH  4.77836518  20.7487555
 NH  9.14167019  22.7968563
 cg2d: Sum(rhs),rhsMax =   7.28823230335946E-02  1.74558718519004E+01
(PID.TID 0000.0001)                    cg2d_init_res =    6.82621089746868E-01
(PID.TID 0000.0001)                       cg2d_iters =    21
(PID.TID 0000.0001)                         cg2d_res =    9.20939752489427E-14
(PID.TID 0000.0001) // =======================================================
(PID.TID 0000.0001) // Begin MONITOR dynamic field statistics
(PID.TID 0000.0001) // =======================================================
(PID.TID 0000.0001) %MON time_tsnumber                =                    15
(PID.TID 0000.0001) %MON time_secondsf                =   6.4800000000000E+05
(PID.TID 0000.0001) %MON dynstat_eta_max              =   1.2124810984272E+00
(PID.TID 0000.0001) %MON dynstat_eta_min              =  -1.1283003189463E+00
(PID.TID 0000.0001) %MON dynstat_eta_mean             =  -2.8157809233257E-05
(PID.TID 0000.0001) %MON dynstat_eta_sd               =   3.7315651892110E-01
(PID.TID 0000.0001) %MON dynstat_eta_del2             =   1.7647347359142E-02
(PID.TID 0000.0001) %MON dynstat_uvel_max             =   3.3102083635154E-01
(PID.TID 0000.0001) %MON dynstat_uvel_min             =  -5.6401907190251E-01
(PID.TID 0000.0001) %MON dynstat_uvel_mean            =  -9.7431197790040E-03
(PID.TID 0000.0001) %MON dynstat_uvel_sd              =   1.8530773496936E-02
(PID.TID 0000.0001) %MON dynstat_uvel_del2            =   2.9697417266962E-03
(PID.TID 0000.0001) %MON dynstat_vvel_max             =   5.4194086200798E-01
(PID.TID 0000.0001) %MON dynstat_vvel_min             =  -7.5679242991486E-01
(PID.TID 0000.0001) %MON dynstat_vvel_mean            =   3.7803410180947E-03
(PID.TID 0000.0001) %MON dynstat_vvel_sd              =   1.8361537763538E-02
(PID.TID 0000.0001) %MON dynstat_vvel_del2            =   3.2535335403074E-03
(PID.TID 0000.0001) %MON dynstat_wvel_max             =   2.5259016907771E-03
(PID.TID 0000.0001) %MON dynstat_wvel_min             =  -1.4968208853734E-03
(PID.TID 0000.0001) %MON dynstat_wvel_mean            =   2.2240411065921E-23
(PID.TID 0000.0001) %MON dynstat_wvel_sd              =   7.1532945919909E-05
(PID.TID 0000.0001) %MON dynstat_wvel_del2            =   1.3456856474919E-05
(PID.TID 0000.0001) %MON dynstat_theta_max            =   2.7293181543579E+01
(PID.TID 0000.0001) %MON dynstat_theta_min            =  -1.8979863607160E+00
(PID.TID 0000.0001) %MON dynstat_theta_mean           =   3.3923877740418E+00
(PID.TID 0000.0001) %MON dynstat_theta_sd             =   3.9517266801368E+00
(PID.TID 0000.0001) %MON dynstat_theta_del2           =   1.2840771711755E-01
(PID.TID 0000.0001) %MON dynstat_salt_max             =   3.7324115285869E+01
(PID.TID 0000.0001) %MON dynstat_salt_min             =   3.1002682849963E+01
(PID.TID 0000.0001) %MON dynstat_salt_mean            =   3.4713484170307E+01
(PID.TID 0000.0001) %MON dynstat_salt_sd              =   2.7629352165657E-01
(PID.TID 0000.0001) %MON dynstat_salt_del2            =   2.1648129648239E-02
(PID.TID 0000.0001) %MON advcfl_uvel_max              =   5.5635152930667E-02
(PID.TID 0000.0001) %MON advcfl_vvel_max              =   7.3516315820561E-02
(PID.TID 0000.0001) %MON advcfl_wvel_max              =   2.8357216879999E-01
(PID.TID 0000.0001) %MON advcfl_W_hf_max              =   3.3205101758098E-01
(PID.TID 0000.0001) %MON pe_b_mean                    =   1.6155085294819E-04
(PID.TID 0000.0001) %MON ke_max                       =   1.7201655956649E-01
(PID.TID 0000.0001) %MON ke_mean                      =   3.6223853727268E-04
(PID.TID 0000.0001) %MON ke_vol                       =   1.4101703507225E+18
(PID.TID 0000.0001) %MON vort_r_min                   =  -1.6350245887640E-06
(PID.TID 0000.0001) %MON vort_r_max                   =   1.8412896988143E-06
(PID.TID 0000.0001) %MON vort_a_mean                  =  -1.9922043059712E-05
(PID.TID 0000.0001) %MON vort_a_sd                    =   7.3515358625752E-05
(PID.TID 0000.0001) %MON vort_p_mean                  =  -2.3665444248068E-05
(PID.TID 0000.0001) %MON vort_p_sd                    =   1.0341059938408E-04
(PID.TID 0000.0001) %MON surfExpan_theta_mean         =   8.8689507395842E-05
(PID.TID 0000.0001) %MON surfExpan_salt_mean          =   4.6366884105125E-06
(PID.TID 0000.0001) // =======================================================
(PID.TID 0000.0001) // End MONITOR dynamic field statistics
(PID.TID 0000.0001) // =======================================================
 ph-ebm a   3398.2558
 ph-ebm b   277.902799
 SH  4.75280531  20.6146187
 NH  9.05926585  22.6371949
 SH  4.75280531  20.6146187
 NH  9.05926585  22.6371949
 cg2d: Sum(rhs),rhsMax =   7.81675329507612E-02  1.73606535347755E+01
(PID.TID 0000.0001)                    cg2d_init_res =    6.89975483366225E-01
(PID.TID 0000.0001)                       cg2d_iters =    22
(PID.TID 0000.0001)                         cg2d_res =    2.48556666899681E-14
(PID.TID 0000.0001) // =======================================================
(PID.TID 0000.0001) // Begin MONITOR dynamic field statistics
(PID.TID 0000.0001) // =======================================================
(PID.TID 0000.0001) %MON time_tsnumber                =                    16
(PID.TID 0000.0001) %MON time_secondsf                =   6.9120000000000E+05
(PID.TID 0000.0001) %MON dynstat_eta_max              =   1.1832742089070E+00
(PID.TID 0000.0001) %MON dynstat_eta_min              =  -1.1292215660323E+00
(PID.TID 0000.0001) %MON dynstat_eta_mean             =  -3.0034996515427E-05
(PID.TID 0000.0001) %MON dynstat_eta_sd               =   3.7782256691221E-01
(PID.TID 0000.0001) %MON dynstat_eta_del2             =   1.7331520785209E-02
(PID.TID 0000.0001) %MON dynstat_uvel_max             =   3.4265286995350E-01
(PID.TID 0000.0001) %MON dynstat_uvel_min             =  -5.8366807717646E-01
(PID.TID 0000.0001) %MON dynstat_uvel_mean            =  -9.7267086401115E-03
(PID.TID 0000.0001) %MON dynstat_uvel_sd              =   1.9296997327699E-02
(PID.TID 0000.0001) %MON dynstat_uvel_del2            =   3.0399376871471E-03
(PID.TID 0000.0001) %MON dynstat_vvel_max             =   5.6469006277225E-01
(PID.TID 0000.0001) %MON dynstat_vvel_min             =  -7.8453796631988E-01
(PID.TID 0000.0001) %MON dynstat_vvel_mean            =   3.4619926933068E-03
(PID.TID 0000.0001) %MON dynstat_vvel_sd              =   1.8568930161939E-02
(PID.TID 0000.0001) %MON dynstat_vvel_del2            =   3.2283479755475E-03
(PID.TID 0000.0001) %MON dynstat_wvel_max             =   2.6252320558722E-03
(PID.TID 0000.0001) %MON dynstat_wvel_min             =  -1.5445422918441E-03
(PID.TID 0000.0001) %MON dynstat_wvel_mean            =  -4.1950475962665E-23
(PID.TID 0000.0001) %MON dynstat_wvel_sd              =   7.3015204504203E-05
(PID.TID 0000.0001) %MON dynstat_wvel_del2            =   1.3061023219424E-05
(PID.TID 0000.0001) %MON dynstat_theta_max            =   2.7207941253658E+01
(PID.TID 0000.0001) %MON dynstat_theta_min            =  -1.8981488001251E+00
(PID.TID 0000.0001) %MON dynstat_theta_mean           =   3.3898894091896E+00
(PID.TID 0000.0001) %MON dynstat_theta_sd             =   3.9419647756037E+00
(PID.TID 0000.0001) %MON dynstat_theta_del2           =   1.2813161487354E-01
(PID.TID 0000.0001) %MON dynstat_salt_max             =   3.7324274315164E+01
(PID.TID 0000.0001) %MON dynstat_salt_min             =   3.1008365679163E+01
(PID.TID 0000.0001) %MON dynstat_salt_mean            =   3.4713446305049E+01
(PID.TID 0000.0001) %MON dynstat_salt_sd              =   2.7620612584672E-01
(PID.TID 0000.0001) %MON dynstat_salt_del2            =   2.1662181670506E-02
(PID.TID 0000.0001) %MON advcfl_uvel_max              =   5.7573341668974E-02
(PID.TID 0000.0001) %MON advcfl_vvel_max              =   7.6211572189856E-02
(PID.TID 0000.0001) %MON advcfl_wvel_max              =   2.9486264029343E-01
(PID.TID 0000.0001) %MON advcfl_W_hf_max              =   3.4534168829160E-01
(PID.TID 0000.0001) %MON pe_b_mean                    =   1.6561626194635E-04
(PID.TID 0000.0001) %MON ke_max                       =   1.8572604074215E-01
(PID.TID 0000.0001) %MON ke_mean                      =   3.7790681582064E-04
(PID.TID 0000.0001) %MON ke_vol                       =   1.4101703507225E+18
(PID.TID 0000.0001) %MON vort_r_min                   =  -1.6825326741798E-06
(PID.TID 0000.0001) %MON vort_r_max                   =   1.9208475674541E-06
(PID.TID 0000.0001) %MON vort_a_mean                  =  -1.9922043059712E-05
(PID.TID 0000.0001) %MON vort_a_sd                    =   7.3515350454078E-05
(PID.TID 0000.0001) %MON vort_p_mean                  =  -2.3665444248068E-05
(PID.TID 0000.0001) %MON vort_p_sd                    =   1.0341068914187E-04
(PID.TID 0000.0001) %MON surfExpan_theta_mean         =   7.3657869456071E-05
(PID.TID 0000.0001) %MON surfExpan_salt_mean          =   3.0978373994022E-06
(PID.TID 0000.0001) // =======================================================
(PID.TID 0000.0001) // End MONITOR dynamic field statistics
(PID.TID 0000.0001) // =======================================================
 ph-ebm a   3379.46845
 ph-ebm b   277.876523
 SH  4.72652931  20.4828013
 NH  8.97892315  22.4858249
 SH  4.72652931  20.4828013
 NH  8.97892315  22.4858249
 cg2d: Sum(rhs),rhsMax =   8.38666015159907E-02  1.71922362088839E+01
(PID.TID 0000.0001)                    cg2d_init_res =    7.07138920401667E-01
(PID.TID 0000.0001)                       cg2d_iters =    22
(PID.TID 0000.0001)                         cg2d_res =    2.44029294282000E-14
(PID.TID 0000.0001) // =======================================================
(PID.TID 0000.0001) // Begin MONITOR dynamic field statistics
(PID.TID 0000.0001) // =======================================================
(PID.TID 0000.0001) %MON time_tsnumber                =                    17
(PID.TID 0000.0001) %MON time_secondsf                =   7.3440000000000E+05
(PID.TID 0000.0001) %MON dynstat_eta_max              =   1.1351826792727E+00
(PID.TID 0000.0001) %MON dynstat_eta_min              =  -1.1355157498124E+00
(PID.TID 0000.0001) %MON dynstat_eta_mean             =  -3.1912183797566E-05
(PID.TID 0000.0001) %MON dynstat_eta_sd               =   3.7996116136258E-01
(PID.TID 0000.0001) %MON dynstat_eta_del2             =   1.7091033900745E-02
(PID.TID 0000.0001) %MON dynstat_uvel_max             =   3.5255976134869E-01
(PID.TID 0000.0001) %MON dynstat_uvel_min             =  -6.0050579874228E-01
(PID.TID 0000.0001) %MON dynstat_uvel_mean            =  -9.5826516861972E-03
(PID.TID 0000.0001) %MON dynstat_uvel_sd              =   1.9958358926982E-02
(PID.TID 0000.0001) %MON dynstat_uvel_del2            =   3.0992158923691E-03
(PID.TID 0000.0001) %MON dynstat_vvel_max             =   5.8530490928954E-01
(PID.TID 0000.0001) %MON dynstat_vvel_min             =  -8.0792619437861E-01
(PID.TID 0000.0001) %MON dynstat_vvel_mean            =   3.1730067568645E-03
(PID.TID 0000.0001) %MON dynstat_vvel_sd              =   1.8778031861106E-02
(PID.TID 0000.0001) %MON dynstat_vvel_del2            =   3.1853151342886E-03
(PID.TID 0000.0001) %MON dynstat_wvel_max             =   2.7099486135740E-03
(PID.TID 0000.0001) %MON dynstat_wvel_min             =  -1.5822752233776E-03
(PID.TID 0000.0001) %MON dynstat_wvel_mean            =  -1.9754456934800E-23
(PID.TID 0000.0001) %MON dynstat_wvel_sd              =   7.4218806875915E-05
(PID.TID 0000.0001) %MON dynstat_wvel_del2            =   1.2604091188453E-05
(PID.TID 0000.0001) %MON dynstat_theta_max            =   2.6973408097814E+01
(PID.TID 0000.0001) %MON dynstat_theta_min            =  -1.8982759718625E+00
(PID.TID 0000.0001) %MON dynstat_theta_mean           =   3.3875542017613E+00
(PID.TID 0000.0001) %MON dynstat_theta_sd             =   3.9325289495069E+00
(PID.TID 0000.0001) %MON dynstat_theta_del2           =   1.2800073178527E-01
(PID.TID 0000.0001) %MON dynstat_salt_max             =   3.7324094117914E+01
(PID.TID 0000.0001) %MON dynstat_salt_min             =   3.1015573322355E+01
(PID.TID 0000.0001) %MON dynstat_salt_mean            =   3.4713423890679E+01
(PID.TID 0000.0001) %MON dynstat_salt_sd              =   2.7609996944838E-01
(PID.TID 0000.0001) %MON dynstat_salt_del2            =   2.1707003959519E-02
(PID.TID 0000.0001) %MON advcfl_uvel_max              =   5.9234223828789E-02
(PID.TID 0000.0001) %MON advcfl_vvel_max              =   7.8483550994721E-02
(PID.TID 0000.0001) %MON advcfl_wvel_max              =   3.0443205770261E-01
(PID.TID 0000.0001) %MON advcfl_W_hf_max              =   3.5650506177228E-01
(PID.TID 0000.0001) %MON pe_b_mean                    =   1.6749644844190E-04
(PID.TID 0000.0001) %MON ke_max                       =   1.9834372120308E-01
(PID.TID 0000.0001) %MON ke_mean                      =   3.9128818527997E-04
(PID.TID 0000.0001) %MON ke_vol                       =   1.4101703507225E+18
(PID.TID 0000.0001) %MON vort_r_min                   =  -1.7197648066348E-06
(PID.TID 0000.0001) %MON vort_r_max                   =   1.9933425854255E-06
(PID.TID 0000.0001) %MON vort_a_mean                  =  -1.9922043059712E-05
(PID.TID 0000.0001) %MON vort_a_sd                    =   7.3515367778324E-05
(PID.TID 0000.0001) %MON vort_p_mean                  =  -2.3665444248068E-05
(PID.TID 0000.0001) %MON vort_p_sd                    =   1.0341082593034E-04
(PID.TID 0000.0001) %MON surfExpan_theta_mean         =   5.9061364975301E-05
(PID.TID 0000.0001) %MON surfExpan_salt_mean          =   1.6768368215068E-06
(PID.TID 0000.0001) // =======================================================
(PID.TID 0000.0001) // End MONITOR dynamic field statistics
(PID.TID 0000.0001) // =======================================================
 ph-ebm a   3360.9444
 ph-ebm b   277.850615
 SH  4.70062154  20.3633313
 NH  8.90145585  22.3467973
 SH  4.70062154  20.3633313
 NH  8.90145585  22.3467973
 cg2d: Sum(rhs),rhsMax =   9.03437669075816E-02  1.68984473597982E+01
(PID.TID 0000.0001)                    cg2d_init_res =    7.30309312508816E-01
(PID.TID 0000.0001)                       cg2d_iters =    22
(PID.TID 0000.0001)                         cg2d_res =    2.43208385775670E-14
(PID.TID 0000.0001) // =======================================================
(PID.TID 0000.0001) // Begin MONITOR dynamic field statistics
(PID.TID 0000.0001) // =======================================================
(PID.TID 0000.0001) %MON time_tsnumber                =                    18
(PID.TID 0000.0001) %MON time_secondsf                =   7.7760000000000E+05
(PID.TID 0000.0001) %MON dynstat_eta_max              =   1.1135715491052E+00
(PID.TID 0000.0001) %MON dynstat_eta_min              =  -1.1349340155914E+00
(PID.TID 0000.0001) %MON dynstat_eta_mean             =  -3.3789371079725E-05
(PID.TID 0000.0001) %MON dynstat_eta_sd               =   3.8006292047612E-01
(PID.TID 0000.0001) %MON dynstat_eta_del2             =   1.6868592508105E-02
(PID.TID 0000.0001) %MON dynstat_uvel_max             =   3.6092525574277E-01
(PID.TID 0000.0001) %MON dynstat_uvel_min             =  -6.1452059487767E-01
(PID.TID 0000.0001) %MON dynstat_uvel_mean            =  -9.3227875761173E-03
(PID.TID 0000.0001) %MON dynstat_uvel_sd              =   2.0520433628556E-02
(PID.TID 0000.0001) %MON dynstat_uvel_del2            =   3.1507114506070E-03
(PID.TID 0000.0001) %MON dynstat_vvel_max             =   6.0391594010986E-01
(PID.TID 0000.0001) %MON dynstat_vvel_min             =  -8.2676823041362E-01
(PID.TID 0000.0001) %MON dynstat_vvel_mean            =   2.9258341475428E-03
(PID.TID 0000.0001) %MON dynstat_vvel_sd              =   1.8976115045118E-02
(PID.TID 0000.0001) %MON dynstat_vvel_del2            =   3.1299023717095E-03
(PID.TID 0000.0001) %MON dynstat_wvel_max             =   2.7801143157182E-03
(PID.TID 0000.0001) %MON dynstat_wvel_min             =  -1.6086846272163E-03
(PID.TID 0000.0001) %MON dynstat_wvel_mean            =  -2.4952764591126E-22
(PID.TID 0000.0001) %MON dynstat_wvel_sd              =   7.5134770091304E-05
(PID.TID 0000.0001) %MON dynstat_wvel_del2            =   1.2112263722841E-05
(PID.TID 0000.0001) %MON dynstat_theta_max            =   2.6731643974484E+01
(PID.TID 0000.0001) %MON dynstat_theta_min            =  -1.8983726858613E+00
(PID.TID 0000.0001) %MON dynstat_theta_mean           =   3.3853734785223E+00
(PID.TID 0000.0001) %MON dynstat_theta_sd             =   3.9234256794571E+00
(PID.TID 0000.0001) %MON dynstat_theta_del2           =   1.2776012277359E-01
(PID.TID 0000.0001) %MON dynstat_salt_max             =   3.7323616190349E+01
(PID.TID 0000.0001) %MON dynstat_salt_min             =   3.1024013943828E+01
(PID.TID 0000.0001) %MON dynstat_salt_mean            =   3.4713415146128E+01
(PID.TID 0000.0001) %MON dynstat_salt_sd              =   2.7599723835175E-01
(PID.TID 0000.0001) %MON dynstat_salt_del2            =   2.1698968337867E-02
(PID.TID 0000.0001) %MON advcfl_uvel_max              =   6.0616651064191E-02
(PID.TID 0000.0001) %MON advcfl_vvel_max              =   8.0313903700558E-02
(PID.TID 0000.0001) %MON advcfl_wvel_max              =   3.1230691130682E-01
(PID.TID 0000.0001) %MON advcfl_W_hf_max              =   3.6561612729124E-01
(PID.TID 0000.0001) %MON pe_b_mean                    =   1.6758617655765E-04
(PID.TID 0000.0001) %MON ke_max                       =   2.0976143155875E-01
(PID.TID 0000.0001) %MON ke_mean                      =   4.0223997114708E-04
(PID.TID 0000.0001) %MON ke_vol                       =   1.4101703507225E+18
(PID.TID 0000.0001) %MON vort_r_min                   =  -1.7469375711949E-06
(PID.TID 0000.0001) %MON vort_r_max                   =   2.0592199613329E-06
(PID.TID 0000.0001) %MON vort_a_mean                  =  -1.9922043059712E-05
(PID.TID 0000.0001) %MON vort_a_sd                    =   7.3515408946960E-05
(PID.TID 0000.0001) %MON vort_p_mean                  =  -2.3665444248068E-05
(PID.TID 0000.0001) %MON vort_p_sd                    =   1.0341099787965E-04
(PID.TID 0000.0001) %MON surfExpan_theta_mean         =   4.5065442086251E-05
(PID.TID 0000.0001) %MON surfExpan_salt_mean          =   3.3539294303185E-07
(PID.TID 0000.0001) // =======================================================
(PID.TID 0000.0001) // End MONITOR dynamic field statistics
(PID.TID 0000.0001) // =======================================================
 ph-ebm a   3343.42439
 ph-ebm b   277.826112
 SH  4.67611803  20.2534523
 NH  8.83630026  22.2052762
 SH  4.67611803  20.2534523
 NH  8.83630026  22.2052762
 cg2d: Sum(rhs),rhsMax =   9.78509846287272E-02  1.64687597326572E+01
(PID.TID 0000.0001)                    cg2d_init_res =    7.55605763572406E-01
(PID.TID 0000.0001)                       cg2d_iters =    22
(PID.TID 0000.0001)                         cg2d_res =    2.83754602648175E-14
(PID.TID 0000.0001) // =======================================================
(PID.TID 0000.0001) // Begin MONITOR dynamic field statistics
(PID.TID 0000.0001) // =======================================================
(PID.TID 0000.0001) %MON time_tsnumber                =                    19
(PID.TID 0000.0001) %MON time_secondsf                =   8.2080000000000E+05
(PID.TID 0000.0001) %MON dynstat_eta_max              =   1.1139286300191E+00
(PID.TID 0000.0001) %MON dynstat_eta_min              =  -1.1275214698362E+00
(PID.TID 0000.0001) %MON dynstat_eta_mean             =  -3.5666558361878E-05
(PID.TID 0000.0001) %MON dynstat_eta_sd               =   3.7861602825452E-01
(PID.TID 0000.0001) %MON dynstat_eta_del2             =   1.6686957433072E-02
(PID.TID 0000.0001) %MON dynstat_uvel_max             =   3.6786570096848E-01
(PID.TID 0000.0001) %MON dynstat_uvel_min             =  -6.2569466072991E-01
(PID.TID 0000.0001) %MON dynstat_uvel_mean            =  -8.9613583148685E-03
(PID.TID 0000.0001) %MON dynstat_uvel_sd              =   2.0987967814326E-02
(PID.TID 0000.0001) %MON dynstat_uvel_del2            =   3.1977687522932E-03
(PID.TID 0000.0001) %MON dynstat_vvel_max             =   6.2062530068582E-01
(PID.TID 0000.0001) %MON dynstat_vvel_min             =  -8.4097482446861E-01
(PID.TID 0000.0001) %MON dynstat_vvel_mean            =   2.7293317688259E-03
(PID.TID 0000.0001) %MON dynstat_vvel_sd              =   1.9150012432497E-02
(PID.TID 0000.0001) %MON dynstat_vvel_del2            =   3.0686031134565E-03
(PID.TID 0000.0001) %MON dynstat_wvel_max             =   2.8360189431600E-03
(PID.TID 0000.0001) %MON dynstat_wvel_min             =  -1.6226966412629E-03
(PID.TID 0000.0001) %MON dynstat_wvel_mean            =  -1.0818339674182E-22
(PID.TID 0000.0001) %MON dynstat_wvel_sd              =   7.5764960458838E-05
(PID.TID 0000.0001) %MON dynstat_wvel_del2            =   1.1613299466013E-05
(PID.TID 0000.0001) %MON dynstat_theta_max            =   2.6465106524866E+01
(PID.TID 0000.0001) %MON dynstat_theta_min            =  -1.8984434004951E+00
(PID.TID 0000.0001) %MON dynstat_theta_mean           =   3.3833393709923E+00
(PID.TID 0000.0001) %MON dynstat_theta_sd             =   3.9146930585510E+00
(PID.TID 0000.0001) %MON dynstat_theta_del2           =   1.2764904610605E-01
(PID.TID 0000.0001) %MON dynstat_salt_max             =   3.7322928331276E+01
(PID.TID 0000.0001) %MON dynstat_salt_min             =   3.1033391975993E+01
(PID.TID 0000.0001) %MON dynstat_salt_mean            =   3.4713419531442E+01
(PID.TID 0000.0001) %MON dynstat_salt_sd              =   2.7590015354929E-01
(PID.TID 0000.0001) %MON dynstat_salt_del2            =   2.1690580395202E-02
(PID.TID 0000.0001) %MON advcfl_uvel_max              =   6.1718867094670E-02
(PID.TID 0000.0001) %MON advcfl_vvel_max              =   8.1693960389814E-02
(PID.TID 0000.0001) %MON advcfl_wvel_max              =   3.1853769277854E-01
(PID.TID 0000.0001) %MON advcfl_W_hf_max              =   3.7277798652958E-01
(PID.TID 0000.0001) %MON pe_b_mean                    =   1.6631261086675E-04
(PID.TID 0000.0001) %MON ke_max                       =   2.1988499759464E-01
(PID.TID 0000.0001) %MON ke_mean                      =   4.1065891166724E-04
(PID.TID 0000.0001) %MON ke_vol                       =   1.4101703507225E+18
(PID.TID 0000.0001) %MON vort_r_min                   =  -1.7644034202811E-06
(PID.TID 0000.0001) %MON vort_r_max                   =   2.1188494773039E-06
(PID.TID 0000.0001) %MON vort_a_mean                  =  -1.9922043059712E-05
(PID.TID 0000.0001) %MON vort_a_sd                    =   7.3515471747476E-05
(PID.TID 0000.0001) %MON vort_p_mean                  =  -2.3665444248068E-05
(PID.TID 0000.0001) %MON vort_p_sd                    =   1.0341119386858E-04
(PID.TID 0000.0001) %MON surfExpan_theta_mean         =   3.2058368866633E-05
(PID.TID 0000.0001) %MON surfExpan_salt_mean          =  -8.8266608082250E-07
(PID.TID 0000.0001) // =======================================================
(PID.TID 0000.0001) // End MONITOR dynamic field statistics
(PID.TID 0000.0001) // =======================================================
 ph-ebm a   3326.15037
 ph-ebm b   277.801952
 SH  4.65195856  20.152822
 NH  8.7633172  22.06359
 SH  4.65195856  20.152822
 NH  8.7633172  22.06359
 cg2d: Sum(rhs),rhsMax =   1.06534548241278E-01  1.59225279454205E+01
(PID.TID 0000.0001)                    cg2d_init_res =    7.80034770177193E-01
(PID.TID 0000.0001)                       cg2d_iters =    22
(PID.TID 0000.0001)                         cg2d_res =    3.18917560187380E-14
(PID.TID 0000.0001) // =======================================================
(PID.TID 0000.0001) // Begin MONITOR dynamic field statistics
(PID.TID 0000.0001) // =======================================================
(PID.TID 0000.0001) %MON time_tsnumber                =                    20
(PID.TID 0000.0001) %MON time_secondsf                =   8.6400000000000E+05
(PID.TID 0000.0001) %MON dynstat_eta_max              =   1.1075610931054E+00
(PID.TID 0000.0001) %MON dynstat_eta_min              =  -1.1035546890484E+00
(PID.TID 0000.0001) %MON dynstat_eta_mean             =  -3.7543745644020E-05
(PID.TID 0000.0001) %MON dynstat_eta_sd               =   3.7606882573448E-01
(PID.TID 0000.0001) %MON dynstat_eta_del2             =   1.6544780669170E-02
(PID.TID 0000.0001) %MON dynstat_uvel_max             =   3.7341059571543E-01
(PID.TID 0000.0001) %MON dynstat_uvel_min             =  -6.3402722731670E-01
(PID.TID 0000.0001) %MON dynstat_uvel_mean            =  -8.5144711644338E-03
(PID.TID 0000.0001) %MON dynstat_uvel_sd              =   2.1365044517176E-02
(PID.TID 0000.0001) %MON dynstat_uvel_del2            =   3.2453512529368E-03
(PID.TID 0000.0001) %MON dynstat_vvel_max             =   6.3549159527429E-01
(PID.TID 0000.0001) %MON dynstat_vvel_min             =  -8.5056218389765E-01
(PID.TID 0000.0001) %MON dynstat_vvel_mean            =   2.5890178721301E-03
(PID.TID 0000.0001) %MON dynstat_vvel_sd              =   1.9290687341903E-02
(PID.TID 0000.0001) %MON dynstat_vvel_del2            =   3.0099143731284E-03
(PID.TID 0000.0001) %MON dynstat_wvel_max             =   2.8780681917453E-03
(PID.TID 0000.0001) %MON dynstat_wvel_min             =  -1.6237054553222E-03
(PID.TID 0000.0001) %MON dynstat_wvel_mean            =   9.4111120678149E-24
(PID.TID 0000.0001) %MON dynstat_wvel_sd              =   7.6119538979858E-05
(PID.TID 0000.0001) %MON dynstat_wvel_del2            =   1.1144965579061E-05
(PID.TID 0000.0001) %MON dynstat_theta_max            =   2.6368564664829E+01
(PID.TID 0000.0001) %MON dynstat_theta_min            =  -1.8984918276612E+00
(PID.TID 0000.0001) %MON dynstat_theta_mean           =   3.3814397717937E+00
(PID.TID 0000.0001) %MON dynstat_theta_sd             =   3.9063301463250E+00
(PID.TID 0000.0001) %MON dynstat_theta_del2           =   1.2751774939181E-01
(PID.TID 0000.0001) %MON dynstat_salt_max             =   3.7322138131048E+01
(PID.TID 0000.0001) %MON dynstat_salt_min             =   3.1043420667350E+01
(PID.TID 0000.0001) %MON dynstat_salt_mean            =   3.4713435528528E+01
(PID.TID 0000.0001) %MON dynstat_salt_sd              =   2.7579943690972E-01
(PID.TID 0000.0001) %MON dynstat_salt_del2            =   2.1605135604291E-02
(PID.TID 0000.0001) %MON advcfl_uvel_max              =   6.2540796067386E-02
(PID.TID 0000.0001) %MON advcfl_vvel_max              =   8.2625295476965E-02
(PID.TID 0000.0001) %MON advcfl_wvel_max              =   3.2318019481855E-01
(PID.TID 0000.0001) %MON advcfl_W_hf_max              =   3.7808560702532E-01
(PID.TID 0000.0001) %MON pe_b_mean                    =   1.6408234691110E-04
(PID.TID 0000.0001) %MON ke_max                       =   2.2862936420447E-01
(PID.TID 0000.0001) %MON ke_mean                      =   4.1654694118320E-04
(PID.TID 0000.0001) %MON ke_vol                       =   1.4101703507225E+18
(PID.TID 0000.0001) %MON vort_r_min                   =  -1.7726152335458E-06
(PID.TID 0000.0001) %MON vort_r_max                   =   2.1724268279496E-06
(PID.TID 0000.0001) %MON vort_a_mean                  =  -1.9922043059712E-05
(PID.TID 0000.0001) %MON vort_a_sd                    =   7.3515553492276E-05
(PID.TID 0000.0001) %MON vort_p_mean                  =  -2.3665444248068E-05
(PID.TID 0000.0001) %MON vort_p_sd                    =   1.0341140297711E-04
(PID.TID 0000.0001) %MON surfExpan_theta_mean         =   2.0388077759465E-05
(PID.TID 0000.0001) %MON surfExpan_salt_mean          =  -1.9331525135716E-06
(PID.TID 0000.0001) // =======================================================
(PID.TID 0000.0001) // End MONITOR dynamic field statistics
(PID.TID 0000.0001) // =======================================================
(PID.TID 0000.0001) // Time-average data written, t-step        20
(PID.TID 0000.0001) 
(PID.TID 0000.0001) %CHECKPOINT        20 ckptA
(PID.TID 0000.0001)   Seconds in section "ALL                    [THE_MODEL_MAIN]":
(PID.TID 0000.0001)           User time:  5.33000015
(PID.TID 0000.0001)         System time:  1.04999994
(PID.TID 0000.0001)     Wall clock time:  41.9404259
(PID.TID 0000.0001)          No. starts: 1
(PID.TID 0000.0001)           No. stops: 1
(PID.TID 0000.0001)   Seconds in section "INITIALISE_FIXED       [THE_MODEL_MAIN]":
(PID.TID 0000.0001)           User time:  0.0800000038
(PID.TID 0000.0001)         System time:  0.140000006
(PID.TID 0000.0001)     Wall clock time:  3.09158897
(PID.TID 0000.0001)          No. starts: 1
(PID.TID 0000.0001)           No. stops: 1
(PID.TID 0000.0001)   Seconds in section "THE_MAIN_LOOP          [THE_MODEL_MAIN]":
(PID.TID 0000.0001)           User time:  5.08000007
(PID.TID 0000.0001)         System time:  0.619999975
(PID.TID 0000.0001)     Wall clock time:  24.3615921
(PID.TID 0000.0001)          No. starts: 1
(PID.TID 0000.0001)           No. stops: 1
(PID.TID 0000.0001)   Seconds in section "INITIALISE_VARIA    [THE_MAIN_LOOP]":
(PID.TID 0000.0001)           User time:  0.0600000024
(PID.TID 0000.0001)         System time:  0.0300000012
(PID.TID 0000.0001)     Wall clock time:  0.435137987
(PID.TID 0000.0001)          No. starts: 1
(PID.TID 0000.0001)           No. stops: 1
(PID.TID 0000.0001)   Seconds in section "MONITOR             [THE_MAIN_LOOP]":
(PID.TID 0000.0001)           User time:  0.0300000012
(PID.TID 0000.0001)         System time:  0.
(PID.TID 0000.0001)     Wall clock time:  0.0252268314
(PID.TID 0000.0001)          No. starts: 1
(PID.TID 0000.0001)           No. stops: 1
(PID.TID 0000.0001)   Seconds in section "DO_THE_MODEL_IO     [THE_MAIN_LOOP]":
(PID.TID 0000.0001)           User time:  0.049999997
(PID.TID 0000.0001)         System time:  0.120000005
(PID.TID 0000.0001)     Wall clock time:  2.38540006
(PID.TID 0000.0001)          No. starts: 1
(PID.TID 0000.0001)           No. stops: 1
(PID.TID 0000.0001)   Seconds in section "MAIN LOOP           [THE_MAIN_LOOP]":
(PID.TID 0000.0001)           User time:  4.94000007
(PID.TID 0000.0001)         System time:  0.469999969
(PID.TID 0000.0001)     Wall clock time:  21.5157111
(PID.TID 0000.0001)          No. starts: 1
(PID.TID 0000.0001)           No. stops: 1
(PID.TID 0000.0001)   Seconds in section "FORWARD_STEP        [THE_MAIN_LOOP]":
(PID.TID 0000.0001)           User time:  4.94000007
(PID.TID 0000.0001)         System time:  0.469999969
(PID.TID 0000.0001)     Wall clock time:  21.5152719
(PID.TID 0000.0001)          No. starts: 20
(PID.TID 0000.0001)           No. stops: 20
(PID.TID 0000.0001)   Seconds in section "EBM                [FORWARD_STEP]":
(PID.TID 0000.0001)           User time:  0.029999733
(PID.TID 0000.0001)         System time:  0.
(PID.TID 0000.0001)     Wall clock time:  0.0204071999
(PID.TID 0000.0001)          No. starts: 20
(PID.TID 0000.0001)           No. stops: 20
(PID.TID 0000.0001)   Seconds in section "THERMODYNAMICS      [FORWARD_STEP]":
(PID.TID 0000.0001)           User time:  1.76999955
(PID.TID 0000.0001)         System time:  0.00999999046
(PID.TID 0000.0001)     Wall clock time:  1.78626919
(PID.TID 0000.0001)          No. starts: 20
(PID.TID 0000.0001)           No. stops: 20
(PID.TID 0000.0001)   Seconds in section "BLOCKING_EXCHANGES  [FORWARD_STEP]":
(PID.TID 0000.0001)           User time:  0.0600004196
(PID.TID 0000.0001)         System time:  0.
(PID.TID 0000.0001)     Wall clock time:  0.0594482422
(PID.TID 0000.0001)          No. starts: 40
(PID.TID 0000.0001)           No. stops: 40
(PID.TID 0000.0001)   Seconds in section "DYNAMICS            [FORWARD_STEP]":
(PID.TID 0000.0001)           User time:  1.6300011
(PID.TID 0000.0001)         System time:  0.
(PID.TID 0000.0001)     Wall clock time:  1.6181109
(PID.TID 0000.0001)          No. starts: 20
(PID.TID 0000.0001)           No. stops: 20
(PID.TID 0000.0001)   Seconds in section "SOLVE_FOR_PRESSURE  [FORWARD_STEP]":
(PID.TID 0000.0001)           User time:  0.19999969
(PID.TID 0000.0001)         System time:  0.
(PID.TID 0000.0001)     Wall clock time:  0.203110933
(PID.TID 0000.0001)          No. starts: 20
(PID.TID 0000.0001)           No. stops: 20
(PID.TID 0000.0001)   Seconds in section "THE_CORRECTION_STEP [FORWARD_STEP]":
(PID.TID 0000.0001)           User time:  0.430000037
(PID.TID 0000.0001)         System time:  0.
(PID.TID 0000.0001)     Wall clock time:  0.423341036
(PID.TID 0000.0001)          No. starts: 20
(PID.TID 0000.0001)           No. stops: 20
(PID.TID 0000.0001)   Seconds in section "MONITOR             [FORWARD_STEP]":
(PID.TID 0000.0001)           User time:  0.499999374
(PID.TID 0000.0001)         System time:  0.
(PID.TID 0000.0001)     Wall clock time:  0.51591897
(PID.TID 0000.0001)          No. starts: 20
(PID.TID 0000.0001)           No. stops: 20
(PID.TID 0000.0001)   Seconds in section "DO_THE_MODEL_IO     [FORWARD_STEP]":
(PID.TID 0000.0001)           User time:  0.320000172
(PID.TID 0000.0001)         System time:  0.459999979
(PID.TID 0000.0001)     Wall clock time:  16.8833051
(PID.TID 0000.0001)          No. starts: 20
(PID.TID 0000.0001)           No. stops: 20
(PID.TID 0000.0001)   Seconds in section "WRITE_CHECKPOINT    [FORWARD_STEP]":
(PID.TID 0000.0001)           User time:  0.
(PID.TID 0000.0001)         System time:  0.
(PID.TID 0000.0001)     Wall clock time:  0.000443696976
(PID.TID 0000.0001)          No. starts: 20
(PID.TID 0000.0001)           No. stops: 20
(PID.TID 0000.0001)   Seconds in section "WRITE_CHECKPOINT       [THE_MODEL_MAIN]":
(PID.TID 0000.0001)           User time:  0.170000076
(PID.TID 0000.0001)         System time:  0.289999962
(PID.TID 0000.0001)     Wall clock time:  14.4871321
(PID.TID 0000.0001)          No. starts: 1
(PID.TID 0000.0001)           No. stops: 1
(PID.TID 0000.0001) // ======================================================
(PID.TID 0000.0001) // Tile <-> Tile communication statistics
(PID.TID 0000.0001) // ======================================================
(PID.TID 0000.0001) // o Tile number: 000001
(PID.TID 0000.0001) //         No. X exchanges =              0
(PID.TID 0000.0001) //            Max. X spins =              0
(PID.TID 0000.0001) //            Min. X spins =     1000000000
(PID.TID 0000.0001) //          Total. X spins =              0
(PID.TID 0000.0001) //            STOP NORMAL END statement executed
Avg. X spins =       0.00E+00
(PID.TID 0000.0001) //         No. Y exchanges =              0
(PID.TID 0000.0001) //            Max. Y spins =              0
(PID.TID 0000.0001) //            Min. Y spins =     1000000000
(PID.TID 0000.0001) //          Total. Y spins =              0
(PID.TID 0000.0001) //            Avg. Y spins =       0.00E+00
(PID.TID 0000.0001) // o Tile number: 000002
(PID.TID 0000.0001) //         No. X exchanges =              0
(PID.TID 0000.0001) //            Max. X spins =              0
(PID.TID 0000.0001) //            Min. X spins =     1000000000
(PID.TID 0000.0001) //          Total. X spins =              0
(PID.TID 0000.0001) //            Avg. X spins =       0.00E+00
(PID.TID 0000.0001) //         No. Y exchanges =              0
(PID.TID 0000.0001) //            Max. Y spins =              0
(PID.TID 0000.0001) //            Min. Y spins =     1000000000
(PID.TID 0000.0001) //          Total. Y spins =              0
(PID.TID 0000.0001) //            Avg. Y spins =       0.00E+00
(PID.TID 0000.0001) // o Thread number: 000001
(PID.TID 0000.0001) //            No. barriers =          20786
(PID.TID 0000.0001) //      Max. barrier spins =              1
(PID.TID 0000.0001) //      Min. barrier spins =              1
(PID.TID 0000.0001) //     Total barrier spins =          20786
(PID.TID 0000.0001) //      Avg. barrier spins =       1.00E+00
