(PID.TID 0000.0001) 
(PID.TID 0000.0001) // ======================================================
(PID.TID 0000.0001) //                      MITgcm UV
(PID.TID 0000.0001) //                      =========
(PID.TID 0000.0001) // ======================================================
(PID.TID 0000.0001) // execution environment starting up...
(PID.TID 0000.0001) 
(PID.TID 0000.0001) // MITgcmUV version:  checkpoint61t
(PID.TID 0000.0001) // Build user:        jmc
(PID.TID 0000.0001) // Build host:        faulks
(PID.TID 0000.0001) // Build date:        Thu Aug  6 10:34:29 EDT 2009
(PID.TID 0000.0001) 
(PID.TID 0000.0001) // =======================================================
(PID.TID 0000.0001) // Execution Environment parameter file "eedata"
(PID.TID 0000.0001) // =======================================================
(PID.TID 0000.0001) ># Example "eedata" file
(PID.TID 0000.0001) ># Lines beginning "#" are comments
(PID.TID 0000.0001) ># nTx - No. threads per process in X
(PID.TID 0000.0001) ># nTy - No. threads per process in Y
(PID.TID 0000.0001) > &EEPARMS
(PID.TID 0000.0001) > nTx=1,
(PID.TID 0000.0001) > nTy=1,
(PID.TID 0000.0001) > &
(PID.TID 0000.0001) ># Note: Some systems use & as the
(PID.TID 0000.0001) ># namelist terminator. Other systems
(PID.TID 0000.0001) ># use a / character (as shown here).
(PID.TID 0000.0001) 
(PID.TID 0000.0001) // =======================================================
(PID.TID 0000.0001) // Computational Grid Specification ( see files "SIZE.h" )
(PID.TID 0000.0001) //                                  ( and "eedata"       )
(PID.TID 0000.0001) // =======================================================
(PID.TID 0000.0001)      nPx =    1 ; /* No. processes in X */
(PID.TID 0000.0001)      nPy =    1 ; /* No. processes in Y */
(PID.TID 0000.0001)      nSx =    2 ; /* No. tiles in X per process */
(PID.TID 0000.0001)      nSy =    1 ; /* No. tiles in Y per process */
(PID.TID 0000.0001)      sNx =   45 ; /* Tile size in X */
(PID.TID 0000.0001)      sNy =   40 ; /* Tile size in Y */
(PID.TID 0000.0001)      OLx =    2 ; /* Tile overlap distance in X */
(PID.TID 0000.0001)      OLy =    2 ; /* Tile overlap distance in Y */
(PID.TID 0000.0001)      nTx =    1 ; /* No. threads in X per process */
(PID.TID 0000.0001)      nTy =    1 ; /* No. threads in Y per process */
(PID.TID 0000.0001)       Nr =   15 ; /* No. levels in the vertical   */
(PID.TID 0000.0001)       Nx =   90 ; /* Total domain size in X ( = nPx*nSx*sNx ) */
(PID.TID 0000.0001)       Ny =   40 ; /* Total domain size in Y ( = nPy*nSy*sNy ) */
(PID.TID 0000.0001)   nTiles =    2 ; /* Total no. tiles per process ( = nSx*nSy ) */
(PID.TID 0000.0001)   nProcs =    1 ; /* Total no. processes ( = nPx*nPy ) */
(PID.TID 0000.0001) nThreads =    1 ; /* Total no. threads per process ( = nTx*nTy ) */
(PID.TID 0000.0001) usingMPI =    F ; /* Flag used to control whether MPI is in use */
(PID.TID 0000.0001)                   /*  note: To execute a program with MPI calls */
(PID.TID 0000.0001)                   /*  it must be launched appropriately e.g     */
(PID.TID 0000.0001)                   /*  "mpirun -np 64 ......"                    */
(PID.TID 0000.0001) useCoupler=    F ;/* Flag used to control communications with   */
(PID.TID 0000.0001)                   /*  other model components, through a coupler */
(PID.TID 0000.0001) printMapIncludesZeros=    F ; /* print zeros in Std.Output maps */
(PID.TID 0000.0001) maxLengthPrt1D=   65 /* maxLength of 1D array printed to StdOut */
(PID.TID 0000.0001) 
(PID.TID 0000.0001) // ======================================================
(PID.TID 0000.0001) // Mapping of tiles to threads
(PID.TID 0000.0001) // ======================================================
(PID.TID 0000.0001) // -o- Thread   1, tiles (   1:   2,   1:   1)
(PID.TID 0000.0001) 
(PID.TID 0000.0001) // ======================================================
(PID.TID 0000.0001) // Tile <-> Tile connectvity table
(PID.TID 0000.0001) // ======================================================
(PID.TID 0000.0001) // Tile number: 000001 (process no. = 000001)
(PID.TID 0000.0001) //        WEST: Tile = 000002, Process = 000001, Comm = put
(PID.TID 0000.0001) //                bi = 000002, bj = 000001
(PID.TID 0000.0001) //        EAST: Tile = 000002, Process = 000001, Comm = put
(PID.TID 0000.0001) //                bi = 000002, bj = 000001
(PID.TID 0000.0001) //       SOUTH: Tile = 000001, Process = 000001, Comm = put
(PID.TID 0000.0001) //                bi = 000001, bj = 000001
(PID.TID 0000.0001) //       NORTH: Tile = 000001, Process = 000001, Comm = put
(PID.TID 0000.0001) //                bi = 000001, bj = 000001
(PID.TID 0000.0001) // Tile number: 000002 (process no. = 000001)
(PID.TID 0000.0001) //        WEST: Tile = 000001, Process = 000001, Comm = put
(PID.TID 0000.0001) //                bi = 000001, bj = 000001
(PID.TID 0000.0001) //        EAST: Tile = 000001, Process = 000001, Comm = put
(PID.TID 0000.0001) //                bi = 000001, bj = 000001
(PID.TID 0000.0001) //       SOUTH: Tile = 000002, Process = 000001, Comm = put
(PID.TID 0000.0001) //                bi = 000002, bj = 000001
(PID.TID 0000.0001) //       NORTH: Tile = 000002, Process = 000001, Comm = put
(PID.TID 0000.0001) //                bi = 000002, bj = 000001
(PID.TID 0000.0001) 
(PID.TID 0000.0001) // =======================================================
(PID.TID 0000.0001) // Model parameter file "data"
(PID.TID 0000.0001) // =======================================================
(PID.TID 0000.0001) ># ====================
(PID.TID 0000.0001) ># | Model parameters |
(PID.TID 0000.0001) ># ====================
(PID.TID 0000.0001) >#
(PID.TID 0000.0001) ># Continuous equation parameters
(PID.TID 0000.0001) > &PARM01
(PID.TID 0000.0001) > tRef = 15*20.,
(PID.TID 0000.0001) > sRef = 15*35.,
(PID.TID 0000.0001) > viscAr=1.E-3,
(PID.TID 0000.0001) > viscAh=5.E5,
(PID.TID 0000.0001) > diffKhT=0.0,
(PID.TID 0000.0001) > diffKrT=3.E-5,
(PID.TID 0000.0001) > diffKhS=0.0,
(PID.TID 0000.0001) > diffKrS=3.E-5,
(PID.TID 0000.0001) > rhonil=1035.,
(PID.TID 0000.0001) > rotationPeriod=86400.,
(PID.TID 0000.0001) > gravity=9.81,
(PID.TID 0000.0001) > eosType = 'POLY3',
(PID.TID 0000.0001) > ivdc_kappa=100.,
(PID.TID 0000.0001) > implicitDiffusion=.TRUE.,
(PID.TID 0000.0001) > useOldFreezing=.TRUE.,
(PID.TID 0000.0001) > useRealFreshWaterFlux=.TRUE.,
(PID.TID 0000.0001) > useCDscheme=.TRUE.,
(PID.TID 0000.0001) > useNHMTerms=.TRUE.,
(PID.TID 0000.0001) ># turn on looped cells
(PID.TID 0000.0001) > hFacMin=.05,
(PID.TID 0000.0001) > hFacMindr=50.,
(PID.TID 0000.0001) ># set precision of data files
(PID.TID 0000.0001) > readBinaryPrec=32,
(PID.TID 0000.0001) > &
(PID.TID 0000.0001) >
(PID.TID 0000.0001) ># Elliptic solver parameters
(PID.TID 0000.0001) > &PARM02
(PID.TID 0000.0001) > cg2dMaxIters=500,
(PID.TID 0000.0001) > cg2dTargetResidual=1.E-13,
(PID.TID 0000.0001) > &
(PID.TID 0000.0001) >
(PID.TID 0000.0001) ># Time stepping parameters
(PID.TID 0000.0001) > &PARM03
(PID.TID 0000.0001) > nIter0 =      0,
(PID.TID 0000.0001) > nTimeSteps = 20,
(PID.TID 0000.0001) ># 100 years of integration will yield a reasonable flow field
(PID.TID 0000.0001) ># startTime  =          0.,
(PID.TID 0000.0001) ># endTime    = 3110400000.,
(PID.TID 0000.0001) > deltaTmom = 1200.0,
(PID.TID 0000.0001) > tauCD =     321428.,
(PID.TID 0000.0001) > deltaTtracer= 43200.0,
(PID.TID 0000.0001) > deltaTClock = 43200.0,
(PID.TID 0000.0001) ># if you are using a version later than checkpoint45d on the main branch
(PID.TID 0000.0001) ># you can uncomment the following line and increase the time step
(PID.TID 0000.0001) ># deltaTtracer and deltaTClock to 172800.0 as well to speed up the
(PID.TID 0000.0001) ># asynchronous time stepping
(PID.TID 0000.0001) ># deltaTfreesurf = 172800.0,
(PID.TID 0000.0001) > abEps = 0.1,
(PID.TID 0000.0001) > pChkptFreq= 311040000.,
(PID.TID 0000.0001) > dumpFreq=   311040000.,
(PID.TID 0000.0001) > dumpFreq=   864000.,
(PID.TID 0000.0001) > taveFreq=   311040000.,
(PID.TID 0000.0001) > taveFreq=   864000.,
(PID.TID 0000.0001) >#monitorFreq=31104000.,
(PID.TID 0000.0001) > monitorFreq=1.,
(PID.TID 0000.0001) ># 2 months restoring timescale for temperature
(PID.TID 0000.0001) > tauThetaClimRelax =  5184000.0,
(PID.TID 0000.0001) ># 6 months restoring timescale for salinity
(PID.TID 0000.0001) > tauSaltClimRelax = 15552000.0,
(PID.TID 0000.0001) > periodicExternalForcing=.TRUE.,
(PID.TID 0000.0001) > externForcingPeriod=2592000.,
(PID.TID 0000.0001) > externForcingCycle=31104000.,
(PID.TID 0000.0001) > &
(PID.TID 0000.0001) >
(PID.TID 0000.0001) ># Gridding parameters
(PID.TID 0000.0001) > &PARM04
(PID.TID 0000.0001) > usingSphericalPolarGrid=.TRUE.,
(PID.TID 0000.0001) > delR= 50., 70., 100., 140., 190.,
(PID.TID 0000.0001) >       240., 290., 340., 390., 440.,
(PID.TID 0000.0001) >       490., 540., 590., 640., 690.,
(PID.TID 0000.0001) > ygOrigin=-80.,
(PID.TID 0000.0001) > dySpacing=4.,
(PID.TID 0000.0001) > dxSpacing=4.,
(PID.TID 0000.0001) > &
(PID.TID 0000.0001) >
(PID.TID 0000.0001) ># Input datasets
(PID.TID 0000.0001) > &PARM05
(PID.TID 0000.0001) > bathyFile=      'Topog.bin',
(PID.TID 0000.0001) > hydrogThetaFile='Lev_clim_theta.bin',
(PID.TID 0000.0001) > hydrogSaltFile= 'Lev_clim_salt.bin',
(PID.TID 0000.0001) > zonalWindFile=  'Taux.bin',
(PID.TID 0000.0001) > meridWindFile=  'Tauy.bin',
(PID.TID 0000.0001) > thetaClimFile=  'SST.bin',
(PID.TID 0000.0001) > saltClimFile=   'SSS.bin',
(PID.TID 0000.0001) > &
(PID.TID 0000.0001) 
(PID.TID 0000.0001) S/R INI_PARMS ; starts to read PARM01
(PID.TID 0000.0001) S/R INI_PARMS ; read PARM01 : OK
(PID.TID 0000.0001) S/R INI_PARMS: No request for barotropic solver
(PID.TID 0000.0001) S/R INI_PARMS: => Use implicitFreeSurface as default
(PID.TID 0000.0001) S/R INI_PARMS ; starts to read PARM02
(PID.TID 0000.0001) S/R INI_PARMS ; read PARM02 : OK
(PID.TID 0000.0001) S/R INI_PARMS ; starts to read PARM03
(PID.TID 0000.0001) S/R INI_PARMS ; read PARM03 : OK
(PID.TID 0000.0001) S/R INI_PARMS ; starts to read PARM04
(PID.TID 0000.0001) S/R INI_PARMS ; read PARM04 : OK
(PID.TID 0000.0001) S/R INI_PARMS ; starts to read PARM05
(PID.TID 0000.0001) S/R INI_PARMS ; read PARM05 : OK
(PID.TID 0000.0001)  PACKAGES_BOOT: opening data.pkg
(PID.TID 0000.0001)  OPEN_COPY_DATA_FILE: opening file data.pkg
(PID.TID 0000.0001) // =======================================================
(PID.TID 0000.0001) // Parameter file "data.pkg"
(PID.TID 0000.0001) // =======================================================
(PID.TID 0000.0001) ># Packages
(PID.TID 0000.0001) > &PACKAGES
(PID.TID 0000.0001) > useGMRedi=.TRUE.,
(PID.TID 0000.0001) > useEBM=.TRUE.,
(PID.TID 0000.0001) > &
(PID.TID 0000.0001) >
(PID.TID 0000.0001) 
(PID.TID 0000.0001)  PACKAGES_BOOT: finished reading data.pkg
(PID.TID 0000.0001)  GM_READPARMS: opening data.gmredi
(PID.TID 0000.0001)  OPEN_COPY_DATA_FILE: opening file data.gmredi
(PID.TID 0000.0001) // =======================================================
(PID.TID 0000.0001) // Parameter file "data.gmredi"
(PID.TID 0000.0001) // =======================================================
(PID.TID 0000.0001) ># GM+Redi package parameters:
(PID.TID 0000.0001) >
(PID.TID 0000.0001) >#-from MOM :
(PID.TID 0000.0001) ># GM_background_K: 	G & Mc.W  diffusion coefficient
(PID.TID 0000.0001) ># GM_maxSlope    :	max slope of isopycnals
(PID.TID 0000.0001) ># GM_Scrit       :	transition for scaling diffusion coefficient
(PID.TID 0000.0001) ># GM_Sd          :	half width scaling for diffusion coefficient
(PID.TID 0000.0001) ># GM_taper_scheme:	slope clipping or one of the tapering schemes
(PID.TID 0000.0001) ># GM_Kmin_horiz  :	horizontal diffusion minimum value
(PID.TID 0000.0001) >
(PID.TID 0000.0001) >#-Option parameters (needs to "define" options in GMREDI_OPTIONS.h")
(PID.TID 0000.0001) ># GM_isopycK     :	isopycnal diffusion coefficient (default=GM_background_K)
(PID.TID 0000.0001) ># GM_AdvForm     :	turn on GM Advective form       (default=Skew flux form)
(PID.TID 0000.0001) >
(PID.TID 0000.0001) > &GM_PARM01
(PID.TID 0000.0001) >  GM_background_K    = 1.e+3,
(PID.TID 0000.0001) >  GM_taper_scheme    = 'gkw91',
(PID.TID 0000.0001) >  GM_maxSlope        = 1.e-2,
(PID.TID 0000.0001) >  GM_Kmin_horiz      = 50.,
(PID.TID 0000.0001) >  GM_Scrit           = 4.e-3,
(PID.TID 0000.0001) >  GM_Sd              = 1.e-3,
(PID.TID 0000.0001) ># GM_Visbeck_alpha   = 0.,
(PID.TID 0000.0001) ># GM_Visbeck_length  = 2.e+5,
(PID.TID 0000.0001) ># GM_Visbeck_depth   = 1.e+3,
(PID.TID 0000.0001) ># GM_Visbeck_maxval_K= 2.5e+3,
(PID.TID 0000.0001) > &
(PID.TID 0000.0001) >
(PID.TID 0000.0001) >
(PID.TID 0000.0001) 
(PID.TID 0000.0001)  GM_READPARMS: finished reading data.gmredi
(PID.TID 0000.0001)  ebm_readparms: opening data.ebm
(PID.TID 0000.0001)  OPEN_COPY_DATA_FILE: opening file data.ebm
(PID.TID 0000.0001) // =======================================================
(PID.TID 0000.0001) // Parameter file "data.ebm"
(PID.TID 0000.0001) // =======================================================
(PID.TID 0000.0001) ># Packages
(PID.TID 0000.0001) > &EBM_PARM01
(PID.TID 0000.0001) ># convert from mm/year to m/sec
(PID.TID 0000.0001) > scale_runoff     = 3.170979198E-11,
(PID.TID 0000.0001) > tauThetaZonRelax = 5184000.0,
(PID.TID 0000.0001) > RunoffFile       = 'Runoff.bin',
(PID.TID 0000.0001) > &
(PID.TID 0000.0001) >
(PID.TID 0000.0001) 
(PID.TID 0000.0001)  ebm_readparms: finished reading data.ebm
(PID.TID 0000.0001) SET_PARMS: done
(PID.TID 0000.0001) Enter INI_VERTICAL_GRID: setInterFDr=    T ; setCenterDr=    F
(PID.TID 0000.0001) %MON XC_max                       =   3.5800000000000E+02
(PID.TID 0000.0001) %MON XC_min                       =   2.0000000000000E+00
(PID.TID 0000.0001) %MON XC_mean                      =   1.8000000000000E+02
(PID.TID 0000.0001) %MON XC_sd                        =   1.0391663325314E+02
(PID.TID 0000.0001) %MON XG_max                       =   3.5600000000000E+02
(PID.TID 0000.0001) %MON XG_min                       =   0.0000000000000E+00
(PID.TID 0000.0001) %MON XG_mean                      =   1.7800000000000E+02
(PID.TID 0000.0001) %MON XG_sd                        =   1.0391663325314E+02
(PID.TID 0000.0001) %MON DXC_max                      =   4.4443898815675E+05
(PID.TID 0000.0001) %MON DXC_min                      =   9.2460385861875E+04
(PID.TID 0000.0001) %MON DXC_mean                     =   3.1372497618153E+05
(PID.TID 0000.0001) %MON DXC_sd                       =   1.1216447457560E+05
(PID.TID 0000.0001) %MON DXF_max                      =   4.4443898815675E+05
(PID.TID 0000.0001) %MON DXF_min                      =   9.2460385861875E+04
(PID.TID 0000.0001) %MON DXF_mean                     =   3.1372497618153E+05
(PID.TID 0000.0001) %MON DXF_sd                       =   1.1216447457560E+05
(PID.TID 0000.0001) %MON DXG_max                      =   4.4470989340816E+05
(PID.TID 0000.0001) %MON DXG_min                      =   7.7223062580781E+04
(PID.TID 0000.0001) %MON DXG_mean                     =   3.1353386340261E+05
(PID.TID 0000.0001) %MON DXG_sd                       =   1.1256651772502E+05
(PID.TID 0000.0001) %MON DXV_max                      =   4.4470989340816E+05
(PID.TID 0000.0001) %MON DXV_min                      =   7.7223062580781E+04
(PID.TID 0000.0001) %MON DXV_mean                     =   3.1353386340261E+05
(PID.TID 0000.0001) %MON DXV_sd                       =   1.1256651772502E+05
(PID.TID 0000.0001) %MON YC_max                       =   7.8000000000000E+01
(PID.TID 0000.0001) %MON YC_min                       =  -7.8000000000000E+01
(PID.TID 0000.0001) %MON YC_mean                      =   0.0000000000000E+00
(PID.TID 0000.0001) %MON YC_sd                        =   4.6173585522461E+01
(PID.TID 0000.0001) %MON YG_max                       =   7.6000000000000E+01
(PID.TID 0000.0001) %MON YG_min                       =  -8.0000000000000E+01
(PID.TID 0000.0001) %MON YG_mean                      =  -2.0000000000000E+00
(PID.TID 0000.0001) %MON YG_sd                        =   4.6173585522461E+01
(PID.TID 0000.0001) %MON DYC_max                      =   4.4470989340816E+05
(PID.TID 0000.0001) %MON DYC_min                      =   4.4470989340816E+05
(PID.TID 0000.0001) %MON DYC_mean                     =   4.4470989340817E+05
(PID.TID 0000.0001) %MON DYC_sd                       =   1.4668330550194E-08
(PID.TID 0000.0001) %MON DYF_max                      =   4.4470989340816E+05
(PID.TID 0000.0001) %MON DYF_min                      =   4.4470989340816E+05
(PID.TID 0000.0001) %MON DYF_mean                     =   4.4470989340817E+05
(PID.TID 0000.0001) %MON DYF_sd                       =   1.4668330550194E-08
(PID.TID 0000.0001) %MON DYG_max                      =   4.4470989340816E+05
(PID.TID 0000.0001) %MON DYG_min                      =   4.4470989340816E+05
(PID.TID 0000.0001) %MON DYG_mean                     =   4.4470989340817E+05
(PID.TID 0000.0001) %MON DYG_sd                       =   1.4668330550194E-08
(PID.TID 0000.0001) %MON DYU_max                      =   4.4470989340816E+05
(PID.TID 0000.0001) %MON DYU_min                      =   4.4470989340816E+05
(PID.TID 0000.0001) %MON DYU_mean                     =   4.4470989340817E+05
(PID.TID 0000.0001) %MON DYU_sd                       =   1.4668330550194E-08
(PID.TID 0000.0001) %MON RA_max                       =   1.9760627980089E+11
(PID.TID 0000.0001) %MON RA_min                       =   4.1109698667290E+10
(PID.TID 0000.0001) %MON RA_mean                      =   1.3948826965196E+11
(PID.TID 0000.0001) %MON RA_sd                        =   4.9870522472902E+10
(PID.TID 0000.0001) %MON RAW_max                      =   1.9760627980089E+11
(PID.TID 0000.0001) %MON RAW_min                      =   4.1109698667290E+10
(PID.TID 0000.0001) %MON RAW_mean                     =   1.3948826965196E+11
(PID.TID 0000.0001) %MON RAW_sd                       =   4.9870522472902E+10
(PID.TID 0000.0001) %MON RAS_max                      =   1.9772672958215E+11
(PID.TID 0000.0001) %MON RAS_min                      =   3.4334886267983E+10
(PID.TID 0000.0001) %MON RAS_mean                     =   1.3940329716694E+11
(PID.TID 0000.0001) %MON RAS_sd                       =   5.0049278732353E+10
(PID.TID 0000.0001) %MON RAZ_max                      =   1.9772672958215E+11
(PID.TID 0000.0001) %MON RAZ_min                      =   3.4334886267983E+10
(PID.TID 0000.0001) %MON RAZ_mean                     =   1.3940329716694E+11
(PID.TID 0000.0001) %MON RAZ_sd                       =   5.0049278732353E+10
(PID.TID 0000.0001) %MON AngleCS_max                  =   1.0000000000000E+00
(PID.TID 0000.0001) %MON AngleCS_min                  =   1.0000000000000E+00
(PID.TID 0000.0001) %MON AngleCS_mean                 =   1.0000000000000E+00
(PID.TID 0000.0001) %MON AngleCS_sd                   =   0.0000000000000E+00
(PID.TID 0000.0001) %MON AngleSN_max                  =   0.0000000000000E+00
(PID.TID 0000.0001) %MON AngleSN_min                  =   0.0000000000000E+00
(PID.TID 0000.0001) %MON AngleSN_mean                 =   0.0000000000000E+00
(PID.TID 0000.0001) %MON AngleSN_sd                   =   0.0000000000000E+00
(PID.TID 0000.0001)  MDS_READ_FIELD: opening global file: Topog.bin
(PID.TID 0000.0001) // =======================================================
(PID.TID 0000.0001) // Field Model R_low (ini_masks_etc) at iteration          1
(PID.TID 0000.0001) // CMIN =         -5.200000000000000E+03
(PID.TID 0000.0001) // CMAX =         -5.000000000000000E+01
(PID.TID 0000.0001) // CINT =          1.907407407407407E+02
(PID.TID 0000.0001) // SYMBOLS (CMIN->CMAX): -abcdefghijklmnopqrstuvwxyz+
(PID.TID 0000.0001) //                  0.0: .
(PID.TID 0000.0001) // RANGE I (Lo:Hi:Step):(  -1:  92:   1)
(PID.TID 0000.0001) // RANGE J (Lo:Hi:Step):(  42:  -1:  -1)
(PID.TID 0000.0001) // RANGE K (Lo:Hi:Step):(   1:   1:   1)
(PID.TID 0000.0001) // =======================================================
(PID.TID 0000.0001) K =   1
(PID.TID 0000.0001) //                I=8       I=18      I=28      I=38      I=44      I=54      I=64      I=74      I=84
(PID.TID 0000.0001) // |--J--|101234567|901234567|901234567|901234567|901234567|567890123|567890123|567890123|567890123|56789012
(PID.TID 0000.0001) //     42 .............................................yywvyywvqnkk...........................wvss..........
(PID.TID 0000.0001) //     41 ..................................................................................................
(PID.TID 0000.0001) //     40 ..................................................................................................
(PID.TID 0000.0001) //     39 nkkknqxz.......................................................................qsv.........vqnnkkk
(PID.TID 0000.0001) //     38 kkkkkq..........................................................................uv........vvsqkkkk
(PID.TID 0000.0001) //     37 kknv............................................................................wqq...qnqu..sukknv
(PID.TID 0000.0001) //     36 wwz..........................................kknqkknqz..........................unkk.kknqqnnqswwz.
(PID.TID 0000.0001) //     35 ..++.................................yvwz.hdkkkkkkkkkkuq.ddhhkq..................nhhhhknkknqnq..++
(PID.TID 0000.0001) //     34 ......................................vvv--d-------------ddhhhkn..................wkhhhhhhhdkv....
(PID.TID 0000.0001) //     33 d.....................................kk-------------------ddhhnq...............zz.skhdhhhddddd...
(PID.TID 0000.0001) //     32 ......................................h---------------------dhhhn...............nhdhd-dhkkhd-d....
(PID.TID 0000.0001) //     31 ......................................------------------------ddd.............hd------dhnhd--.....
(PID.TID 0000.0001) //     30 .....................................---------d---d-------------d............d--------hkh-----....
(PID.TID 0000.0001) //     29 .................................zudh--------------------------dhhk.........n-------dhhdh--dhh....
(PID.TID 0000.0001) //     28 ................................yqdd-------------------------dddhhh......nk.d-------dd-----hk.....
(PID.TID 0000.0001) //     27 .................................---------------------ddd-----ddhhhhk...hhkqq-------hd----dh......
(PID.TID 0000.0001) //     26 .................hkk....s.....khd----d--------d---d-----d-------dhhhkh..k.hddh-----dhd----dk......
(PID.TID 0000.0001) //     25 ...............hhhhh..kknn...qhh.----d--------------------------ddhhhhh....hhhd----dh-----hh......
(PID.TID 0000.0001) //     24 ..............nhhhhhs.hhkn...hhh.----------dd------------------dddhhhhkhdh.khh.-nd--dd----dh......
(PID.TID 0000.0001) //     23 ...............-dhddknhhhh.++nnhh----hdd----h----------d-----dddddhhhhkhhhk......khddhh---ddd.....
(PID.TID 0000.0001) //     22 dddh..........--dhhhkhhhhh..++..----dd-dhhddhd---d------hd--ddhhhhhhhhkkhhkk.......khhdhhhd--ddddh
(PID.TID 0000.0001) //     21 --dh.........d--ddhhddddddd.....nnhhdhd-hnhhhd---d-------dddhhhhddhhhhhkkkkk........hhhhdhd-----dh
(PID.TID 0000.0001) //     20 -dddh.......h--dhdhdd--dd--.......-...qqkqhhh-------------ddddddddhhhhhhhhh............h----dd-ddd
(PID.TID 0000.0001) //     19 d---d.......hddhhhhk---------.hhhd-s...--hhh--d---d---dd----hhdddhhhhhhhhhh-...........d---dhhd---
(PID.TID 0000.0001) //     18 ----d.......khhhhhhh---d--------ku....khhk--hhhhdhhhd--h--dddhhhhhhhhhhhhhddd..........d---dhh----
(PID.TID 0000.0001) //     17 d---d.......k..dhhhdd--d--------s......ddhddhkkn-kkn----dddhhhhhhhhkhhhhhdddh..........d---dhhd---
(PID.TID 0000.0001) //     16 d---d......kn.--hhkhdd-d------h........vkkkd-hhn-hhn---ddddddhhhhhhkhhhhhdhhd-........hd---dhhd---
(PID.TID 0000.0001) //     15 ---hd......hh.---dhhhdddd----d..........ddnkddhq-dhq----dddddhhhhhkkhhhhhhhhdh.......nhd---dhd---h
(PID.TID 0000.0001) //     14 d---dh....qddh---ddhhhhddd----...........dnhhdh--dh------dddhhhhhhkkkhhhhhhhh-......khhd--dhhhd---
(PID.TID 0000.0001) //     13 dh---h...hk-dhddhddddhhhhhd---..........-dshhhh--hh------d--ddhhhhhkkhhhhhhhhd.....khhhddddhkhdh--
(PID.TID 0000.0001) //     12 hd---dhdhh---khdd-ddhkhhhhh----.----....---nqsk--sk----------ddddhhhkhhhhhhhhd....n----dhhhkhhhd--
(PID.TID 0000.0001) //     11 hd--dd--hd--dkhd--dhhkhhhhhdddd-------xhd--hv.kd-.kd-d--d------ddhhhhhhdhhhhh....n-------hhkkhhd--
(PID.TID 0000.0001) //     10 hhddd------hkkkd--hhhkkkkhhhhhddddddddhh---h.snk-snk----d------ddhhhhhhdddhhh...+d------ddhhkhhhdd
(PID.TID 0000.0001) //      9 hhhhd-----ddhhhhdhknkkhhhhkhkhhhhhhhdhhd--dhvsn--sn--------ddddddhhkhhhhdddhh...xd--------dhhkhhhh
(PID.TID 0000.0001) //      8 nkhhhhhh---dhhdddddhqnhdhhhhhhhhhhhhhhhhdddhvd---d--------ddhhhhhhkhhdd--dddh..zxqnkkhddddhhhhnkhh
(PID.TID 0000.0001) //      7 hhd----d---------dddhkd--hhhhhhddddhhhhhhhd------------dddhhhhhhkkhh-------ddhhhhhdhhhhd---dhhhhd-
(PID.TID 0000.0001) //      6 ------------------dddhnhddhhhhhdddddhhhhhk-----dd--dddddhkkhhdd--------------ddhhhhhhhhhh--d------
(PID.TID 0000.0001) //      5 -------------d--dhdhhkkkkhh.hhhhhhhhhhhhkknhhhhhhhhhhkkkhhhhhdd------d---ddddhhh.xnhhddddd--------
(PID.TID 0000.0001) //      4 dhhhhhdddh.h..............................qnkkkhhkkhhhhhhhhhhhhdddddddddhdhhhk...wkhhhhddddddddhhh
(PID.TID 0000.0001) //      3 .............................................nnkhnnkhhhhhhhhhhhhkknkkkk..........vnkhhhhhhhh......
(PID.TID 0000.0001) //      2 .............................................yywvyywvqnkk...........................wvss..........
(PID.TID 0000.0001) //      1 ..................................................................................................
(PID.TID 0000.0001) //      0 ..................................................................................................
(PID.TID 0000.0001) //     -1 nkkknqxz.......................................................................qsv.........vqnnkkk
(PID.TID 0000.0001) // =======================================================
(PID.TID 0000.0001) // END OF FIELD                                          =
(PID.TID 0000.0001) // =======================================================
(PID.TID 0000.0001) 
(PID.TID 0000.0001) // =======================================================
(PID.TID 0000.0001) // Field Model Ro_surf (ini_masks_etc) at iteration          1
(PID.TID 0000.0001) // CMIN =          1.000000000000000E+32
(PID.TID 0000.0001) // CMAX =         -1.000000000000000E+32
(PID.TID 0000.0001) // CINT =          0.000000000000000E+00
(PID.TID 0000.0001) // SYMBOLS (CMIN->CMAX): -abcdefghijklmnopqrstuvwxyz+
(PID.TID 0000.0001) //                  0.0: .
(PID.TID 0000.0001) // RANGE I (Lo:Hi:Step):(  -1:  92:   1)
(PID.TID 0000.0001) // RANGE J (Lo:Hi:Step):(  42:  -1:  -1)
(PID.TID 0000.0001) // RANGE K (Lo:Hi:Step):(   1:   1:   1)
(PID.TID 0000.0001) // =======================================================
(PID.TID 0000.0001) // =======================================================
(PID.TID 0000.0001) // END OF FIELD                                          =
(PID.TID 0000.0001) // =======================================================
(PID.TID 0000.0001) 
(PID.TID 0000.0001) // =======================================================
(PID.TID 0000.0001) // Field hFacC at iteration          1
(PID.TID 0000.0001) // CMIN =          1.000000000000000E+00
(PID.TID 0000.0001) // CMAX =          1.000000000000000E+00
(PID.TID 0000.0001) // CINT =          0.000000000000000E+00
(PID.TID 0000.0001) // SYMBOLS (CMIN->CMAX): -abcdefghijklmnopqrstuvwxyz+
(PID.TID 0000.0001) //                  0.0: .
(PID.TID 0000.0001) // RANGE I (Lo:Hi:Step):(  -1:  92:   1)
(PID.TID 0000.0001) // RANGE J (Lo:Hi:Step):(  42:  -1:  -1)
(PID.TID 0000.0001) // RANGE K (Lo:Hi:Step):(   1:   1:   1)
(PID.TID 0000.0001) // =======================================================
(PID.TID 0000.0001) // =======================================================
(PID.TID 0000.0001) // END OF FIELD                                          =
(PID.TID 0000.0001) // =======================================================
(PID.TID 0000.0001) 
(PID.TID 0000.0001) // =======================================================
(PID.TID 0000.0001) // Field hFacW at iteration          1
(PID.TID 0000.0001) // CMIN =          1.000000000000000E+00
(PID.TID 0000.0001) // CMAX =          1.000000000000000E+00
(PID.TID 0000.0001) // CINT =          0.000000000000000E+00
(PID.TID 0000.0001) // SYMBOLS (CMIN->CMAX): -abcdefghijklmnopqrstuvwxyz+
(PID.TID 0000.0001) //                  0.0: .
(PID.TID 0000.0001) // RANGE I (Lo:Hi:Step):(  -1:  92:   1)
(PID.TID 0000.0001) // RANGE J (Lo:Hi:Step):(  42:  -1:  -1)
(PID.TID 0000.0001) // RANGE K (Lo:Hi:Step):(   1:   1:   1)
(PID.TID 0000.0001) // =======================================================
(PID.TID 0000.0001) // =======================================================
(PID.TID 0000.0001) // END OF FIELD                                          =
(PID.TID 0000.0001) // =======================================================
(PID.TID 0000.0001) 
(PID.TID 0000.0001) // =======================================================
(PID.TID 0000.0001) // Field hFacS at iteration          1
(PID.TID 0000.0001) // CMIN =          1.000000000000000E+00
(PID.TID 0000.0001) // CMAX =          1.000000000000000E+00
(PID.TID 0000.0001) // CINT =          0.000000000000000E+00
(PID.TID 0000.0001) // SYMBOLS (CMIN->CMAX): -abcdefghijklmnopqrstuvwxyz+
(PID.TID 0000.0001) //                  0.0: .
(PID.TID 0000.0001) // RANGE I (Lo:Hi:Step):(  -1:  92:   1)
(PID.TID 0000.0001) // RANGE J (Lo:Hi:Step):(  42:  -1:  -1)
(PID.TID 0000.0001) // RANGE K (Lo:Hi:Step):(   1:   1:   1)
(PID.TID 0000.0001) // =======================================================
(PID.TID 0000.0001) // =======================================================
(PID.TID 0000.0001) // END OF FIELD                                          =
(PID.TID 0000.0001) // =======================================================
(PID.TID 0000.0001) 
(PID.TID 0000.0001) 
(PID.TID 0000.0001) // ===================================
(PID.TID 0000.0001) // GAD parameters :
(PID.TID 0000.0001) // ===================================
(PID.TID 0000.0001) tempAdvScheme =   /* Temp. Horiz.Advection scheme selector */
(PID.TID 0000.0001)                       2
(PID.TID 0000.0001)     ;
(PID.TID 0000.0001) tempVertAdvScheme =   /* Temp. Vert. Advection scheme selector */
(PID.TID 0000.0001)                       2
(PID.TID 0000.0001)     ;
(PID.TID 0000.0001) tempMultiDimAdvec =   /* use Muti-Dim Advec method for Temp */
(PID.TID 0000.0001)                   F
(PID.TID 0000.0001)     ;
(PID.TID 0000.0001) tempSOM_Advection = /* use 2nd Order Moment Advection for Temp */
(PID.TID 0000.0001)                   F
(PID.TID 0000.0001)     ;
(PID.TID 0000.0001) AdamsBashforthGt = /* apply Adams-Bashforth extrapolation on Gt */
(PID.TID 0000.0001)                   T
(PID.TID 0000.0001)     ;
(PID.TID 0000.0001) AdamsBashforth_T = /* apply Adams-Bashforth extrapolation on Temp */
(PID.TID 0000.0001)                   F
(PID.TID 0000.0001)     ;
(PID.TID 0000.0001) saltAdvScheme =   /* Salt. Horiz.advection scheme selector */
(PID.TID 0000.0001)                       2
(PID.TID 0000.0001)     ;
(PID.TID 0000.0001) saltVertAdvScheme =   /* Salt. Vert. Advection scheme selector */
(PID.TID 0000.0001)                       2
(PID.TID 0000.0001)     ;
(PID.TID 0000.0001) saltMultiDimAdvec =   /* use Muti-Dim Advec method for Salt */
(PID.TID 0000.0001)                   F
(PID.TID 0000.0001)     ;
(PID.TID 0000.0001) saltSOM_Advection = /* use 2nd Order Moment Advection for Salt */
(PID.TID 0000.0001)                   F
(PID.TID 0000.0001)     ;
(PID.TID 0000.0001) AdamsBashforthGs = /* apply Adams-Bashforth extrapolation on Gs */
(PID.TID 0000.0001)                   T
(PID.TID 0000.0001)     ;
(PID.TID 0000.0001) AdamsBashforth_S = /* apply Adams-Bashforth extrapolation on Salt */
(PID.TID 0000.0001)                   F
(PID.TID 0000.0001)     ;
(PID.TID 0000.0001) // ===================================
(PID.TID 0000.0001) %MON fCori_max                    =   1.4226580169407E-04
(PID.TID 0000.0001) %MON fCori_min                    =  -1.4226580169407E-04
(PID.TID 0000.0001) %MON fCori_mean                   =   1.5961865317148E-21
(PID.TID 0000.0001) %MON fCori_sd                     =   9.6335367303779E-05
(PID.TID 0000.0001) %MON fCoriG_max                   =   1.4112379284621E-04
(PID.TID 0000.0001) %MON fCoriG_min                   =  -1.4323448157692E-04
(PID.TID 0000.0001) %MON fCoriG_mean                  =  -3.5808620394229E-06
(PID.TID 0000.0001) %MON fCoriG_sd                    =   9.6285194120965E-05
(PID.TID 0000.0001) %MON fCoriCos_max                 =   1.4535550371427E-04
(PID.TID 0000.0001) %MON fCoriCos_min                 =   3.0239529651320E-05
(PID.TID 0000.0001) %MON fCoriCos_mean                =   1.0260497651149E-04
(PID.TID 0000.0001) %MON fCoriCos_sd                  =   3.6683828681187E-05
(PID.TID 0000.0001) INI_CG2D: CG2D normalisation factor =  9.0544177972206531E-05
(PID.TID 0000.0001) 
(PID.TID 0000.0001) // =======================================================
(PID.TID 0000.0001) // Model configuration
(PID.TID 0000.0001) // =======================================================
(PID.TID 0000.0001) //
(PID.TID 0000.0001) // "Physical" paramters ( PARM01 in namelist )
(PID.TID 0000.0001) //
(PID.TID 0000.0001) buoyancyRelation = /* Type of relation to get Buoyancy */
(PID.TID 0000.0001)               'OCEANIC'
(PID.TID 0000.0001)     ;
(PID.TID 0000.0001) fluidIsAir  =  /* fluid major constituent is Air */
(PID.TID 0000.0001)                   F
(PID.TID 0000.0001)     ;
(PID.TID 0000.0001) fluidIsWater=  /* fluid major constituent is Water */
(PID.TID 0000.0001)                   T
(PID.TID 0000.0001)     ;
(PID.TID 0000.0001) usingPCoords =  /* use p (or p*) vertical coordinate */
(PID.TID 0000.0001)                   F
(PID.TID 0000.0001)     ;
(PID.TID 0000.0001) usingZCoords =  /* use z (or z*) vertical coordinate */
(PID.TID 0000.0001)                   T
(PID.TID 0000.0001)     ;
(PID.TID 0000.0001) tRef =   /* Reference temperature profile ( oC or K ) */
(PID.TID 0000.0001)    15 @  2.000000000000000E+01              /* K =  1: 15 */
(PID.TID 0000.0001)     ;
(PID.TID 0000.0001) sRef =   /* Reference salinity profile ( psu ) */
(PID.TID 0000.0001)    15 @  3.500000000000000E+01              /* K =  1: 15 */
(PID.TID 0000.0001)     ;
(PID.TID 0000.0001) viscAh =   /* Lateral eddy viscosity ( m^2/s ) */
(PID.TID 0000.0001)                 5.000000000000000E+05
(PID.TID 0000.0001)     ;
(PID.TID 0000.0001) viscAhMax =   /* Maximum lateral eddy viscosity ( m^2/s ) */
(PID.TID 0000.0001)                 1.000000000000000E+21
(PID.TID 0000.0001)     ;
(PID.TID 0000.0001) viscAhGrid =   /* Grid dependent lateral eddy viscosity ( non-dim. ) */
(PID.TID 0000.0001)                 0.000000000000000E+00
(PID.TID 0000.0001)     ;
(PID.TID 0000.0001) useFullLeith =   /* Use Full Form of Leith Viscosity on/off flag*/
(PID.TID 0000.0001)                   F
(PID.TID 0000.0001)     ;
(PID.TID 0000.0001) useStrainTensionVisc =   /* Use StrainTension Form of Viscous Operator on/off flag*/
(PID.TID 0000.0001)                   F
(PID.TID 0000.0001)     ;
(PID.TID 0000.0001) useAreaViscLength =   /* Use area for visc length instead of geom. mean*/
(PID.TID 0000.0001)                   F
(PID.TID 0000.0001)     ;
(PID.TID 0000.0001) viscC2leith = /* Leith harmonic visc. factor (on grad(vort),non-dim.) */
(PID.TID 0000.0001)                 0.000000000000000E+00
(PID.TID 0000.0001)     ;
(PID.TID 0000.0001) viscC2leithD = /* Leith harmonic viscosity factor (on grad(div),non-dim.) */
(PID.TID 0000.0001)                 0.000000000000000E+00
(PID.TID 0000.0001)     ;
(PID.TID 0000.0001) viscC2smag =   /* Smagorinsky harmonic viscosity factor (non-dim.) */
(PID.TID 0000.0001)                 0.000000000000000E+00
(PID.TID 0000.0001)     ;
(PID.TID 0000.0001) viscA4 =   /* Lateral biharmonic viscosity ( m^4/s ) */
(PID.TID 0000.0001)                 0.000000000000000E+00
(PID.TID 0000.0001)     ;
(PID.TID 0000.0001) viscA4Max =   /* Maximum biharmonic viscosity ( m^2/s ) */
(PID.TID 0000.0001)                 1.000000000000000E+21
(PID.TID 0000.0001)     ;
(PID.TID 0000.0001) viscA4Grid =   /* Grid dependent biharmonic viscosity ( non-dim. ) */
(PID.TID 0000.0001)                 0.000000000000000E+00
(PID.TID 0000.0001)     ;
(PID.TID 0000.0001) viscC4leith = /* Leith biharm viscosity factor (on grad(vort), non-dim.) */
(PID.TID 0000.0001)                 0.000000000000000E+00
(PID.TID 0000.0001)     ;
(PID.TID 0000.0001) viscC4leithD = /* Leith biharm viscosity factor (on grad(div), non-dim.) */
(PID.TID 0000.0001)                 0.000000000000000E+00
(PID.TID 0000.0001)     ;
(PID.TID 0000.0001) viscC4Smag = /* Smagorinsky biharm viscosity factor (non-dim) */
(PID.TID 0000.0001)                 0.000000000000000E+00
(PID.TID 0000.0001)     ;
(PID.TID 0000.0001) no_slip_sides =  /* Viscous BCs: No-slip sides */
(PID.TID 0000.0001)                   T
(PID.TID 0000.0001)     ;
(PID.TID 0000.0001) sideDragFactor = /* side-drag scaling factor (non-dim) */
(PID.TID 0000.0001)                 2.000000000000000E+00
(PID.TID 0000.0001)     ;
(PID.TID 0000.0001) viscAr =   /* Vertical eddy viscosity ( m^2/s ) */
(PID.TID 0000.0001)                 1.000000000000000E-03
(PID.TID 0000.0001)     ;
(PID.TID 0000.0001) no_slip_bottom =  /* Viscous BCs: No-slip bottom */
(PID.TID 0000.0001)                   T
(PID.TID 0000.0001)     ;
(PID.TID 0000.0001) bottomDragLinear = /* linear bottom-drag coefficient ( m/s ) */
(PID.TID 0000.0001)                 0.000000000000000E+00
(PID.TID 0000.0001)     ;
(PID.TID 0000.0001) bottomDragQuadratic = /* quadratic bottom-drag coefficient (-) */
(PID.TID 0000.0001)                 0.000000000000000E+00
(PID.TID 0000.0001)     ;
(PID.TID 0000.0001) diffKhT =   /* Laplacian diffusion of heat laterally ( m^2/s ) */
(PID.TID 0000.0001)                 0.000000000000000E+00
(PID.TID 0000.0001)     ;
(PID.TID 0000.0001) diffK4T =   /* Biharmonic diffusion of heat laterally ( m^4/s ) */
(PID.TID 0000.0001)                 0.000000000000000E+00
(PID.TID 0000.0001)     ;
(PID.TID 0000.0001) diffKhS =   /* Laplacian diffusion of salt laterally ( m^2/s ) */
(PID.TID 0000.0001)                 0.000000000000000E+00
(PID.TID 0000.0001)     ;
(PID.TID 0000.0001) diffK4S =   /* Biharmonic diffusion of salt laterally ( m^4/s ) */
(PID.TID 0000.0001)                 0.000000000000000E+00
(PID.TID 0000.0001)     ;
(PID.TID 0000.0001) diffKrNrT = /* vertical profile of vertical diffusion of Temp ( m^2/s )*/
(PID.TID 0000.0001)    15 @  3.000000000000000E-05              /* K =  1: 15 */
(PID.TID 0000.0001)     ;
(PID.TID 0000.0001) diffKrNrS = /* vertical profile of vertical diffusion of Salt ( m^2/s )*/
(PID.TID 0000.0001)    15 @  3.000000000000000E-05              /* K =  1: 15 */
(PID.TID 0000.0001)     ;
(PID.TID 0000.0001) diffKrBL79surf = /* Surface diffusion for Bryan and Lewis 79 ( m^2/s ) */
(PID.TID 0000.0001)                 0.000000000000000E+00
(PID.TID 0000.0001)     ;
(PID.TID 0000.0001) diffKrBL79deep = /* Deep diffusion for Bryan and Lewis 1979 ( m^2/s ) */
(PID.TID 0000.0001)                 0.000000000000000E+00
(PID.TID 0000.0001)     ;
(PID.TID 0000.0001) diffKrBL79scl = /* Depth scale for Bryan and Lewis 1979 ( m ) */
(PID.TID 0000.0001)                 2.000000000000000E+02
(PID.TID 0000.0001)     ;
(PID.TID 0000.0001) diffKrBL79Ho = /* Turning depth for Bryan and Lewis 1979 ( m ) */
(PID.TID 0000.0001)                -2.000000000000000E+03
(PID.TID 0000.0001)     ;
(PID.TID 0000.0001) ivdc_kappa = /* Implicit Vertical Diffusivity for Convection ( m^2/s ) */
(PID.TID 0000.0001)                 1.000000000000000E+02
(PID.TID 0000.0001)     ;
(PID.TID 0000.0001) hMixCriteria=  /* Criteria for mixed-layer diagnostic */
(PID.TID 0000.0001)                -8.000000000000000E-01
(PID.TID 0000.0001)     ;
(PID.TID 0000.0001) dRhoSmall=  /* Parameter for mixed-layer diagnostic */
(PID.TID 0000.0001)                 1.000000000000000E-06
(PID.TID 0000.0001)     ;
(PID.TID 0000.0001) hMixSmooth=  /* Smoothing parameter for mixed-layer diagnostic */
(PID.TID 0000.0001)                 0.000000000000000E+00
(PID.TID 0000.0001)     ;
(PID.TID 0000.0001) eosType =  /* Type of Equation of State */
(PID.TID 0000.0001)               'POLY3 '
(PID.TID 0000.0001)     ;
(PID.TID 0000.0001) tAlpha =   /* Linear EOS thermal expansion coefficient ( 1/oC ) */
(PID.TID 0000.0001)                 1.234567000000000E+05
(PID.TID 0000.0001)     ;
(PID.TID 0000.0001) sBeta =   /* Linear EOS haline contraction coefficient ( 1/psu ) */
(PID.TID 0000.0001)                 1.234567000000000E+05
(PID.TID 0000.0001)     ;
(PID.TID 0000.0001)   1  13.497  32.600  24.548  -0.202   0.773  -0.005  -0.002   0.000   0.000   0.000   0.000   0.000
(PID.TID 0000.0001)   2  13.488  32.600  24.819  -0.204   0.773  -0.005  -0.002   0.000   0.000   0.000   0.000   0.000
(PID.TID 0000.0001)   3  13.476  32.600  25.201  -0.205   0.772  -0.005  -0.002   0.000   0.000   0.000   0.000   0.000
(PID.TID 0000.0001)   4   8.469  35.150  28.642  -0.163   0.784  -0.005  -0.002   0.000   0.000   0.000   0.000   0.000
(PID.TID 0000.0001)   5   8.451  35.150  29.393  -0.167   0.782  -0.005  -0.002   0.000   0.000   0.000   0.000   0.000
(PID.TID 0000.0001)   6   5.940  34.900  30.563  -0.144   0.786  -0.005  -0.002  -0.001   0.000   0.000   0.000   0.000
(PID.TID 0000.0001)   7   4.425  34.900  31.985  -0.134   0.788  -0.005  -0.003   0.000   0.000   0.000   0.000   0.000
(PID.TID 0000.0001)   8   2.911  34.750  33.505  -0.125   0.789  -0.006  -0.003   0.000   0.000   0.000   0.000   0.000
(PID.TID 0000.0001)   9   1.893  34.800  35.341  -0.123   0.789  -0.006  -0.003   0.000   0.000   0.000   0.000   0.000
(PID.TID 0000.0001)  10   1.367  34.800  37.299  -0.129   0.787  -0.006  -0.003   0.000   0.000   0.000   0.000   0.000
(PID.TID 0000.0001)  11   1.327  34.800  39.405  -0.141   0.783  -0.005  -0.003   0.000   0.000   0.000   0.000   0.000
(PID.TID 0000.0001)  12   0.791  34.800  41.788  -0.149   0.780  -0.005  -0.003   0.000   0.000   0.000   0.000   0.000
(PID.TID 0000.0001)  13   0.736  34.750  44.259  -0.164   0.776  -0.005  -0.002   0.000   0.000   0.000   0.000   0.000
(PID.TID 0000.0001)  14   0.186  34.750  47.044  -0.175   0.773  -0.005  -0.002   0.000   0.000   0.000   0.000   0.000
(PID.TID 0000.0001)  15   0.595  34.750  49.835  -0.196   0.767  -0.004  -0.002   0.000   0.000   0.000   0.000   0.000
(PID.TID 0000.0001) rhonil =   /* Reference density ( kg/m^3 ) */
(PID.TID 0000.0001)                 1.035000000000000E+03
(PID.TID 0000.0001)     ;
(PID.TID 0000.0001) rhoConst =   /* Reference density ( kg/m^3 ) */
(PID.TID 0000.0001)                 1.035000000000000E+03
(PID.TID 0000.0001)     ;
(PID.TID 0000.0001) rhoFacC = /* normalized Reference density @ cell-Center (-) */
(PID.TID 0000.0001)    15 @  1.000000000000000E+00              /* K =  1: 15 */
(PID.TID 0000.0001)     ;
(PID.TID 0000.0001) rhoFacF = /* normalized Reference density @ W-Interface (-) */
(PID.TID 0000.0001)    16 @  1.000000000000000E+00              /* K =  1: 16 */
(PID.TID 0000.0001)     ;
(PID.TID 0000.0001) rhoConstFresh =   /* Reference density ( kg/m^3 ) */
(PID.TID 0000.0001)                 1.035000000000000E+03
(PID.TID 0000.0001)     ;
(PID.TID 0000.0001) gravity =   /* Gravitational acceleration ( m/s^2 ) */
(PID.TID 0000.0001)                 9.810000000000000E+00
(PID.TID 0000.0001)     ;
(PID.TID 0000.0001) gBaro =   /* Barotropic gravity ( m/s^2 ) */
(PID.TID 0000.0001)                 9.810000000000000E+00
(PID.TID 0000.0001)     ;
(PID.TID 0000.0001) rotationPeriod =   /* Rotation Period ( s ) */
(PID.TID 0000.0001)                 8.640000000000000E+04
(PID.TID 0000.0001)     ;
(PID.TID 0000.0001) omega =   /* Angular velocity ( rad/s ) */
(PID.TID 0000.0001)                 7.272205216643040E-05
(PID.TID 0000.0001)     ;
(PID.TID 0000.0001) f0 =   /* Reference coriolis parameter ( 1/s ) */
(PID.TID 0000.0001)                 1.000000000000000E-04
(PID.TID 0000.0001)     ;
(PID.TID 0000.0001) beta =   /* Beta ( 1/(m.s) ) */
(PID.TID 0000.0001)                 9.999999999999999E-12
(PID.TID 0000.0001)     ;
(PID.TID 0000.0001) freeSurfFac =   /* Implicit free surface factor */
(PID.TID 0000.0001)                 1.000000000000000E+00
(PID.TID 0000.0001)     ;
(PID.TID 0000.0001) implicitFreeSurface =   /* Implicit free surface on/off flag */
(PID.TID 0000.0001)                   T
(PID.TID 0000.0001)     ;
(PID.TID 0000.0001) rigidLid =   /* Rigid lid on/off flag */
(PID.TID 0000.0001)                   F
(PID.TID 0000.0001)     ;
(PID.TID 0000.0001) implicSurfPress =   /* Surface Pressure implicit factor (0-1)*/
(PID.TID 0000.0001)                 1.000000000000000E+00
(PID.TID 0000.0001)     ;
(PID.TID 0000.0001) implicDiv2Dflow =   /* Barot. Flow Div. implicit factor (0-1)*/
(PID.TID 0000.0001)                 1.000000000000000E+00
(PID.TID 0000.0001)     ;
(PID.TID 0000.0001) exactConserv =   /* Exact Volume Conservation on/off flag*/
(PID.TID 0000.0001)                   F
(PID.TID 0000.0001)     ;
(PID.TID 0000.0001) linFSConserveTr =   /* Tracer correction for Lin Free Surface on/off flag*/
(PID.TID 0000.0001)                   F
(PID.TID 0000.0001)     ;
(PID.TID 0000.0001) uniformLin_PhiSurf =   /* use uniform Bo_surf on/off flag*/
(PID.TID 0000.0001)                   T
(PID.TID 0000.0001)     ;
(PID.TID 0000.0001) nonlinFreeSurf =   /* Non-linear Free Surf. options (-1,0,1,2,3)*/
(PID.TID 0000.0001)                       0
(PID.TID 0000.0001)     ;
(PID.TID 0000.0001)      -1,0= Off ; 1,2,3= On, 2=+rescale gU,gV, 3=+update cg2d solv.
(PID.TID 0000.0001) hFacInf =   /* lower threshold for hFac (nonlinFreeSurf only)*/
(PID.TID 0000.0001)                 2.000000000000000E-01
(PID.TID 0000.0001)     ;
(PID.TID 0000.0001) hFacSup =   /* upper threshold for hFac (nonlinFreeSurf only)*/
(PID.TID 0000.0001)                 2.000000000000000E+00
(PID.TID 0000.0001)     ;
(PID.TID 0000.0001) select_rStar = /* r* Vertical coord. options (=0 r coord.; > 0 uses r*) */
(PID.TID 0000.0001)                       0
(PID.TID 0000.0001)     ;
(PID.TID 0000.0001) selectAddFluid = /* option for mass source/sink of fluid (=0: off) */
(PID.TID 0000.0001)                       0
(PID.TID 0000.0001)     ;
(PID.TID 0000.0001) useRealFreshWaterFlux = /* Real Fresh Water Flux on/off flag*/
(PID.TID 0000.0001)                   T
(PID.TID 0000.0001)     ;
(PID.TID 0000.0001) temp_EvPrRn = /* Temp. of Evap/Prec/R (UNSET=use local T)(oC)*/
(PID.TID 0000.0001)                 1.234567000000000E+05
(PID.TID 0000.0001)     ;
(PID.TID 0000.0001) salt_EvPrRn = /* Salin. of Evap/Prec/R (UNSET=use local S)(ppt)*/
(PID.TID 0000.0001)                 0.000000000000000E+00
(PID.TID 0000.0001)     ;
(PID.TID 0000.0001) convertFW2Salt = /* convert F.W. Flux to Salt Flux (-1=use local S)(ppt)*/
(PID.TID 0000.0001)                -1.000000000000000E+00
(PID.TID 0000.0001)     ;
(PID.TID 0000.0001) use3Dsolver = /* use 3-D pressure solver on/off flag */
(PID.TID 0000.0001)                   F
(PID.TID 0000.0001)     ;
(PID.TID 0000.0001) nonHydrostatic =  /* Non-Hydrostatic on/off flag */
(PID.TID 0000.0001)                   F
(PID.TID 0000.0001)     ;
(PID.TID 0000.0001) nh_Am2 = /* Non-Hydrostatic terms scaling factor */
(PID.TID 0000.0001)                 1.000000000000000E+00
(PID.TID 0000.0001)     ;
(PID.TID 0000.0001) quasiHydrostatic = /* Quasi-Hydrostatic on/off flag */
(PID.TID 0000.0001)                   F
(PID.TID 0000.0001)     ;
(PID.TID 0000.0001) momStepping =  /* Momentum equation on/off flag */
(PID.TID 0000.0001)                   T
(PID.TID 0000.0001)     ;
(PID.TID 0000.0001) vectorInvariantMomentum= /* Vector-Invariant Momentum on/off */
(PID.TID 0000.0001)                   F
(PID.TID 0000.0001)     ;
(PID.TID 0000.0001) momAdvection =  /* Momentum advection on/off flag */
(PID.TID 0000.0001)                   T
(PID.TID 0000.0001)     ;
(PID.TID 0000.0001) momViscosity =  /* Momentum viscosity on/off flag */
(PID.TID 0000.0001)                   T
(PID.TID 0000.0001)     ;
(PID.TID 0000.0001) momImplVertAdv =/* Momentum implicit vert. advection on/off*/
(PID.TID 0000.0001)                   F
(PID.TID 0000.0001)     ;
(PID.TID 0000.0001) implicitViscosity = /* Implicit viscosity on/off flag */
(PID.TID 0000.0001)                   F
(PID.TID 0000.0001)     ;
(PID.TID 0000.0001) metricTerms =  /* metric-Terms on/off flag */
(PID.TID 0000.0001)                   T
(PID.TID 0000.0001)     ;
(PID.TID 0000.0001) useNHMTerms = /* Non-Hydrostatic Metric-Terms on/off */
(PID.TID 0000.0001)                   T
(PID.TID 0000.0001)     ;
(PID.TID 0000.0001) useConstantF =  /* use Constant f0 Coriolis flag */
(PID.TID 0000.0001)                   F
(PID.TID 0000.0001)     ;
(PID.TID 0000.0001) useBetaPlaneF = /* use Beta-Plane Coriolis flag */
(PID.TID 0000.0001)                   F
(PID.TID 0000.0001)     ;
(PID.TID 0000.0001) useSphereF  =   /* use Spherical Coriolis flag */
(PID.TID 0000.0001)                   T
(PID.TID 0000.0001)     ;
(PID.TID 0000.0001) use3dCoriolis = /* 3-D Coriolis on/off flag */
(PID.TID 0000.0001)                   F
(PID.TID 0000.0001)     ;
(PID.TID 0000.0001) useCoriolis =  /* Coriolis on/off flag */
(PID.TID 0000.0001)                   T
(PID.TID 0000.0001)     ;
(PID.TID 0000.0001) useCDscheme =  /* CD scheme on/off flag */
(PID.TID 0000.0001)                   T
(PID.TID 0000.0001)     ;
(PID.TID 0000.0001) useJamartWetPoints= /* Coriolis WetPoints method flag */
(PID.TID 0000.0001)                   F
(PID.TID 0000.0001)     ;
(PID.TID 0000.0001) useJamartMomAdv= /* V.I. Non-linear terms Jamart flag */
(PID.TID 0000.0001)                   F
(PID.TID 0000.0001)     ;
(PID.TID 0000.0001) useAbsVorticity= /* Work with f+zeta in Coriolis */
(PID.TID 0000.0001)                   F
(PID.TID 0000.0001)     ;
(PID.TID 0000.0001) selectVortScheme= /* Scheme selector for Vorticity-Term */
(PID.TID 0000.0001)               123456789
(PID.TID 0000.0001)    = 0 : enstrophy (Shallow-Water Eq.) conserving scheme by Sadourny, JAS 75
(PID.TID 0000.0001)    = 1 : same as 0 with modified hFac
(PID.TID 0000.0001)    = 2 : energy conserving scheme (used by Sadourny in JAS 75 paper)
(PID.TID 0000.0001)    = 3 : energy (general) and enstrophy (2D, nonDiv.) conserving scheme
(PID.TID 0000.0001)          from Sadourny (Burridge & Haseler, ECMWF Rep.4, 1977)
(PID.TID 0000.0001)     ;
(PID.TID 0000.0001) upwindVorticity= /* Upwind bias vorticity flag */
(PID.TID 0000.0001)                   F
(PID.TID 0000.0001)     ;
(PID.TID 0000.0001) highOrderVorticity= /* High order interp. of vort. flag */
(PID.TID 0000.0001)                   F
(PID.TID 0000.0001)     ;
(PID.TID 0000.0001) upwindShear= /* Upwind vertical Shear advection flag */
(PID.TID 0000.0001)                   F
(PID.TID 0000.0001)     ;
(PID.TID 0000.0001) selectKEscheme= /* Kinetic Energy scheme selector */
(PID.TID 0000.0001)                       0
(PID.TID 0000.0001)     ;
(PID.TID 0000.0001) momForcing =  /* Momentum forcing on/off flag */
(PID.TID 0000.0001)                   T
(PID.TID 0000.0001)     ;
(PID.TID 0000.0001) momPressureForcing =  /* Momentum pressure term on/off flag */
(PID.TID 0000.0001)                   T
(PID.TID 0000.0001)     ;
(PID.TID 0000.0001) implicitIntGravWave= /* Implicit Internal Gravity Wave flag */
(PID.TID 0000.0001)                   F
(PID.TID 0000.0001)     ;
(PID.TID 0000.0001) staggerTimeStep =   /* Stagger time stepping on/off flag */
(PID.TID 0000.0001)                   F
(PID.TID 0000.0001)     ;
(PID.TID 0000.0001) multiDimAdvection =   /* enable/disable Multi-Dim Advection */
(PID.TID 0000.0001)                   T
(PID.TID 0000.0001)     ;
(PID.TID 0000.0001) useMultiDimAdvec =   /* Multi-Dim Advection is/is-not used */
(PID.TID 0000.0001)                   F
(PID.TID 0000.0001)     ;
(PID.TID 0000.0001) implicitDiffusion =/* Implicit Diffusion on/off flag */
(PID.TID 0000.0001)                   T
(PID.TID 0000.0001)     ;
(PID.TID 0000.0001) tempStepping =  /* Temperature equation on/off flag */
(PID.TID 0000.0001)                   T
(PID.TID 0000.0001)     ;
(PID.TID 0000.0001) tempAdvection=  /* Temperature advection on/off flag */
(PID.TID 0000.0001)                   T
(PID.TID 0000.0001)     ;
(PID.TID 0000.0001) tempImplVertAdv =/* Temp. implicit vert. advection on/off */
(PID.TID 0000.0001)                   F
(PID.TID 0000.0001)     ;
(PID.TID 0000.0001) tempForcing  =  /* Temperature forcing on/off flag */
(PID.TID 0000.0001)                   T
(PID.TID 0000.0001)     ;
(PID.TID 0000.0001) tempIsActiveTr = /* Temp. is a dynamically Active Tracer */
(PID.TID 0000.0001)                   T
(PID.TID 0000.0001)     ;
(PID.TID 0000.0001) saltStepping =  /* Salinity equation on/off flag */
(PID.TID 0000.0001)                   T
(PID.TID 0000.0001)     ;
(PID.TID 0000.0001) saltAdvection=  /* Salinity advection on/off flag */
(PID.TID 0000.0001)                   T
(PID.TID 0000.0001)     ;
(PID.TID 0000.0001) saltImplVertAdv =/* Sali. implicit vert. advection on/off */
(PID.TID 0000.0001)                   F
(PID.TID 0000.0001)     ;
(PID.TID 0000.0001) saltForcing  =  /* Salinity forcing on/off flag */
(PID.TID 0000.0001)                   T
(PID.TID 0000.0001)     ;
(PID.TID 0000.0001) saltIsActiveTr = /* Salt  is a dynamically Active Tracer */
(PID.TID 0000.0001)                   T
(PID.TID 0000.0001)     ;
(PID.TID 0000.0001)  readBinaryPrec = /* Precision used for reading binary files */
(PID.TID 0000.0001)                      32
(PID.TID 0000.0001)     ;
(PID.TID 0000.0001) writeBinaryPrec = /* Precision used for writing binary files */
(PID.TID 0000.0001)                      32
(PID.TID 0000.0001)     ;
(PID.TID 0000.0001)  globalFiles = /* write "global" (=not per tile) files */
(PID.TID 0000.0001)                   F
(PID.TID 0000.0001)     ;
(PID.TID 0000.0001)  useSingleCpuIO = /* only master MPI process does I/O */
(PID.TID 0000.0001)                   F
(PID.TID 0000.0001)     ;
(PID.TID 0000.0001)  debugMode  =  /* Debug Mode on/off flag */
(PID.TID 0000.0001)                   F
(PID.TID 0000.0001)     ;
(PID.TID 0000.0001)    debLevA  =  /* 1rst level of debugging */
(PID.TID 0000.0001)                       1
(PID.TID 0000.0001)     ;
(PID.TID 0000.0001)    debLevB  =  /* 2nd  level of debugging */
(PID.TID 0000.0001)                       2
(PID.TID 0000.0001)     ;
(PID.TID 0000.0001)  debugLevel =  /* select debugging level */
(PID.TID 0000.0001)                       1
(PID.TID 0000.0001)     ;
(PID.TID 0000.0001) //
(PID.TID 0000.0001) // Elliptic solver(s) paramters ( PARM02 in namelist )
(PID.TID 0000.0001) //
(PID.TID 0000.0001) cg2dMaxIters =   /* Upper limit on 2d con. grad iterations  */
(PID.TID 0000.0001)                     500
(PID.TID 0000.0001)     ;
(PID.TID 0000.0001) cg2dChkResFreq =   /* 2d con. grad convergence test frequency */
(PID.TID 0000.0001)                       1
(PID.TID 0000.0001)     ;
(PID.TID 0000.0001) cg2dTargetResidual =   /* 2d con. grad target residual  */
(PID.TID 0000.0001)                 1.000000000000000E-13
(PID.TID 0000.0001)     ;
(PID.TID 0000.0001) cg2dTargetResWunit =   /* CG2d target residual [W units] */
(PID.TID 0000.0001)                -1.000000000000000E+00
(PID.TID 0000.0001)     ;
(PID.TID 0000.0001) cg2dPreCondFreq =   /* Freq. for updating cg2d preconditioner */
(PID.TID 0000.0001)                       1
(PID.TID 0000.0001)     ;
(PID.TID 0000.0001) //
(PID.TID 0000.0001) // Time stepping paramters ( PARM03 in namelist )
(PID.TID 0000.0001) //
(PID.TID 0000.0001) deltaTmom =   /* Momentum equation timestep ( s ) */
(PID.TID 0000.0001)                 1.200000000000000E+03
(PID.TID 0000.0001)     ;
(PID.TID 0000.0001) deltaTfreesurf = /* FreeSurface equation timestep ( s ) */
(PID.TID 0000.0001)                 1.200000000000000E+03
(PID.TID 0000.0001)     ;
(PID.TID 0000.0001) dTtracerLev =  /* Tracer equation timestep ( s ) */
(PID.TID 0000.0001)    15 @  4.320000000000000E+04              /* K =  1: 15 */
(PID.TID 0000.0001)     ;
(PID.TID 0000.0001) deltaTClock  =   /* Model clock timestep ( s ) */
(PID.TID 0000.0001)                 4.320000000000000E+04
(PID.TID 0000.0001)     ;
(PID.TID 0000.0001) cAdjFreq =   /* Convective adjustment interval ( s ) */
(PID.TID 0000.0001)                 0.000000000000000E+00
(PID.TID 0000.0001)     ;
(PID.TID 0000.0001) momForcingOutAB = /* =1: take Momentum Forcing out of Adams-Bash. stepping */
(PID.TID 0000.0001)                       0
(PID.TID 0000.0001)     ;
(PID.TID 0000.0001) tracForcingOutAB = /* =1: take T,S,pTr Forcing out of Adams-Bash. stepping */
(PID.TID 0000.0001)                       0
(PID.TID 0000.0001)     ;
(PID.TID 0000.0001) momDissip_In_AB = /* put Dissipation Tendency in Adams-Bash. stepping */
(PID.TID 0000.0001)                   T
(PID.TID 0000.0001)     ;
(PID.TID 0000.0001) doAB_onGtGs = /* apply AB on Tendencies (rather than on T,S)*/
(PID.TID 0000.0001)                   T
(PID.TID 0000.0001)     ;
(PID.TID 0000.0001) abEps =   /* Adams-Bashforth-2 stabilizing weight */
(PID.TID 0000.0001)                 1.000000000000000E-01
(PID.TID 0000.0001)     ;
(PID.TID 0000.0001) tauCD =   /* CD coupling time-scale ( s ) */
(PID.TID 0000.0001)                 3.214280000000000E+05
(PID.TID 0000.0001)     ;
(PID.TID 0000.0001) rCD =   /* Normalised CD coupling parameter */
(PID.TID 0000.0001)                 9.962666600296178E-01
(PID.TID 0000.0001)     ;
(PID.TID 0000.0001) pickupStrictlyMatch= /* stop if pickup do not strictly match */
(PID.TID 0000.0001)                   T
(PID.TID 0000.0001)     ;
(PID.TID 0000.0001) nIter0 =   /* Run starting timestep number  */
(PID.TID 0000.0001)                       0
(PID.TID 0000.0001)     ;
(PID.TID 0000.0001) nTimeSteps =   /* Number of timesteps */
(PID.TID 0000.0001)                      20
(PID.TID 0000.0001)     ;
(PID.TID 0000.0001) baseTime =   /* Model base time ( s ). */
(PID.TID 0000.0001)                 0.000000000000000E+00
(PID.TID 0000.0001)     ;
(PID.TID 0000.0001) startTime =   /* Run start time ( s ). */
(PID.TID 0000.0001)                 0.000000000000000E+00
(PID.TID 0000.0001)     ;
(PID.TID 0000.0001) endTime =   /* Integration ending time ( s ). */
(PID.TID 0000.0001)                 8.640000000000000E+05
(PID.TID 0000.0001)     ;
(PID.TID 0000.0001) pChkPtFreq =   /* Permanent restart/checkpoint file interval ( s ). */
(PID.TID 0000.0001)                 3.110400000000000E+08
(PID.TID 0000.0001)     ;
(PID.TID 0000.0001) chkPtFreq =   /* Rolling restart/checkpoint file interval ( s ). */
(PID.TID 0000.0001)                 0.000000000000000E+00
(PID.TID 0000.0001)     ;
(PID.TID 0000.0001) pickup_write_mdsio =   /* Model IO flag. */
(PID.TID 0000.0001)                   T
(PID.TID 0000.0001)     ;
(PID.TID 0000.0001) pickup_read_mdsio =   /* Model IO flag. */
(PID.TID 0000.0001)                   T
(PID.TID 0000.0001)     ;
(PID.TID 0000.0001) pickup_write_immed =   /* Model IO flag. */
(PID.TID 0000.0001)                   F
(PID.TID 0000.0001)     ;
(PID.TID 0000.0001) writePickupAtEnd =   /* Model IO flag. */
(PID.TID 0000.0001)                   T
(PID.TID 0000.0001)     ;
(PID.TID 0000.0001) dumpFreq =   /* Model state write out interval ( s ). */
(PID.TID 0000.0001)                 8.640000000000000E+05
(PID.TID 0000.0001)     ;
(PID.TID 0000.0001) dumpInitAndLast= /* write out Initial & Last iter. model state */
(PID.TID 0000.0001)                   T
(PID.TID 0000.0001)     ;
(PID.TID 0000.0001) snapshot_mdsio =   /* Model IO flag. */
(PID.TID 0000.0001)                   T
(PID.TID 0000.0001)     ;
(PID.TID 0000.0001) monitorFreq =   /* Monitor output interval ( s ). */
(PID.TID 0000.0001)                 1.000000000000000E+00
(PID.TID 0000.0001)     ;
(PID.TID 0000.0001) monitorSelect = /* select group of variables to monitor */
(PID.TID 0000.0001)                       3
(PID.TID 0000.0001)     ;
(PID.TID 0000.0001) monitor_stdio =   /* Model IO flag. */
(PID.TID 0000.0001)                   T
(PID.TID 0000.0001)     ;
(PID.TID 0000.0001) externForcingPeriod =   /* forcing period (s) */
(PID.TID 0000.0001)                 2.592000000000000E+06
(PID.TID 0000.0001)     ;
(PID.TID 0000.0001) externForcingCycle =   /* period of the cyle (s). */
(PID.TID 0000.0001)                 3.110400000000000E+07
(PID.TID 0000.0001)     ;
(PID.TID 0000.0001) tauThetaClimRelax =   /* relaxation time scale (s) */
(PID.TID 0000.0001)                 5.184000000000000E+06
(PID.TID 0000.0001)     ;
(PID.TID 0000.0001) tauSaltClimRelax =   /* relaxation time scale (s) */
(PID.TID 0000.0001)                 1.555200000000000E+07
(PID.TID 0000.0001)     ;
(PID.TID 0000.0001) latBandClimRelax =   /* max. Lat. where relaxation */
(PID.TID 0000.0001)                 1.800000000000000E+02
(PID.TID 0000.0001)     ;
(PID.TID 0000.0001) //
(PID.TID 0000.0001) // Gridding paramters ( PARM04 in namelist )
(PID.TID 0000.0001) //
(PID.TID 0000.0001) usingCartesianGrid = /* Cartesian coordinates flag ( True/False ) */
(PID.TID 0000.0001)                   F
(PID.TID 0000.0001)     ;
(PID.TID 0000.0001) usingCylindricalGrid = /* Cylindrical coordinates flag ( True/False ) */
(PID.TID 0000.0001)                   F
(PID.TID 0000.0001)     ;
(PID.TID 0000.0001) usingSphericalPolarGrid = /* Spherical coordinates flag ( True/False ) */
(PID.TID 0000.0001)                   T
(PID.TID 0000.0001)     ;
(PID.TID 0000.0001) usingCurvilinearGrid = /* Curvilinear coordinates flag ( True/False ) */
(PID.TID 0000.0001)                   F
(PID.TID 0000.0001)     ;
(PID.TID 0000.0001) Ro_SeaLevel = /* r(1) ( units of r ==  m ) */
(PID.TID 0000.0001)                 0.000000000000000E+00
(PID.TID 0000.0001)     ;
(PID.TID 0000.0001) rkSign =   /* index orientation relative to vertical coordinate */
(PID.TID 0000.0001)                -1.000000000000000E+00
(PID.TID 0000.0001)     ;
(PID.TID 0000.0001) gravitySign = /* gravity orientation relative to vertical coordinate */
(PID.TID 0000.0001)                -1.000000000000000E+00
(PID.TID 0000.0001)     ;
(PID.TID 0000.0001) mass2rUnit = /* convert mass per unit area [kg/m2] to r-units [m] */
(PID.TID 0000.0001)                 9.661835748792270E-04
(PID.TID 0000.0001)     ;
(PID.TID 0000.0001) rUnit2mass = /* convert r-units [m] to mass per unit area [kg/m2] */
(PID.TID 0000.0001)                 1.035000000000000E+03
(PID.TID 0000.0001)     ;
(PID.TID 0000.0001) drC =   /* C spacing ( units of r ) */
(PID.TID 0000.0001)                 2.500000000000000E+01,      /* K =  1 */
(PID.TID 0000.0001)                 6.000000000000000E+01,      /* K =  2 */
(PID.TID 0000.0001)                 8.500000000000000E+01,      /* K =  3 */
(PID.TID 0000.0001)                 1.200000000000000E+02,      /* K =  4 */
(PID.TID 0000.0001)                 1.650000000000000E+02,      /* K =  5 */
(PID.TID 0000.0001)                 2.150000000000000E+02,      /* K =  6 */
(PID.TID 0000.0001)                 2.650000000000000E+02,      /* K =  7 */
(PID.TID 0000.0001)                 3.150000000000000E+02,      /* K =  8 */
(PID.TID 0000.0001)                 3.650000000000000E+02,      /* K =  9 */
(PID.TID 0000.0001)                 4.150000000000000E+02,      /* K = 10 */
(PID.TID 0000.0001)                 4.650000000000000E+02,      /* K = 11 */
(PID.TID 0000.0001)                 5.150000000000000E+02,      /* K = 12 */
(PID.TID 0000.0001)                 5.650000000000000E+02,      /* K = 13 */
(PID.TID 0000.0001)                 6.150000000000000E+02,      /* K = 14 */
(PID.TID 0000.0001)                 6.650000000000000E+02       /* K = 15 */
(PID.TID 0000.0001)     ;
(PID.TID 0000.0001) drF =   /* W spacing ( units of r ) */
(PID.TID 0000.0001)                 5.000000000000000E+01,      /* K =  1 */
(PID.TID 0000.0001)                 7.000000000000000E+01,      /* K =  2 */
(PID.TID 0000.0001)                 1.000000000000000E+02,      /* K =  3 */
(PID.TID 0000.0001)                 1.400000000000000E+02,      /* K =  4 */
(PID.TID 0000.0001)                 1.900000000000000E+02,      /* K =  5 */
(PID.TID 0000.0001)                 2.400000000000000E+02,      /* K =  6 */
(PID.TID 0000.0001)                 2.900000000000000E+02,      /* K =  7 */
(PID.TID 0000.0001)                 3.400000000000000E+02,      /* K =  8 */
(PID.TID 0000.0001)                 3.900000000000000E+02,      /* K =  9 */
(PID.TID 0000.0001)                 4.400000000000000E+02,      /* K = 10 */
(PID.TID 0000.0001)                 4.900000000000000E+02,      /* K = 11 */
(PID.TID 0000.0001)                 5.400000000000000E+02,      /* K = 12 */
(PID.TID 0000.0001)                 5.900000000000000E+02,      /* K = 13 */
(PID.TID 0000.0001)                 6.400000000000000E+02,      /* K = 14 */
(PID.TID 0000.0001)                 6.900000000000000E+02       /* K = 15 */
(PID.TID 0000.0001)     ;
(PID.TID 0000.0001) delX = /* U spacing ( m - cartesian, degrees - spherical ) */
(PID.TID 0000.0001)    90 @  4.000000000000000E+00              /* I =  1: 90 */
(PID.TID 0000.0001)     ;
(PID.TID 0000.0001) delY = /* V spacing ( m - cartesian, degrees - spherical ) */
(PID.TID 0000.0001)    40 @  4.000000000000000E+00              /* J =  1: 40 */
(PID.TID 0000.0001)     ;
(PID.TID 0000.0001) xgOrigin = /* X-axis origin of West  edge (cartesian: m, lat-lon: deg.) */
(PID.TID 0000.0001)                 0.000000000000000E+00
(PID.TID 0000.0001)     ;
(PID.TID 0000.0001) ygOrigin = /* Y-axis origin of South edge (cartesian: m, lat-lon: deg.) */
(PID.TID 0000.0001)                -8.000000000000000E+01
(PID.TID 0000.0001)     ;
(PID.TID 0000.0001) rSphere =  /* Radius ( ignored - cartesian, m - spherical ) */
(PID.TID 0000.0001)                 6.370000000000000E+06
(PID.TID 0000.0001)     ;
(PID.TID 0000.0001) deepAtmosphere = /* Deep/Shallow Atmosphere flag (True/False) */
(PID.TID 0000.0001)                   F
(PID.TID 0000.0001)     ;
(PID.TID 0000.0001) xC =  /* xC(:,1,:,1) : P-point X coord ( deg. or m if cartesian) */
(PID.TID 0000.0001)                 2.000000000000000E+00,      /* I =  1 */
(PID.TID 0000.0001)                 6.000000000000000E+00,      /* I =  2 */
(PID.TID 0000.0001)                 1.000000000000000E+01,      /* I =  3 */
(PID.TID 0000.0001)      . . .
(PID.TID 0000.0001)                 8.200000000000000E+01,      /* I = 21 */
(PID.TID 0000.0001)                 8.600000000000000E+01,      /* I = 22 */
(PID.TID 0000.0001)                 9.000000000000000E+01,      /* I = 23 */
(PID.TID 0000.0001)                 9.400000000000000E+01,      /* I = 24 */
(PID.TID 0000.0001)                 9.800000000000000E+01,      /* I = 25 */
(PID.TID 0000.0001)                 1.020000000000000E+02,      /* I = 26 */
(PID.TID 0000.0001)      . . .
(PID.TID 0000.0001)                 1.700000000000000E+02,      /* I = 43 */
(PID.TID 0000.0001)                 1.740000000000000E+02,      /* I = 44 */
(PID.TID 0000.0001)                 1.780000000000000E+02,      /* I = 45 */
(PID.TID 0000.0001)                 1.820000000000000E+02,      /* I = 46 */
(PID.TID 0000.0001)                 1.860000000000000E+02,      /* I = 47 */
(PID.TID 0000.0001)                 1.900000000000000E+02,      /* I = 48 */
(PID.TID 0000.0001)      . . .
(PID.TID 0000.0001)                 2.580000000000000E+02,      /* I = 65 */
(PID.TID 0000.0001)                 2.620000000000000E+02,      /* I = 66 */
(PID.TID 0000.0001)                 2.660000000000000E+02,      /* I = 67 */
(PID.TID 0000.0001)                 2.700000000000000E+02,      /* I = 68 */
(PID.TID 0000.0001)                 2.740000000000000E+02,      /* I = 69 */
(PID.TID 0000.0001)                 2.780000000000000E+02,      /* I = 70 */
(PID.TID 0000.0001)      . . .
(PID.TID 0000.0001)                 3.500000000000000E+02,      /* I = 88 */
(PID.TID 0000.0001)                 3.540000000000000E+02,      /* I = 89 */
(PID.TID 0000.0001)                 3.580000000000000E+02       /* I = 90 */
(PID.TID 0000.0001)     ;
(PID.TID 0000.0001) yC =  /* yC(1,:,1,:) : P-point Y coord ( deg. or m if cartesian) */
(PID.TID 0000.0001)                -7.800000000000000E+01,      /* J =  1 */
(PID.TID 0000.0001)                -7.400000000000000E+01,      /* J =  2 */
(PID.TID 0000.0001)                -7.000000000000000E+01,      /* J =  3 */
(PID.TID 0000.0001)                -6.600000000000000E+01,      /* J =  4 */
(PID.TID 0000.0001)                -6.200000000000000E+01,      /* J =  5 */
(PID.TID 0000.0001)                -5.800000000000000E+01,      /* J =  6 */
(PID.TID 0000.0001)                -5.400000000000000E+01,      /* J =  7 */
(PID.TID 0000.0001)                -5.000000000000000E+01,      /* J =  8 */
(PID.TID 0000.0001)                -4.600000000000000E+01,      /* J =  9 */
(PID.TID 0000.0001)                -4.200000000000000E+01,      /* J = 10 */
(PID.TID 0000.0001)                -3.800000000000000E+01,      /* J = 11 */
(PID.TID 0000.0001)                -3.400000000000000E+01,      /* J = 12 */
(PID.TID 0000.0001)                -3.000000000000000E+01,      /* J = 13 */
(PID.TID 0000.0001)                -2.600000000000000E+01,      /* J = 14 */
(PID.TID 0000.0001)                -2.200000000000000E+01,      /* J = 15 */
(PID.TID 0000.0001)                -1.800000000000000E+01,      /* J = 16 */
(PID.TID 0000.0001)                -1.400000000000000E+01,      /* J = 17 */
(PID.TID 0000.0001)                -1.000000000000000E+01,      /* J = 18 */
(PID.TID 0000.0001)                -6.000000000000000E+00,      /* J = 19 */
(PID.TID 0000.0001)                -2.000000000000000E+00,      /* J = 20 */
(PID.TID 0000.0001)                 2.000000000000000E+00,      /* J = 21 */
(PID.TID 0000.0001)                 6.000000000000000E+00,      /* J = 22 */
(PID.TID 0000.0001)                 1.000000000000000E+01,      /* J = 23 */
(PID.TID 0000.0001)                 1.400000000000000E+01,      /* J = 24 */
(PID.TID 0000.0001)                 1.800000000000000E+01,      /* J = 25 */
(PID.TID 0000.0001)                 2.200000000000000E+01,      /* J = 26 */
(PID.TID 0000.0001)                 2.600000000000000E+01,      /* J = 27 */
(PID.TID 0000.0001)                 3.000000000000000E+01,      /* J = 28 */
(PID.TID 0000.0001)                 3.400000000000000E+01,      /* J = 29 */
(PID.TID 0000.0001)                 3.800000000000000E+01,      /* J = 30 */
(PID.TID 0000.0001)                 4.200000000000000E+01,      /* J = 31 */
(PID.TID 0000.0001)                 4.600000000000000E+01,      /* J = 32 */
(PID.TID 0000.0001)                 5.000000000000000E+01,      /* J = 33 */
(PID.TID 0000.0001)                 5.400000000000000E+01,      /* J = 34 */
(PID.TID 0000.0001)                 5.800000000000000E+01,      /* J = 35 */
(PID.TID 0000.0001)                 6.200000000000000E+01,      /* J = 36 */
(PID.TID 0000.0001)                 6.600000000000000E+01,      /* J = 37 */
(PID.TID 0000.0001)                 7.000000000000000E+01,      /* J = 38 */
(PID.TID 0000.0001)                 7.400000000000000E+01,      /* J = 39 */
(PID.TID 0000.0001)                 7.800000000000000E+01       /* J = 40 */
(PID.TID 0000.0001)     ;
(PID.TID 0000.0001) rcoord = /* P-point R coordinate (  units of r ) */
(PID.TID 0000.0001)                -2.500000000000000E+01,      /* K =  1 */
(PID.TID 0000.0001)                -8.500000000000000E+01,      /* K =  2 */
(PID.TID 0000.0001)                -1.700000000000000E+02,      /* K =  3 */
(PID.TID 0000.0001)                -2.900000000000000E+02,      /* K =  4 */
(PID.TID 0000.0001)                -4.550000000000000E+02,      /* K =  5 */
(PID.TID 0000.0001)                -6.700000000000000E+02,      /* K =  6 */
(PID.TID 0000.0001)                -9.350000000000000E+02,      /* K =  7 */
(PID.TID 0000.0001)                -1.250000000000000E+03,      /* K =  8 */
(PID.TID 0000.0001)                -1.615000000000000E+03,      /* K =  9 */
(PID.TID 0000.0001)                -2.030000000000000E+03,      /* K = 10 */
(PID.TID 0000.0001)                -2.495000000000000E+03,      /* K = 11 */
(PID.TID 0000.0001)                -3.010000000000000E+03,      /* K = 12 */
(PID.TID 0000.0001)                -3.575000000000000E+03,      /* K = 13 */
(PID.TID 0000.0001)                -4.190000000000000E+03,      /* K = 14 */
(PID.TID 0000.0001)                -4.855000000000000E+03       /* K = 15 */
(PID.TID 0000.0001)     ;
(PID.TID 0000.0001) rF =   /* W-Interf. R coordinate (  units of r ) */
(PID.TID 0000.0001)                 0.000000000000000E+00,      /* K =  1 */
(PID.TID 0000.0001)                -5.000000000000000E+01,      /* K =  2 */
(PID.TID 0000.0001)                -1.200000000000000E+02,      /* K =  3 */
(PID.TID 0000.0001)                -2.200000000000000E+02,      /* K =  4 */
(PID.TID 0000.0001)                -3.600000000000000E+02,      /* K =  5 */
(PID.TID 0000.0001)                -5.500000000000000E+02,      /* K =  6 */
(PID.TID 0000.0001)                -7.900000000000000E+02,      /* K =  7 */
(PID.TID 0000.0001)                -1.080000000000000E+03,      /* K =  8 */
(PID.TID 0000.0001)                -1.420000000000000E+03,      /* K =  9 */
(PID.TID 0000.0001)                -1.810000000000000E+03,      /* K = 10 */
(PID.TID 0000.0001)                -2.250000000000000E+03,      /* K = 11 */
(PID.TID 0000.0001)                -2.740000000000000E+03,      /* K = 12 */
(PID.TID 0000.0001)                -3.280000000000000E+03,      /* K = 13 */
(PID.TID 0000.0001)                -3.870000000000000E+03,      /* K = 14 */
(PID.TID 0000.0001)                -4.510000000000000E+03,      /* K = 15 */
(PID.TID 0000.0001)                -5.200000000000000E+03       /* K = 16 */
(PID.TID 0000.0001)     ;
(PID.TID 0000.0001) deepFacC = /* deep-model grid factor @ cell-Center (-) */
(PID.TID 0000.0001)    15 @  1.000000000000000E+00              /* K =  1: 15 */
(PID.TID 0000.0001)     ;
(PID.TID 0000.0001) deepFacF = /* deep-model grid factor @ W-Interface (-) */
(PID.TID 0000.0001)    16 @  1.000000000000000E+00              /* K =  1: 16 */
(PID.TID 0000.0001)     ;
(PID.TID 0000.0001) rVel2wUnit = /* convert units: rVel -> wSpeed (=1 if z-coord)*/
(PID.TID 0000.0001)    16 @  1.000000000000000E+00              /* K =  1: 16 */
(PID.TID 0000.0001)     ;
(PID.TID 0000.0001) wUnit2rVel = /* convert units: wSpeed -> rVel (=1 if z-coord)*/
(PID.TID 0000.0001)    16 @  1.000000000000000E+00              /* K =  1: 16 */
(PID.TID 0000.0001)     ;
(PID.TID 0000.0001) dBdrRef = /* Vertical gradient of reference boyancy [(m/s/r)^2)] */
(PID.TID 0000.0001)    15 @  0.000000000000000E+00              /* K =  1: 15 */
(PID.TID 0000.0001)     ;
(PID.TID 0000.0001) rotateGrid = /* use rotated grid ( True/False ) */
(PID.TID 0000.0001)                   F
(PID.TID 0000.0001)     ;
(PID.TID 0000.0001) phiEuler = /* Euler angle, rotation about original z-coordinate [rad] */
(PID.TID 0000.0001)                 0.000000000000000E+00
(PID.TID 0000.0001)     ;
(PID.TID 0000.0001) thetaEuler = /* Euler angle, rotation about new x-coordinate [rad] */
(PID.TID 0000.0001)                 0.000000000000000E+00
(PID.TID 0000.0001)     ;
(PID.TID 0000.0001) psiEuler = /* Euler angle, rotation about new z-coordinate [rad] */
(PID.TID 0000.0001)                 0.000000000000000E+00
(PID.TID 0000.0001)     ;
(PID.TID 0000.0001) dxF =  /* dxF(:,1,:,1) ( units: m ) */
(PID.TID 0000.0001)    90 @  9.246038586187513E+04              /* I =  1: 90 */
(PID.TID 0000.0001)     ;
(PID.TID 0000.0001) dxF =  /* dxF(1,:,1,:) ( units: m ) */
(PID.TID 0000.0001)                 9.246038586187513E+04,      /* J =  1 */
(PID.TID 0000.0001)                 1.225786591246834E+05,      /* J =  2 */
(PID.TID 0000.0001)                 1.520997414818001E+05,      /* J =  3 */
(PID.TID 0000.0001)                 1.808798091874300E+05,      /* J =  4 */
(PID.TID 0000.0001)                 2.087786486446736E+05,      /* J =  5 */
(PID.TID 0000.0001)                 2.356603395120765E+05,      /* J =  6 */
(PID.TID 0000.0001)                 2.613939168938713E+05,      /* J =  7 */
(PID.TID 0000.0001)                 2.858540093877838E+05,      /* J =  8 */
(PID.TID 0000.0001)                 3.089214498819034E+05,      /* J =  9 */
(PID.TID 0000.0001)                 3.304838561248741E+05,      /* J = 10 */
(PID.TID 0000.0001)                 3.504361782409254E+05,      /* J = 11 */
(PID.TID 0000.0001)                 3.686812105223082E+05,      /* J = 12 */
(PID.TID 0000.0001)                 3.851300650057323E+05,      /* J = 13 */
(PID.TID 0000.0001)                 3.997026045255871E+05,      /* J = 14 */
(PID.TID 0000.0001)                 4.123278331341585E+05,      /* J = 15 */
(PID.TID 0000.0001)                 4.229442419867491E+05,      /* J = 16 */
(PID.TID 0000.0001)                 4.315001090065870E+05,      /* J = 17 */
(PID.TID 0000.0001)                 4.379537508695838E+05,      /* J = 18 */
(PID.TID 0000.0001)                 4.422737260813012E+05,      /* J = 19 */
(PID.TID 0000.0001)     2 @  4.444389881567502E+05,             /* J = 20: 21 */
(PID.TID 0000.0001)                 4.422737260813012E+05,      /* J = 22 */
(PID.TID 0000.0001)                 4.379537508695838E+05,      /* J = 23 */
(PID.TID 0000.0001)                 4.315001090065870E+05,      /* J = 24 */
(PID.TID 0000.0001)                 4.229442419867491E+05,      /* J = 25 */
(PID.TID 0000.0001)                 4.123278331341585E+05,      /* J = 26 */
(PID.TID 0000.0001)                 3.997026045255871E+05,      /* J = 27 */
(PID.TID 0000.0001)                 3.851300650057323E+05,      /* J = 28 */
(PID.TID 0000.0001)                 3.686812105223082E+05,      /* J = 29 */
(PID.TID 0000.0001)                 3.504361782409254E+05,      /* J = 30 */
(PID.TID 0000.0001)                 3.304838561248741E+05,      /* J = 31 */
(PID.TID 0000.0001)                 3.089214498819034E+05,      /* J = 32 */
(PID.TID 0000.0001)                 2.858540093877838E+05,      /* J = 33 */
(PID.TID 0000.0001)                 2.613939168938713E+05,      /* J = 34 */
(PID.TID 0000.0001)                 2.356603395120765E+05,      /* J = 35 */
(PID.TID 0000.0001)                 2.087786486446736E+05,      /* J = 36 */
(PID.TID 0000.0001)                 1.808798091874300E+05,      /* J = 37 */
(PID.TID 0000.0001)                 1.520997414818001E+05,      /* J = 38 */
(PID.TID 0000.0001)                 1.225786591246834E+05,      /* J = 39 */
(PID.TID 0000.0001)                 9.246038586187513E+04       /* J = 40 */
(PID.TID 0000.0001)     ;
(PID.TID 0000.0001) dyF =  /* dyF(:,1,:,1) ( units: m ) */
(PID.TID 0000.0001)    90 @  4.447098934081552E+05              /* I =  1: 90 */
(PID.TID 0000.0001)     ;
(PID.TID 0000.0001) dyF =  /* dyF(1,:,1,:) ( units: m ) */
(PID.TID 0000.0001)    40 @  4.447098934081552E+05              /* J =  1: 40 */
(PID.TID 0000.0001)     ;
(PID.TID 0000.0001) dxG =  /* dxG(:,1,:,1) ( units: m ) */
(PID.TID 0000.0001)    90 @  7.722306258078101E+04              /* I =  1: 90 */
(PID.TID 0000.0001)     ;
(PID.TID 0000.0001) dxG =  /* dxG(1,:,1,:) ( units: m ) */
(PID.TID 0000.0001)                 7.722306258078101E+04,      /* J =  1 */
(PID.TID 0000.0001)                 1.075850604052271E+05,      /* J =  2 */
(PID.TID 0000.0001)                 1.374229146297914E+05,      /* J =  3 */
(PID.TID 0000.0001)                 1.665912582279823E+05,      /* J =  4 */
(PID.TID 0000.0001)                 1.949479859617814E+05,      /* J =  5 */
(PID.TID 0000.0001)                 2.223549467040777E+05,      /* J =  6 */
(PID.TID 0000.0001)                 2.486786164970726E+05,      /* J =  7 */
(PID.TID 0000.0001)                 2.737907490675810E+05,      /* J =  8 */
(PID.TID 0000.0001)                 2.975690006299821E+05,      /* J =  9 */
(PID.TID 0000.0001)                 3.198975259328452E+05,      /* J = 10 */
(PID.TID 0000.0001)                 3.406675426453503E+05,      /* J = 11 */
(PID.TID 0000.0001)                 3.597778613338690E+05,      /* J = 12 */
(PID.TID 0000.0001)                 3.771353784467131E+05,      /* J = 13 */
(PID.TID 0000.0001)                 3.926555299052806E+05,      /* J = 14 */
(PID.TID 0000.0001)                 4.062627030917454E+05,      /* J = 15 */
(PID.TID 0000.0001)                 4.178906052261313E+05,      /* J = 16 */
(PID.TID 0000.0001)                 4.274825863380723E+05,      /* J = 17 */
(PID.TID 0000.0001)                 4.349919152597734E+05,      /* J = 18 */
(PID.TID 0000.0001)                 4.403820072955634E+05,      /* J = 19 */
(PID.TID 0000.0001)                 4.436266024588540E+05,      /* J = 20 */
(PID.TID 0000.0001)                 4.447098934081552E+05,      /* J = 21 */
(PID.TID 0000.0001)                 4.436266024588540E+05,      /* J = 22 */
(PID.TID 0000.0001)                 4.403820072955634E+05,      /* J = 23 */
(PID.TID 0000.0001)                 4.349919152597734E+05,      /* J = 24 */
(PID.TID 0000.0001)                 4.274825863380723E+05,      /* J = 25 */
(PID.TID 0000.0001)                 4.178906052261313E+05,      /* J = 26 */
(PID.TID 0000.0001)                 4.062627030917454E+05,      /* J = 27 */
(PID.TID 0000.0001)                 3.926555299052806E+05,      /* J = 28 */
(PID.TID 0000.0001)                 3.771353784467131E+05,      /* J = 29 */
(PID.TID 0000.0001)                 3.597778613338690E+05,      /* J = 30 */
(PID.TID 0000.0001)                 3.406675426453503E+05,      /* J = 31 */
(PID.TID 0000.0001)                 3.198975259328452E+05,      /* J = 32 */
(PID.TID 0000.0001)                 2.975690006299821E+05,      /* J = 33 */
(PID.TID 0000.0001)                 2.737907490675810E+05,      /* J = 34 */
(PID.TID 0000.0001)                 2.486786164970726E+05,      /* J = 35 */
(PID.TID 0000.0001)                 2.223549467040777E+05,      /* J = 36 */
(PID.TID 0000.0001)                 1.949479859617814E+05,      /* J = 37 */
(PID.TID 0000.0001)                 1.665912582279823E+05,      /* J = 38 */
(PID.TID 0000.0001)                 1.374229146297914E+05,      /* J = 39 */
(PID.TID 0000.0001)                 1.075850604052271E+05       /* J = 40 */
(PID.TID 0000.0001)     ;
(PID.TID 0000.0001) dyG =  /* dyG(:,1,:,1) ( units: m ) */
(PID.TID 0000.0001)    90 @  4.447098934081552E+05              /* I =  1: 90 */
(PID.TID 0000.0001)     ;
(PID.TID 0000.0001) dyG =  /* dyG(1,:,1,:) ( units: m ) */
(PID.TID 0000.0001)    40 @  4.447098934081552E+05              /* J =  1: 40 */
(PID.TID 0000.0001)     ;
(PID.TID 0000.0001) dxC =  /* dxC(:,1,:,1) ( units: m ) */
(PID.TID 0000.0001)    90 @  9.246038586187513E+04              /* I =  1: 90 */
(PID.TID 0000.0001)     ;
(PID.TID 0000.0001) dxC =  /* dxC(1,:,1,:) ( units: m ) */
(PID.TID 0000.0001)                 9.246038586187513E+04,      /* J =  1 */
(PID.TID 0000.0001)                 1.225786591246834E+05,      /* J =  2 */
(PID.TID 0000.0001)                 1.520997414818001E+05,      /* J =  3 */
(PID.TID 0000.0001)                 1.808798091874300E+05,      /* J =  4 */
(PID.TID 0000.0001)                 2.087786486446736E+05,      /* J =  5 */
(PID.TID 0000.0001)                 2.356603395120765E+05,      /* J =  6 */
(PID.TID 0000.0001)                 2.613939168938713E+05,      /* J =  7 */
(PID.TID 0000.0001)                 2.858540093877838E+05,      /* J =  8 */
(PID.TID 0000.0001)                 3.089214498819034E+05,      /* J =  9 */
(PID.TID 0000.0001)                 3.304838561248741E+05,      /* J = 10 */
(PID.TID 0000.0001)                 3.504361782409254E+05,      /* J = 11 */
(PID.TID 0000.0001)                 3.686812105223082E+05,      /* J = 12 */
(PID.TID 0000.0001)                 3.851300650057323E+05,      /* J = 13 */
(PID.TID 0000.0001)                 3.997026045255871E+05,      /* J = 14 */
(PID.TID 0000.0001)                 4.123278331341585E+05,      /* J = 15 */
(PID.TID 0000.0001)                 4.229442419867491E+05,      /* J = 16 */
(PID.TID 0000.0001)                 4.315001090065870E+05,      /* J = 17 */
(PID.TID 0000.0001)                 4.379537508695838E+05,      /* J = 18 */
(PID.TID 0000.0001)                 4.422737260813012E+05,      /* J = 19 */
(PID.TID 0000.0001)     2 @  4.444389881567502E+05,             /* J = 20: 21 */
(PID.TID 0000.0001)                 4.422737260813012E+05,      /* J = 22 */
(PID.TID 0000.0001)                 4.379537508695838E+05,      /* J = 23 */
(PID.TID 0000.0001)                 4.315001090065870E+05,      /* J = 24 */
(PID.TID 0000.0001)                 4.229442419867491E+05,      /* J = 25 */
(PID.TID 0000.0001)                 4.123278331341585E+05,      /* J = 26 */
(PID.TID 0000.0001)                 3.997026045255871E+05,      /* J = 27 */
(PID.TID 0000.0001)                 3.851300650057323E+05,      /* J = 28 */
(PID.TID 0000.0001)                 3.686812105223082E+05,      /* J = 29 */
(PID.TID 0000.0001)                 3.504361782409254E+05,      /* J = 30 */
(PID.TID 0000.0001)                 3.304838561248741E+05,      /* J = 31 */
(PID.TID 0000.0001)                 3.089214498819034E+05,      /* J = 32 */
(PID.TID 0000.0001)                 2.858540093877838E+05,      /* J = 33 */
(PID.TID 0000.0001)                 2.613939168938713E+05,      /* J = 34 */
(PID.TID 0000.0001)                 2.356603395120765E+05,      /* J = 35 */
(PID.TID 0000.0001)                 2.087786486446736E+05,      /* J = 36 */
(PID.TID 0000.0001)                 1.808798091874300E+05,      /* J = 37 */
(PID.TID 0000.0001)                 1.520997414818001E+05,      /* J = 38 */
(PID.TID 0000.0001)                 1.225786591246834E+05,      /* J = 39 */
(PID.TID 0000.0001)                 9.246038586187513E+04       /* J = 40 */
(PID.TID 0000.0001)     ;
(PID.TID 0000.0001) dyC =  /* dyC(:,1,:,1) ( units: m ) */
(PID.TID 0000.0001)    90 @  4.447098934081552E+05              /* I =  1: 90 */
(PID.TID 0000.0001)     ;
(PID.TID 0000.0001) dyC =  /* dyC(1,:,1,:) ( units: m ) */
(PID.TID 0000.0001)    40 @  4.447098934081552E+05              /* J =  1: 40 */
(PID.TID 0000.0001)     ;
(PID.TID 0000.0001) dxV =  /* dxV(:,1,:,1) ( units: m ) */
(PID.TID 0000.0001)    90 @  7.722306258078101E+04              /* I =  1: 90 */
(PID.TID 0000.0001)     ;
(PID.TID 0000.0001) dxV =  /* dxV(1,:,1,:) ( units: m ) */
(PID.TID 0000.0001)                 7.722306258078101E+04,      /* J =  1 */
(PID.TID 0000.0001)                 1.075850604052271E+05,      /* J =  2 */
(PID.TID 0000.0001)                 1.374229146297914E+05,      /* J =  3 */
(PID.TID 0000.0001)                 1.665912582279823E+05,      /* J =  4 */
(PID.TID 0000.0001)                 1.949479859617814E+05,      /* J =  5 */
(PID.TID 0000.0001)                 2.223549467040777E+05,      /* J =  6 */
(PID.TID 0000.0001)                 2.486786164970726E+05,      /* J =  7 */
(PID.TID 0000.0001)                 2.737907490675810E+05,      /* J =  8 */
(PID.TID 0000.0001)                 2.975690006299821E+05,      /* J =  9 */
(PID.TID 0000.0001)                 3.198975259328452E+05,      /* J = 10 */
(PID.TID 0000.0001)                 3.406675426453503E+05,      /* J = 11 */
(PID.TID 0000.0001)                 3.597778613338690E+05,      /* J = 12 */
(PID.TID 0000.0001)                 3.771353784467131E+05,      /* J = 13 */
(PID.TID 0000.0001)                 3.926555299052806E+05,      /* J = 14 */
(PID.TID 0000.0001)                 4.062627030917454E+05,      /* J = 15 */
(PID.TID 0000.0001)                 4.178906052261313E+05,      /* J = 16 */
(PID.TID 0000.0001)                 4.274825863380723E+05,      /* J = 17 */
(PID.TID 0000.0001)                 4.349919152597734E+05,      /* J = 18 */
(PID.TID 0000.0001)                 4.403820072955634E+05,      /* J = 19 */
(PID.TID 0000.0001)                 4.436266024588540E+05,      /* J = 20 */
(PID.TID 0000.0001)                 4.447098934081552E+05,      /* J = 21 */
(PID.TID 0000.0001)                 4.436266024588540E+05,      /* J = 22 */
(PID.TID 0000.0001)                 4.403820072955634E+05,      /* J = 23 */
(PID.TID 0000.0001)                 4.349919152597734E+05,      /* J = 24 */
(PID.TID 0000.0001)                 4.274825863380723E+05,      /* J = 25 */
(PID.TID 0000.0001)                 4.178906052261313E+05,      /* J = 26 */
(PID.TID 0000.0001)                 4.062627030917454E+05,      /* J = 27 */
(PID.TID 0000.0001)                 3.926555299052806E+05,      /* J = 28 */
(PID.TID 0000.0001)                 3.771353784467131E+05,      /* J = 29 */
(PID.TID 0000.0001)                 3.597778613338690E+05,      /* J = 30 */
(PID.TID 0000.0001)                 3.406675426453503E+05,      /* J = 31 */
(PID.TID 0000.0001)                 3.198975259328452E+05,      /* J = 32 */
(PID.TID 0000.0001)                 2.975690006299821E+05,      /* J = 33 */
(PID.TID 0000.0001)                 2.737907490675810E+05,      /* J = 34 */
(PID.TID 0000.0001)                 2.486786164970726E+05,      /* J = 35 */
(PID.TID 0000.0001)                 2.223549467040777E+05,      /* J = 36 */
(PID.TID 0000.0001)                 1.949479859617814E+05,      /* J = 37 */
(PID.TID 0000.0001)                 1.665912582279823E+05,      /* J = 38 */
(PID.TID 0000.0001)                 1.374229146297914E+05,      /* J = 39 */
(PID.TID 0000.0001)                 1.075850604052271E+05       /* J = 40 */
(PID.TID 0000.0001)     ;
(PID.TID 0000.0001) dyU =  /* dyU(:,1,:,1) ( units: m ) */
(PID.TID 0000.0001)    90 @  4.447098934081552E+05              /* I =  1: 90 */
(PID.TID 0000.0001)     ;
(PID.TID 0000.0001) dyU =  /* dyU(1,:,1,:) ( units: m ) */
(PID.TID 0000.0001)    40 @  4.447098934081552E+05              /* J =  1: 40 */
(PID.TID 0000.0001)     ;
(PID.TID 0000.0001) rA  =  /* rA (:,1,:,1) ( units: m^2 ) */
(PID.TID 0000.0001)    90 @  4.110969866729047E+10              /* I =  1: 90 */
(PID.TID 0000.0001)     ;
(PID.TID 0000.0001) rA  =  /* rA (1,:,1,:) ( units: m^2 ) */
(PID.TID 0000.0001)                 4.110969866729047E+10,      /* J =  1 */
(PID.TID 0000.0001)                 5.450087291636665E+10,      /* J =  2 */
(PID.TID 0000.0001)                 6.762652439100235E+10,      /* J =  3 */
(PID.TID 0000.0001)                 8.042270623659998E+10,      /* J =  4 */
(PID.TID 0000.0001)                 9.282707674147523E+10,      /* J =  5 */
(PID.TID 0000.0001)                 1.047792030594103E+11,      /* J =  6 */
(PID.TID 0000.0001)                 1.162208556324093E+11,      /* J =  7 */
(PID.TID 0000.0001)                 1.270962918792468E+11,      /* J =  8 */
(PID.TID 0000.0001)                 1.373525277677229E+11,      /* J =  9 */
(PID.TID 0000.0001)                 1.469395959475426E+11,      /* J = 10 */
(PID.TID 0000.0001)                 1.558107891862220E+11,      /* J = 11 */
(PID.TID 0000.0001)                 1.639228879220326E+11,      /* J = 12 */
(PID.TID 0000.0001)                 1.712363708253573E+11,      /* J = 13 */
(PID.TID 0000.0001)                 1.777156073426415E+11,      /* J = 14 */
(PID.TID 0000.0001)                 1.833290312848623E+11,      /* J = 15 */
(PID.TID 0000.0001)                 1.880492946148330E+11,      /* J = 16 */
(PID.TID 0000.0001)                 1.918534006840893E+11,      /* J = 17 */
(PID.TID 0000.0001)                 1.947228162702492E+11,      /* J = 18 */
(PID.TID 0000.0001)                 1.966435618690094E+11,      /* J = 19 */
(PID.TID 0000.0001)     2 @  1.976062798008856E+11,             /* J = 20: 21 */
(PID.TID 0000.0001)                 1.966435618690094E+11,      /* J = 22 */
(PID.TID 0000.0001)                 1.947228162702492E+11,      /* J = 23 */
(PID.TID 0000.0001)                 1.918534006840893E+11,      /* J = 24 */
(PID.TID 0000.0001)                 1.880492946148330E+11,      /* J = 25 */
(PID.TID 0000.0001)                 1.833290312848623E+11,      /* J = 26 */
(PID.TID 0000.0001)                 1.777156073426415E+11,      /* J = 27 */
(PID.TID 0000.0001)                 1.712363708253573E+11,      /* J = 28 */
(PID.TID 0000.0001)                 1.639228879220326E+11,      /* J = 29 */
(PID.TID 0000.0001)                 1.558107891862220E+11,      /* J = 30 */
(PID.TID 0000.0001)                 1.469395959475426E+11,      /* J = 31 */
(PID.TID 0000.0001)                 1.373525277677229E+11,      /* J = 32 */
(PID.TID 0000.0001)                 1.270962918792468E+11,      /* J = 33 */
(PID.TID 0000.0001)                 1.162208556324093E+11,      /* J = 34 */
(PID.TID 0000.0001)                 1.047792030594103E+11,      /* J = 35 */
(PID.TID 0000.0001)                 9.282707674147523E+10,      /* J = 36 */
(PID.TID 0000.0001)                 8.042270623659998E+10,      /* J = 37 */
(PID.TID 0000.0001)                 6.762652439100235E+10,      /* J = 38 */
(PID.TID 0000.0001)                 5.450087291636665E+10,      /* J = 39 */
(PID.TID 0000.0001)                 4.110969866729047E+10       /* J = 40 */
(PID.TID 0000.0001)     ;
(PID.TID 0000.0001) rAw =  /* rAw(:,1,:,1) ( units: m^2 ) */
(PID.TID 0000.0001)    90 @  4.110969866729047E+10              /* I =  1: 90 */
(PID.TID 0000.0001)     ;
(PID.TID 0000.0001) rAw =  /* rAw(1,:,1,:) ( units: m^2 ) */
(PID.TID 0000.0001)                 4.110969866729047E+10,      /* J =  1 */
(PID.TID 0000.0001)                 5.450087291636665E+10,      /* J =  2 */
(PID.TID 0000.0001)                 6.762652439100235E+10,      /* J =  3 */
(PID.TID 0000.0001)                 8.042270623659998E+10,      /* J =  4 */
(PID.TID 0000.0001)                 9.282707674147523E+10,      /* J =  5 */
(PID.TID 0000.0001)                 1.047792030594103E+11,      /* J =  6 */
(PID.TID 0000.0001)                 1.162208556324093E+11,      /* J =  7 */
(PID.TID 0000.0001)                 1.270962918792468E+11,      /* J =  8 */
(PID.TID 0000.0001)                 1.373525277677229E+11,      /* J =  9 */
(PID.TID 0000.0001)                 1.469395959475426E+11,      /* J = 10 */
(PID.TID 0000.0001)                 1.558107891862220E+11,      /* J = 11 */
(PID.TID 0000.0001)                 1.639228879220326E+11,      /* J = 12 */
(PID.TID 0000.0001)                 1.712363708253573E+11,      /* J = 13 */
(PID.TID 0000.0001)                 1.777156073426415E+11,      /* J = 14 */
(PID.TID 0000.0001)                 1.833290312848623E+11,      /* J = 15 */
(PID.TID 0000.0001)                 1.880492946148330E+11,      /* J = 16 */
(PID.TID 0000.0001)                 1.918534006840893E+11,      /* J = 17 */
(PID.TID 0000.0001)                 1.947228162702492E+11,      /* J = 18 */
(PID.TID 0000.0001)                 1.966435618690094E+11,      /* J = 19 */
(PID.TID 0000.0001)     2 @  1.976062798008856E+11,             /* J = 20: 21 */
(PID.TID 0000.0001)                 1.966435618690094E+11,      /* J = 22 */
(PID.TID 0000.0001)                 1.947228162702492E+11,      /* J = 23 */
(PID.TID 0000.0001)                 1.918534006840893E+11,      /* J = 24 */
(PID.TID 0000.0001)                 1.880492946148330E+11,      /* J = 25 */
(PID.TID 0000.0001)                 1.833290312848623E+11,      /* J = 26 */
(PID.TID 0000.0001)                 1.777156073426415E+11,      /* J = 27 */
(PID.TID 0000.0001)                 1.712363708253573E+11,      /* J = 28 */
(PID.TID 0000.0001)                 1.639228879220326E+11,      /* J = 29 */
(PID.TID 0000.0001)                 1.558107891862220E+11,      /* J = 30 */
(PID.TID 0000.0001)                 1.469395959475426E+11,      /* J = 31 */
(PID.TID 0000.0001)                 1.373525277677229E+11,      /* J = 32 */
(PID.TID 0000.0001)                 1.270962918792468E+11,      /* J = 33 */
(PID.TID 0000.0001)                 1.162208556324093E+11,      /* J = 34 */
(PID.TID 0000.0001)                 1.047792030594103E+11,      /* J = 35 */
(PID.TID 0000.0001)                 9.282707674147523E+10,      /* J = 36 */
(PID.TID 0000.0001)                 8.042270623659998E+10,      /* J = 37 */
(PID.TID 0000.0001)                 6.762652439100235E+10,      /* J = 38 */
(PID.TID 0000.0001)                 5.450087291636665E+10,      /* J = 39 */
(PID.TID 0000.0001)                 4.110969866729047E+10       /* J = 40 */
(PID.TID 0000.0001)     ;
(PID.TID 0000.0001) rAs =  /* rAs(:,1,:,1) ( units: m^2 ) */
(PID.TID 0000.0001)    90 @  3.433488626798250E+10              /* I =  1: 90 */
(PID.TID 0000.0001)     ;
(PID.TID 0000.0001) rAs =  /* rAs(1,:,1,:) ( units: m^2 ) */
(PID.TID 0000.0001)                 3.433488626798250E+10,      /* J =  1 */
(PID.TID 0000.0001)                 4.783442523123625E+10,      /* J =  2 */
(PID.TID 0000.0001)                 6.110091968306414E+10,      /* J =  3 */
(PID.TID 0000.0001)                 7.406973659603818E+10,      /* J =  4 */
(PID.TID 0000.0001)                 8.667769319778079E+10,      /* J =  5 */
(PID.TID 0000.0001)                 9.886336479107463E+10,      /* J =  6 */
(PID.TID 0000.0001)                 1.105673840088173E+11,      /* J =  7 */
(PID.TID 0000.0001)                 1.217327300458638E+11,      /* J =  8 */
(PID.TID 0000.0001)                 1.323050064586578E+11,      /* J =  9 */
(PID.TID 0000.0001)                 1.422327061792377E+11,      /* J = 10 */
(PID.TID 0000.0001)                 1.514674624524945E+11,      /* J = 11 */
(PID.TID 0000.0001)                 1.599642844741385E+11,      /* J = 12 */
(PID.TID 0000.0001)                 1.676817765813788E+11,      /* J = 13 */
(PID.TID 0000.0001)                 1.745823399284268E+11,      /* J = 14 */
(PID.TID 0000.0001)                 1.806323556642996E+11,      /* J = 15 */
(PID.TID 0000.0001)                 1.858023487204767E+11,      /* J = 16 */
(PID.TID 0000.0001)                 1.900671314104743E+11,      /* J = 17 */
(PID.TID 0000.0001)                 1.934059261417216E+11,      /* J = 18 */
(PID.TID 0000.0001)                 1.958024666419019E+11,      /* J = 19 */
(PID.TID 0000.0001)                 1.972450772065981E+11,      /* J = 20 */
(PID.TID 0000.0001)                 1.977267295821495E+11,      /* J = 21 */
(PID.TID 0000.0001)                 1.972450772065981E+11,      /* J = 22 */
(PID.TID 0000.0001)                 1.958024666419019E+11,      /* J = 23 */
(PID.TID 0000.0001)                 1.934059261417216E+11,      /* J = 24 */
(PID.TID 0000.0001)                 1.900671314104743E+11,      /* J = 25 */
(PID.TID 0000.0001)                 1.858023487204767E+11,      /* J = 26 */
(PID.TID 0000.0001)                 1.806323556642996E+11,      /* J = 27 */
(PID.TID 0000.0001)                 1.745823399284268E+11,      /* J = 28 */
(PID.TID 0000.0001)                 1.676817765813788E+11,      /* J = 29 */
(PID.TID 0000.0001)                 1.599642844741385E+11,      /* J = 30 */
(PID.TID 0000.0001)                 1.514674624524945E+11,      /* J = 31 */
(PID.TID 0000.0001)                 1.422327061792377E+11,      /* J = 32 */
(PID.TID 0000.0001)                 1.323050064586578E+11,      /* J = 33 */
(PID.TID 0000.0001)                 1.217327300458638E+11,      /* J = 34 */
(PID.TID 0000.0001)                 1.105673840088173E+11,      /* J = 35 */
(PID.TID 0000.0001)                 9.886336479107463E+10,      /* J = 36 */
(PID.TID 0000.0001)                 8.667769319778079E+10,      /* J = 37 */
(PID.TID 0000.0001)                 7.406973659603818E+10,      /* J = 38 */
(PID.TID 0000.0001)                 6.110091968306414E+10,      /* J = 39 */
(PID.TID 0000.0001)                 4.783442523123625E+10       /* J = 40 */
(PID.TID 0000.0001)     ;
(PID.TID 0000.0001) globalArea = /* Integrated horizontal Area (m^2) */
(PID.TID 0000.0001)                 3.335490855875292E+14
(PID.TID 0000.0001)     ;
(PID.TID 0000.0001) // =======================================================
(PID.TID 0000.0001) // End of Model config. summary
(PID.TID 0000.0001) // =======================================================
(PID.TID 0000.0001) 
(PID.TID 0000.0001) == Packages configuration : Check & print summary ==
(PID.TID 0000.0001) 
(PID.TID 0000.0001) GAD_CHECK: #define ALLOW_GENERIC_ADVDIFF
(PID.TID 0000.0001) GMREDI_CHECK: #define GMREDI
(PID.TID 0000.0001) GM_AdvForm =     /* if FALSE => use SkewFlux Form */
(PID.TID 0000.0001)                   F
(PID.TID 0000.0001)     ;
(PID.TID 0000.0001) GM_InMomAsStress = /* if TRUE => apply as Eddy Stress */
(PID.TID 0000.0001)                   F
(PID.TID 0000.0001)     ;
(PID.TID 0000.0001) GM_AdvSeparate = /* Calc Bolus & Euler Adv. separately */
(PID.TID 0000.0001)                   F
(PID.TID 0000.0001)     ;
(PID.TID 0000.0001) GM_ExtraDiag =   /* Tensor Extra Diag (line 1&2) non 0 */
(PID.TID 0000.0001)                   F
(PID.TID 0000.0001)     ;
(PID.TID 0000.0001) GM_isopycK =    /* Background Isopyc. Diffusivity [m^2/s] */
(PID.TID 0000.0001)                 1.000000000000000E+03
(PID.TID 0000.0001)     ;
(PID.TID 0000.0001) GM_skewflx*K =  /* Background GM_SkewFlx Diffusivity [m^2/s] */
(PID.TID 0000.0001)                 1.000000000000000E+03
(PID.TID 0000.0001)     ;
(PID.TID 0000.0001) GM_advec*K =    /* Backg. GM-Advec(=Bolus) Diffusivity [m^2/s]*/
(PID.TID 0000.0001)                 0.000000000000000E+00
(PID.TID 0000.0001)     ;
(PID.TID 0000.0001) GM_Kmin_horiz = /* Minimum Horizontal Diffusivity [m^2/s] */
(PID.TID 0000.0001)                 0.000000000000000E+00
(PID.TID 0000.0001)     ;
(PID.TID 0000.0001) GM_Visbeck_alpha = /* Visbeck alpha coeff. [-] */
(PID.TID 0000.0001)                 0.000000000000000E+00
(PID.TID 0000.0001)     ;
(PID.TID 0000.0001) GM_Small_Number =  /* epsilon used in slope calc */
(PID.TID 0000.0001)                 9.999999999999999E-21
(PID.TID 0000.0001)     ;
(PID.TID 0000.0001) GM_slopeSqCutoff = /* Slope^2 cut-off value */
(PID.TID 0000.0001)                 1.000000000000000E+48
(PID.TID 0000.0001)     ;
(PID.TID 0000.0001) GM_taper_scheme =  /* Type of Tapering/Clipping scheme */
(PID.TID 0000.0001)               'gkw91                                   '
(PID.TID 0000.0001)     ;
(PID.TID 0000.0001) GM_maxSlope =  /* Maximum Slope (Tapering/Clipping) */
(PID.TID 0000.0001)                 1.000000000000000E-02
(PID.TID 0000.0001)     ;
(PID.TID 0000.0001) GM_facTrL2dz = /* Minimum Trans.Layer Thick. (factor of dz) */
(PID.TID 0000.0001)                 1.000000000000000E+00
(PID.TID 0000.0001)     ;
(PID.TID 0000.0001) GM_facTrL2ML = /* Max.Trans.Layer Thick. (factor of MxL Depth)*/
(PID.TID 0000.0001)                 5.000000000000000E+00
(PID.TID 0000.0001)     ;
(PID.TID 0000.0001) GM_maxTransLay = /* Maximum Transition Layer Thickness [m] */
(PID.TID 0000.0001)                 5.000000000000000E+02
(PID.TID 0000.0001)     ;
(PID.TID 0000.0001) // =======================================================
(PID.TID 0000.0001) // CONFIG_CHECK : Normal End
(PID.TID 0000.0001) // =======================================================
(PID.TID 0000.0001) 
(PID.TID 0000.0001)  MDS_READ_FIELD: opening global file: Lev_clim_theta.bin
(PID.TID 0000.0001)  MDS_READ_FIELD: opening global file: Lev_clim_salt.bin
(PID.TID 0000.0001) Start initial hydrostatic pressure computation
(PID.TID 0000.0001) Pressure is predetermined for buoyancyRelation OCEANIC
(PID.TID 0000.0001) 
(PID.TID 0000.0001)  MDS_READ_FIELD: opening global file: Taux.bin
(PID.TID 0000.0001)  MDS_READ_FIELD: opening global file: Tauy.bin
(PID.TID 0000.0001)  MDS_READ_FIELD: opening global file: SST.bin
(PID.TID 0000.0001)  MDS_READ_FIELD: opening global file: SSS.bin
(PID.TID 0000.0001)  MDS_READ_FIELD: opening global file: SSS.bin
(PID.TID 0000.0001)  MDS_READ_FIELD: opening global file: SST.bin
(PID.TID 0000.0001)  MDS_READ_FIELD: opening global file: Runoff.bin
(PID.TID 0000.0001)  MDS_READ_FIELD: opening global file: Taux.bin
(PID.TID 0000.0001)  MDS_READ_FIELD: opening global file: Tauy.bin
(PID.TID 0000.0001) // =======================================================
(PID.TID 0000.0001) // Field Theta Climatology at iteration          1
(PID.TID 0000.0001) // CMIN =         -1.668560028076172E+00
(PID.TID 0000.0001) // CMAX =          2.932958030700684E+01
(PID.TID 0000.0001) // CINT =          1.148079271669741E+00
(PID.TID 0000.0001) // SYMBOLS (CMIN->CMAX): -abcdefghijklmnopqrstuvwxyz+
(PID.TID 0000.0001) //                  0.0: .
(PID.TID 0000.0001) // RANGE I (Lo:Hi:Step):(  -1:  92:   1)
(PID.TID 0000.0001) // RANGE J (Lo:Hi:Step):(  42:  -1:  -1)
(PID.TID 0000.0001) // RANGE K (Lo:Hi:Step):(   1:   1:   1)
(PID.TID 0000.0001) // =======================================================
(PID.TID 0000.0001) K =   1
(PID.TID 0000.0001) //                I=8       I=18      I=28      I=38      I=44      I=54      I=64      I=74      I=84
(PID.TID 0000.0001) // |--J--|101234567|901234567|901234567|901234567|901234567|567890123|567890123|567890123|567890123|56789012
(PID.TID 0000.0001) //     42 .............................................aaaaaaaaaa--...........................----..........
(PID.TID 0000.0001) //     41 ..................................................................................................
(PID.TID 0000.0001) //     40 ..................................................................................................
(PID.TID 0000.0001) //     39 cdefffgf.......................................................................bbb.........bbccdef
(PID.TID 0000.0001) //     38 fghhhh..........................................................................bc........dddefghh
(PID.TID 0000.0001) //     37 iiij............................................................................ccc...ffgg..hhiiij
(PID.TID 0000.0001) //     36 jii..........................................efeeefeed..........................deee.fhhijjkkjjii.
(PID.TID 0000.0001) //     35 ..jj.................................dddd.ffffffffffffff.ghhiii..................defgghijkllll..jj
(PID.TID 0000.0001) //     34 ......................................deeefffgggggggggghhhhiijjj..................dfhijklmmmml....
(PID.TID 0000.0001) //     33 m.....................................eeeffgggghhgghhhhiiiiijjkkk...............ee.egkmmnnnnnmm...
(PID.TID 0000.0001) //     32 ......................................hhhiiiijjjjjjjjjkkkkklllmml...............iiihkopppoooon....
(PID.TID 0000.0001) //     31 ......................................mnnnnnnnnnnnnnnnnnnnnnooonm.............oprrrqrsrrrqqqp.....
(PID.TID 0000.0001) //     30 .....................................rrrrrqqqqqqqqqqqpppppqqqqpon............suuuuutttsssrrrrq....
(PID.TID 0000.0001) //     29 .................................ruuuuttttttttssstsssssssssssrrqpoo.........vvuuuuuutttttsssrr....
(PID.TID 0000.0001) //     28 ................................uvvvvvvvvvvvvvvvvvvvvuuuuuuutssrrqq......wv.wwvvvvvvvuuutttss.....
(PID.TID 0000.0001) //     27 .................................xxxxwxxxxwxwwwwwwwwwwwwwvvuutttsssst...wxxxxxxxxxxwwwvvvuus......
(PID.TID 0000.0001) //     26 .................xyy....y.....xxyyyyyyyyyyyyyxxxxxxxxxxxxwwvvvvuuuuvvw..w.yyyyyyyxxxxwwvvuts......
(PID.TID 0000.0001) //     25 ...............xxyyz..yzzy...xyy.zzzzzzzzzzyyyyyyyyyyyxxxxwwwwwwwwxxxyy....zzyyyyyyxxxwwwvut......
(PID.TID 0000.0001) //     24 ..............xxyzzzz.zzzz...yyz.zzzzzzzzzzzzyyyyyyyyyyyxxxxxxxxxxxyyyyxww.yyy.yyyyyxxxwwwvu......
(PID.TID 0000.0001) //     23 ...............xyzzzzzzzzz.zyyzzzzzz++++zzzzzzzzzzzzzzzyyyyyyyyyyyyyyyxxwvw......yyyyyyxxxxww.....
(PID.TID 0000.0001) //     22 wwxx..........yyzz+zzzzzzz..zz..zzz++++++++++zzzzzzzzzzzzzzyyyyyxxxxxxxxxwww.......yyyyyyyyyyxwwxx
(PID.TID 0000.0001) //     21 wwww.........yyyzzzzzzzz+++.....zzzz++++++++zzzzzzzzzzyyyyyyxxxwwwvvvvuuutut........yyyyyxxxxwwwww
(PID.TID 0000.0001) //     20 vvvvu.......yyyyyyzzzzzzzzz.......y...++++++++++z+++zzzzzzzyyyyxxxwwwvvuuut............yyyxxxwvvvv
(PID.TID 0000.0001) //     19 wwvut.......yxyxxyyyyyyyzzzzz.zzzzzy...zz++++++++++++++++zzzzyyyyyxxxwwvvvus...........yyyxxxwwwvu
(PID.TID 0000.0001) //     18 vvuut.......yyyyxyyyyyyyyyyyyyzzzz....yyyzzzzzz++zz++z++zzzzzzyyyxxxwwvvuutsr..........yyxxxwvvvuu
(PID.TID 0000.0001) //     17 uttts.......y..xxxxxxxxxxxxxxxyyy......xyyyyyyyyzyyyzzzzzzzzyyyyxxxwwvvuuutsr..........xxxwwvuuttt
(PID.TID 0000.0001) //     16 uttsq......xx.xxwwwwwwwvvvvwwww........wwwxxxxxxxxxxxxxxxxxxxxxxxxxwvvvuuttssr........xxxxwvvuutts
(PID.TID 0000.0001) //     15 ttsrq......ww.wwwvvvvvuuuuuuuv..........vvvvvvvvvvvvvvvvvvvvvwwwwwwvvvuuttsrrq.......vwwwwvvuuttsr
(PID.TID 0000.0001) //     14 tsssrp....vvvvvvuuuuuttstttstt...........uuuttutttutttttttuuuuuuuuuvuuuttssrqp......uvvvuuuuuutsss
(PID.TID 0000.0001) //     13 srrrrq...ttsssssrrrrrrqrqqqqqr..........uttsssssrsssrrrrsrrsssssssssrrrrrrrqpo.....tttttsttttssrrr
(PID.TID 0000.0001) //     12 qpppqqrssssrrqqqqpppooooooopppq.qppp....ssrqqqqqpqqqpppppppppppppoooopooppppon....orrrrrqqqqqqqppp
(PID.TID 0000.0001) //     11 mmmlmopqpppppoooononnmmmlmmmmmnnnnnnnoopppppp.poo.pooonnnnnnnnnmmmmmmmmmmnnnn....lmpoooooonnnnmmml
(PID.TID 0000.0001) //     10 iiiiijkkkkkjjiijkkkkkkkkjjjjjjkkkkllllmnnnnn.lmmmlmmmnmmlllllmllllllkkkjkllll...kjlmlkkkkkjjjjiiii
(PID.TID 0000.0001) //      9 eeffffffffffffefffeefgggggfggghhiiiiijjkllllkkkkkkkkkkkkkkkkjjjjjjiiiiiiijjjk...ihiiihggggfffeeeff
(PID.TID 0000.0001) //      8 ccccccccddddddddeedddddddedeeeefffgfggghhhiiiiiiiiiiiihhhhhhhhhgggggghggggghi..hhhgffedddddddccccc
(PID.TID 0000.0001) //      7 bbaaabbbccccccccccccccbccccccccddddddddeeffghhggghgggggfeedddeeffffffffggfggggggffeddccbbbbbbbbbaa
(PID.TID 0000.0001) //      6 aaaaaabbbbbbbbbbbbbbbbbbbbbbbbbcccccccccccdeeeeeeeeeeedcbbbbbccccdddddeeeeeeeeddcccbbbaaaaaaaaaaaa
(PID.TID 0000.0001) //      5 aaaaabbbbbbbbaaaaabbbaaaaaa.aaabbbbbbbbbbbbbbbbbbbbbbbbbaaaaaaaabbbbcccccccbbbbb.aaaaaaaaaaaaaaaaa
(PID.TID 0000.0001) //      4 aaaaaaaaaa.a..............................aaaaaaaaaaaaaaaaaaaaaaaaaaaaaaaaaaaa...aa--aaaaaaaaaaaaa
(PID.TID 0000.0001) //      3 .............................................aaaaaaaaaa------------aaaa..........------aaaaa......
(PID.TID 0000.0001) //      2 .............................................aaaaaaaaaa--...........................----..........
(PID.TID 0000.0001) //      1 ..................................................................................................
(PID.TID 0000.0001) //      0 ..................................................................................................
(PID.TID 0000.0001) //     -1 cdefffgf.......................................................................bbb.........bbccdef
(PID.TID 0000.0001) // =======================================================
(PID.TID 0000.0001) // END OF FIELD                                          =
(PID.TID 0000.0001) // =======================================================
(PID.TID 0000.0001) 
(PID.TID 0000.0001) // =======================================================
(PID.TID 0000.0001) // Field Salt  Climatology at iteration          1
(PID.TID 0000.0001) // CMIN =          3.102835273742676E+01
(PID.TID 0000.0001) // CMAX =          3.743946075439453E+01
(PID.TID 0000.0001) // CINT =          2.374484450728805E-01
(PID.TID 0000.0001) // SYMBOLS (CMIN->CMAX): -abcdefghijklmnopqrstuvwxyz+
(PID.TID 0000.0001) //                  0.0: .
(PID.TID 0000.0001) // RANGE I (Lo:Hi:Step):(  -1:  92:   1)
(PID.TID 0000.0001) // RANGE J (Lo:Hi:Step):(  42:  -1:  -1)
(PID.TID 0000.0001) // RANGE K (Lo:Hi:Step):(   1:   1:   1)
(PID.TID 0000.0001) // =======================================================
(PID.TID 0000.0001) K =   1
(PID.TID 0000.0001) //                I=8       I=18      I=28      I=38      I=44      I=54      I=64      I=74      I=84
(PID.TID 0000.0001) // |--J--|101234567|901234567|901234567|901234567|901234567|567890123|567890123|567890123|567890123|56789012
(PID.TID 0000.0001) //     42 .............................................nnnmnnnmmmmm...........................nnnm..........
(PID.TID 0000.0001) //     41 ..................................................................................................
(PID.TID 0000.0001) //     40 ..................................................................................................
(PID.TID 0000.0001) //     39 ppqqqqpp.......................................................................ghi.........kmnppqq
(PID.TID 0000.0001) //     38 pqrqpn..........................................................................gh........mnoppqrq
(PID.TID 0000.0001) //     37 qqqo............................................................................hjj...noqq..pqqqqo
(PID.TID 0000.0001) //     36 rqp..........................................hhgehhgeb..........................jmom.npqqrrrrrrqp.
(PID.TID 0000.0001) //     35 ..po.................................gghh.ghiiiihiiihfdb.egggec..................gloppppqqrrrr..po
(PID.TID 0000.0001) //     34 ......................................fghghhhhhhhhhhhhgfgggggfed..................flopppqrrsrr....
(PID.TID 0000.0001) //     33 r.....................................gghhhhhhhhghhhgghhgggggggfe...............-b.glprsrrssssr...
(PID.TID 0000.0001) //     32 ......................................hhijjjjjkjjjkjjjjiihhhhhggf...............cghiosttttssts....
(PID.TID 0000.0001) //     31 ......................................llmmmmmmmmmmmmmmmllkjkjihgh.............mpsttsuvuuuuuut.....
(PID.TID 0000.0001) //     30 .....................................nooooooooonnoonnnnnmmmmlkjih............qvwwwwwvvvvvvvvvv....
(PID.TID 0000.0001) //     29 .................................knooooooopppppppppppppppppppomkjjj.........vwwwwwwwwxxxxxxwww....
(PID.TID 0000.0001) //     28 ................................lnopoppppqqqqqqrrqqrrrrrrrrrrqpnlkk......tu.vwwxxxyyyzzzzyyxw.....
(PID.TID 0000.0001) //     27 .................................pppppqqqqqrrrrrrrrrrrrrqqqqqqponmmmp...wwvuwwwwxxyz++++zzyx......
(PID.TID 0000.0001) //     26 .................vwu....h.....mmnooppppqqqqqrqqqqqqqqqqpppoppoooonnnoo..v.uuvvvuuuwyzzyyyxwu......
(PID.TID 0000.0001) //     25 ...............uuvwv..gihf...llk.nnooopppppppppppppppoooonnoonnnnnmmmmm....uttsssstwwwwwwvut......
(PID.TID 0000.0001) //     24 ..............utuvvuq.kkig...kjk.nnnnnoooooooooooooooonnnnnnnmmmmmlllllmmm.vuu.vsrrtuvuuuuts......
(PID.TID 0000.0001) //     23 ...............stttspommki.eijjkmnmmmnnnnnnnnnnnnnnnnoonnnnnnnnmmmmmllklmml......srstttuttssp.....
(PID.TID 0000.0001) //     22 rrqm..........ssrrrrqponml..jj..mnnnnoonnonopopppopppqqppppppppooonnnmlllkjj.......outtttssrrqrrqm
(PID.TID 0000.0001) //     21 rrqp.........rrrrrqqqpppnml.....mmnoooooppppqqrrrqrrrrrrrqqqqqqppppppppooonm........tuuuuutttsrrqp
(PID.TID 0000.0001) //     20 tsssq.......rrrrqqqqppponmm.......n...noppppqqrssqrssssssrssrrrrqqqqqqppppp............uuuuttttsss
(PID.TID 0000.0001) //     19 uuusr.......qqrqppppooonnmmml.kklmmm...nppoppppqrppqrrssssssssssrrrrrrqqrqqq...........wvvuuuuuuus
(PID.TID 0000.0001) //     18 wwvut.......qqqppoooonnnnnnnnnnnno....qqpppppppqrppqrrsttttttuutttttttssssrrq..........xxxxxwwwwvu
(PID.TID 0000.0001) //     17 wvuut.......q..qpppoooooooooooooo......rqqpqqqqrsqqrsrsttuuuvvvvvvvvvuuttssrq..........yzzyyxwwvuu
(PID.TID 0000.0001) //     16 vutts......qq.qqqppqpqpppqqqqqq........rrrrrrrqrsrqrsssstttuuvvvwwwwvvvutsrrqq........yyzzyxxwvutt
(PID.TID 0000.0001) //     15 vutsr......rr.qqrrrrssrssssssr..........sssssssssssssssssssssstuvwvvuuvtsrqppp.......wxxxxxxwwvuts
(PID.TID 0000.0001) //     14 uuttsr....rrrrrrssstttttttttts...........sttttssstsssssssssrrrssttttttssrqpoon......vwwuuvvvvuuutt
(PID.TID 0000.0001) //     13 tttsss...rssssssssstttsttttttt..........sssssttssttssssrrssrrqqqqrrqqppppooonm.....svuuttttsttttts
(PID.TID 0000.0001) //     12 qrrrrsrrrssssssrrssrrrrrrqrssss.srrs....ssssssssrsssrrqqqqqqpqpoooonnnnnnnnmml....ksutsssrrrrrqrrr
(PID.TID 0000.0001) //     11 oooooqrrrrrqqqppprrrqqpppppqqqqqpppqqrrsrrrrr.rrr.rrrqppponnnnnmmmmmmmllmmlml....korqppqrqqpppoooo
(PID.TID 0000.0001) //     10 nnmmmnnooonmllkklnnnoonnonooooooopooppqqqppp.ooppooppppoonnnnnnmmmmmmmllmlllk...kmoponoonnnnnnnnmm
(PID.TID 0000.0001) //      9 lllllllllllllkkklkkklllmmmmmmmnnnnnnnooooooonnnnonnnoooooooonnnnnnnnmmmmmmmmk...kmnnnnmmmlllllllll
(PID.TID 0000.0001) //      8 lllllmmmmlllllllllllllllllllllllllllmmmmmmnnnnnnnnnnnnnnnnnnnnnnnnnnmnnmmmmml..ikmmmllllllllllllll
(PID.TID 0000.0001) //      7 llmmmmmmmllllllllllllllllllllllllllllllllllmmmmmmmmmmmmlllmmmmmmmmmmmmmmmmmmmlkllmmlllllllllllllmm
(PID.TID 0000.0001) //      6 mmmmmlllllllllllllllllllllllllllllllllllllllllllllllllllmmmmmmmmmmmmmmmmmmmmmmmlllmmmmmllllllmmmmm
(PID.TID 0000.0001) //      5 mnnnmmmllllllllllllllllllll.lllmmllllllllmmmmmmmmmmmmmmmmmmlllllllllllllllllllll.mmmmmmmmmmmmmmnnn
(PID.TID 0000.0001) //      4 nnnmmmllll.l..............................mmmmmmlmmmlmmmllkkkkkkkkkkkkkkkkkkkk...mnnnnnnnnnnmmnnnm
(PID.TID 0000.0001) //      3 .............................................nmmmnmmmlllllkkkkklmmmmllk..........nnnnnmmmmmm......
(PID.TID 0000.0001) //      2 .............................................nnnmnnnmmmmm...........................nnnm..........
(PID.TID 0000.0001) //      1 ..................................................................................................
(PID.TID 0000.0001) //      0 ..................................................................................................
(PID.TID 0000.0001) //     -1 ppqqqqpp.......................................................................ghi.........kmnppqq
(PID.TID 0000.0001) // =======================================================
(PID.TID 0000.0001) // END OF FIELD                                          =
(PID.TID 0000.0001) // =======================================================
(PID.TID 0000.0001) 
(PID.TID 0000.0001) // =======================================================
(PID.TID 0000.0001) // Field Runoff Climatology at iteration          1
(PID.TID 0000.0001) // CMIN =          1.421085439756465E-16
(PID.TID 0000.0001) // CMAX =          9.460258178710938E+02
(PID.TID 0000.0001) // CINT =          3.503799325448495E+01
(PID.TID 0000.0001) // SYMBOLS (CMIN->CMAX): -abcdefghijklmnopqrstuvwxyz+
(PID.TID 0000.0001) //                  0.0: .
(PID.TID 0000.0001) // RANGE I (Lo:Hi:Step):(  -1:  92:   1)
(PID.TID 0000.0001) // RANGE J (Lo:Hi:Step):(  42:  -1:  -1)
(PID.TID 0000.0001) // RANGE K (Lo:Hi:Step):(   1:   1:   1)
(PID.TID 0000.0001) // =======================================================
(PID.TID 0000.0001) K =   1
(PID.TID 0000.0001) //                I=8       I=18      I=28      I=38      I=44      I=54      I=64      I=74      I=84
(PID.TID 0000.0001) // |--J--|101234567|901234567|901234567|901234567|901234567|567890123|567890123|567890123|567890123|56789012
(PID.TID 0000.0001) //     42 ..................................................................................................
(PID.TID 0000.0001) //     41 ..................................................................................................
(PID.TID 0000.0001) //     40 ..................................................................................................
(PID.TID 0000.0001) //     39 .......-..........................................................................................
(PID.TID 0000.0001) //     38 ..................................................................................................
(PID.TID 0000.0001) //     37 ..................................................................................................
(PID.TID 0000.0001) //     36 .............................................--------a............................................
(PID.TID 0000.0001) //     35 .....................................a---.----..--..-abb.------..................--...............
(PID.TID 0000.0001) //     34 ......................................ba--......-...------....--..................---.............
(PID.TID 0000.0001) //     33 ......................................ba--...........---......--b...............--.---............
(PID.TID 0000.0001) //     32 ......................................---.....................--c...............-aba--............
(PID.TID 0000.0001) //     31 ......................................-.......................--b.............--------............
(PID.TID 0000.0001) //     30 .....................................--.......................---...............-----.............
(PID.TID 0000.0001) //     29 .................................da---.........................----.........-.....................
(PID.TID 0000.0001) //     28 ................................gca---...................................cb.--....................
(PID.TID 0000.0001) //     27 .................................a---...............................-...aaa---....................
(PID.TID 0000.0001) //     26 ........................k.....cb----................................--..-.---.------..............
(PID.TID 0000.0001) //     25 ......................-adc...---.-....................................-.....------------..........
(PID.TID 0000.0001) //     24 ....................-.-abc...---.-.........................................-ab.bba--------........
(PID.TID 0000.0001) //     23 ....................-----a.bcb---.........................................-......gdba------.......
(PID.TID 0000.0001) //     22 ..--..................----..--..-.........................................--.......ngba-----....--
(PID.TID 0000.0001) //     21 .--a...................----.....-..........................................-........+ngb----...--a
(PID.TID 0000.0001) //     20 .--bh...................-.-............................................................b----...--b
(PID.TID 0000.0001) //     19 .--bg......................................................................-...........b----...--b
(PID.TID 0000.0001) //     18 .---c......................................................................--..........a---....---
(PID.TID 0000.0001) //     17 ..--a.......................................................................-..........---......--
(PID.TID 0000.0001) //     16 ...--.......................................................................--........a-.........-
(PID.TID 0000.0001) //     15 ....-........................................................................-.......--...........
(PID.TID 0000.0001) //     14 ....--.......................................................................-......--............
(PID.TID 0000.0001) //     13 .............................................................................-.....---............
(PID.TID 0000.0001) //     12 .............................................................................-....da--............
(PID.TID 0000.0001) //     11 .................................................................................cb---............
(PID.TID 0000.0001) //     10 ................................................................................-----.............
(PID.TID 0000.0001) //      9 ................................................................................----..............
(PID.TID 0000.0001) //      8 ..................................................................................................
(PID.TID 0000.0001) //      7 ..................................................................................................
(PID.TID 0000.0001) //      6 ..................................................................................................
(PID.TID 0000.0001) //      5 ..................................................................................................
(PID.TID 0000.0001) //      4 ..................................................................................................
(PID.TID 0000.0001) //      3 ..................................................................................................
(PID.TID 0000.0001) //      2 ..................................................................................................
(PID.TID 0000.0001) //      1 ..................................................................................................
(PID.TID 0000.0001) //      0 ..................................................................................................
(PID.TID 0000.0001) //     -1 .......-..........................................................................................
(PID.TID 0000.0001) // =======================================================
(PID.TID 0000.0001) // END OF FIELD                                          =
(PID.TID 0000.0001) // =======================================================
(PID.TID 0000.0001) 
(PID.TID 0000.0001) // =======================================================
(PID.TID 0000.0001) // Field WIND_STRESS_CLIMATOLOGY FU at iteration          1
(PID.TID 0000.0001) // CMIN =         -1.032922118902206E-01
(PID.TID 0000.0001) // CMAX =          1.600433439016342E-01
(PID.TID 0000.0001) // CINT =          9.753168733031661E-03
(PID.TID 0000.0001) // SYMBOLS (CMIN->CMAX): -abcdefghijklmnopqrstuvwxyz+
(PID.TID 0000.0001) //                  0.0: .
(PID.TID 0000.0001) // RANGE I (Lo:Hi:Step):(  -1:  92:   1)
(PID.TID 0000.0001) // RANGE J (Lo:Hi:Step):(  42:  -1:  -1)
(PID.TID 0000.0001) // RANGE K (Lo:Hi:Step):(   1:   1:   1)
(PID.TID 0000.0001) // =======================================================
(PID.TID 0000.0001) K =   1
(PID.TID 0000.0001) //                I=8       I=18      I=28      I=38      I=44      I=54      I=64      I=74      I=84
(PID.TID 0000.0001) // |--J--|101234567|901234567|901234567|901234567|901234567|567890123|567890123|567890123|567890123|56789012
(PID.TID 0000.0001) //     42 ..............................................kkl.kkllllm............................jjj..........
(PID.TID 0000.0001) //     41 ..................................................................................................
(PID.TID 0000.0001) //     40 ..................................................................................................
(PID.TID 0000.0001) //     39 jjjjjiii........................................................................lk..........jjjjjj
(PID.TID 0000.0001) //     38 jkllmm...........................................................................l.........hijjkll
(PID.TID 0000.0001) //     37 llmn.............................................................................ll....dde...jllmn
(PID.TID 0000.0001) //     36 nmm...........................................fff.fffg...........................mml..nopponnnnmm.
(PID.TID 0000.0001) //     35 ...m..................................kjj..iihhiihhiijkk..mmlki...................ooopstuttsrp...m
(PID.TID 0000.0001) //     34 .......................................mmlmmmmmmnmmmnnnoppqqqpnl...................qstuuuuttrq....
(PID.TID 0000.0001) //     33 o......................................nopqqqpppppppppppqqqqqqpom................n..svvutsrrqpo...
(PID.TID 0000.0001) //     32 .......................................opqrqqrrqqrrqqqqqqqqqqqqpn................pppqtusrqppon....
(PID.TID 0000.0001) //     31 .......................................oppqqrrqqqrqqqqpppppoooonn..............oqrrpqrqpoonnm.....
(PID.TID 0000.0001) //     30 ......................................nopppqqqqppqqppooonnnnmmmmm.............oqrrrqponnmmllkk....
(PID.TID 0000.0001) //     29 ..................................kkmmnnoonnnnmmmnmmmmllllkjjjjjkno..........lmnnnmmlllkkjjjjj....
(PID.TID 0000.0001) //     28 .................................ijjkkkkkkkkjjjjijjjiiiiihggggghikm.......i..jjjjjjjiiiiihhhh.....
(PID.TID 0000.0001) //     27 ..................................hhhhhhhgggggggfgggffeeedddddefghjll....ggghgfggggggggffffg......
(PID.TID 0000.0001) //     26 ..................nn...........ddfgffffffeeeeddddddddddddccbbbcdefhjkl.....ffgheeeeeeddddeeg......
(PID.TID 0000.0001) //     25 ................mooo...lll....gg..gffeeedddcccccccccccccbabbbbbcdeghjkk.....dbbcddccccccdefi......
(PID.TID 0000.0001) //     24 ...............lnoonn..lll....ii..hggfeedddcccccbcccbbbbaabbbccdefhiijjiii..d-..edcccccdeghj......
(PID.TID 0000.0001) //     23 ................nmmmmmlmll..jjjijjjiihggffeeeedddeddddccccdcdeefghhiijjijjk.......ddddefghikl.....
(PID.TID 0000.0001) //     22 kkll...........mmlllmmnnml...j...kkkjjiihhggggffegffeeeeeeeeefffgghhiiijklll........eeefghijkkkkll
(PID.TID 0000.0001) //     21 jjkk..........jkkklllmmmmll......kkkkkjjjjihhhggfhggffeeeeeeeefffggghiiijjjk.........eefggghiijjkk
(PID.TID 0000.0001) //     20 hijjk........hijjjjkkkllkkk............jjjjiiihggihggffeeeeedeeeeeffggghhhh.............feffgghijj
(PID.TID 0000.0001) //     19 fghik........hghhhhhhhhihhhhh..jjjii....iiiiiihhgihhggffeeeeddddddddddeeefgh............edddeffghi
(PID.TID 0000.0001) //     18 efghj........igfffeeeedddddefhiijj.....gggggggggggggggfffffeeeddddccccccdeefh...........eddcddefgh
(PID.TID 0000.0001) //     17 eefgi...........dcccccbaaabcegijk.......eeeffffffffffffffffffeeeeddccccccddeg...........eeedddeefg
(PID.TID 0000.0001) //     16 eeeeg.......i..fdcccbaaabbcdegj.........eeeeeeeeeeeeeeffffffffffeeeedddddddefh.........ggfffeeeeee
(PID.TID 0000.0001) //     15 feeef.......g..feddccccdddeefg...........ffffffffffffffffggghggggggfffggffffgi........hhhhhgggfeee
(PID.TID 0000.0001) //     14 ihhggg.....hgeefffffggggghhihh............hhhhhhhhhhhhhhiiiiiiiihhiiihiihhhhhj.......hhiijjjjiihhg
(PID.TID 0000.0001) //     13 mllkji....jiihhiijjjkkkklllmml...........kjjjjjkkjjkkkkkkkkjjjjjjjkkjjkkkkjkjk......jkkkkllllmmllk
(PID.TID 0000.0001) //     12 onnonnmmnmllllllmmnnnoooppppppo..nnn.....llllllmlllmlllllmmmlllkllmmllmmmmmmml.....lmmmnnnnnnoonno
(PID.TID 0000.0001) //     11 qqrrrrrrpooopppprssssttsstttssrqppppppooonmmm..mm..mmmmmmmnnnmmmnopppooooooon.....moooopqqqqqqqqrr
(PID.TID 0000.0001) //     10 tuvvvvutssstttttvvwwwwxxxxwwvvuutsrrrqqqqppo..mmn.mmnnnnnooooooppqqrrqrrrrqqp....npqrrrrsssssttuvv
(PID.TID 0000.0001) //      9 vwwxxxwvwwwxxxxxyyyzzzz+++zyxwwwwvutsssssrrqpooppoopppqqqqpppqqrsttttsstttssr....pqrssssstttuvvwwx
(PID.TID 0000.0001) //      8 vvvvwvvwyyzzzyyyzzzzzyzz+zywvvwwwvuttssttttttssttssttuuttssrsstuvwwvuttttuuuu...rqrrrrrsssttuuvvvv
(PID.TID 0000.0001) //      7 sttsstvxyxxwvvwwwwwwvvvvvvuttttttssrrrrstuuvvvvvvvvvvvvuutttttuuvvvusrrrstuvvvvrssrqqqqqqrrrssstts
(PID.TID 0000.0001) //      6 oooooqrsrrqpoppppppppooooooooooonnmmmnopqsttuuuttuutttsssssssssrrrqpooopqrssssrrqppoonnnnoooopoooo
(PID.TID 0000.0001) //      5 kkkkllllkkjiiiiiijjjjjiiiii..iihhggghijlmnopppppopppoonoooqqqponmmlkklmmnnnnmmmm..lllkkkkkkkkkkkkk
(PID.TID 0000.0001) //      4 hhhgggggff.................................llllmmllmmmnnnnnooonmlkjjkkkkkkkkjj....jkjjjjjjiiiihhhg
(PID.TID 0000.0001) //      3 ..............................................llm.llmmnnnnnnnmmmmllllll...........kkkkjjjjii......
(PID.TID 0000.0001) //      2 ..............................................kkl.kkllllm............................jjj..........
(PID.TID 0000.0001) //      1 ..................................................................................................
(PID.TID 0000.0001) //      0 ..................................................................................................
(PID.TID 0000.0001) //     -1 jjjjjiii........................................................................lk..........jjjjjj
(PID.TID 0000.0001) // =======================================================
(PID.TID 0000.0001) // END OF FIELD                                          =
(PID.TID 0000.0001) // =======================================================
(PID.TID 0000.0001) 
(PID.TID 0000.0001) // =======================================================
(PID.TID 0000.0001) // Field WIND_STRESS_CLIMATOLOGY FV at iteration          1
(PID.TID 0000.0001) // CMIN =         -7.049009948968887E-02
(PID.TID 0000.0001) // CMAX =          8.463316410779953E-02
(PID.TID 0000.0001) // CINT =          5.745306059166237E-03
(PID.TID 0000.0001) // SYMBOLS (CMIN->CMAX): -abcdefghijklmnopqrstuvwxyz+
(PID.TID 0000.0001) //                  0.0: .
(PID.TID 0000.0001) // RANGE I (Lo:Hi:Step):(  -1:  92:   1)
(PID.TID 0000.0001) // RANGE J (Lo:Hi:Step):(  42:  -1:  -1)
(PID.TID 0000.0001) // RANGE K (Lo:Hi:Step):(   1:   1:   1)
(PID.TID 0000.0001) // =======================================================
(PID.TID 0000.0001) K =   1
(PID.TID 0000.0001) //                I=8       I=18      I=28      I=38      I=44      I=54      I=64      I=74      I=84
(PID.TID 0000.0001) // |--J--|101234567|901234567|901234567|901234567|901234567|567890123|567890123|567890123|567890123|56789012
(PID.TID 0000.0001) //     42 ..................................................................................................
(PID.TID 0000.0001) //     41 ..................................................................................................
(PID.TID 0000.0001) //     40 ..................................................................................................
(PID.TID 0000.0001) //     39 hiijkl..........................................................................ii.........gghhiij
(PID.TID 0000.0001) //     38 klmo............................................................................if..........jjklmo
(PID.TID 0000.0001) //     37 noq.............................................................................ihg...-fjm..mmnoq.
(PID.TID 0000.0001) //     36 ..p..........................................ggghggghi...........................hhf.cinpqqqqq..p.
(PID.TID 0000.0001) //     35 ......................................ghi.hikklllkllllkk.mprssr...................ijijlnoppqqo....
(PID.TID 0000.0001) //     34 ......................................hhiiklmnnnonnnonnnoppqqqqp...................lmnoooooonn....
(PID.TID 0000.0001) //     33 ......................................iiijkmmnnnnnnnnnnoooooonmmn...............lk.llmoponmlll....
(PID.TID 0000.0001) //     32 ......................................ihhijkklmmnlmmnnnnnooonmkih...............iijkkmnonmljh.....
(PID.TID 0000.0001) //     31 ......................................gghijkllmmmlmmmmnnnnnnmkida.............hijlmnnnnnmljhe.....
(PID.TID 0000.0001) //     30 .....................................iijllmmmmmllmmlllllmmmmljgc-............kllmnnnnmmmljhfef....
(PID.TID 0000.0001) //     29 .................................dfijkllmmmmlllkkllkkkkkllllkigebbe.........lmmmmmmllllkjigec.....
(PID.TID 0000.0001) //     28 .................................eijkkkkllkkkjjjjjjjjjjjkkkkjigedcc......kk.llmllllllkkjigec......
(PID.TID 0000.0001) //     27 .................................hijjkkkkkkkjjiiijiiiiiijjjihgfedddeh...k.kkkklllkkkkjihgebb......
(PID.TID 0000.0001) //     26 .................plk....o.....ge.iijjjkkkkjjiiiiiiiiiiiiihhgfeedccdfgi.....jkklkkkjjiigfdcab......
(PID.TID 0000.0001) //     25 ...............rsplj..ooon...jhi.jjjjjjkjjiiiiihhiihhhhggfffedddddeghjk....ihi.kkjiihgfedccg......
(PID.TID 0000.0001) //     24 ...............trnkjj.noon...hjk.jkkkjjjjihhhhggghggggffgggffggghijkllljjj.......iihggffffgj......
(PID.TID 0000.0001) //     23 ...............qnlkkkknoon..kj..kllkkkkkjjjjjiijjiijjjjkkllmmnnopqqrrqqpooo........hhiiijklno.....
(PID.TID 0000.0001) //     22 rrrq..........onmlllllnnnm......lmmlkllllkkllllmmllmmmmnnoopqqqqqrrrrsstttsq........jlnnopqqrsrrrq
(PID.TID 0000.0001) //     21 sssr.........poonmmmmmnnnmm.......m...lmllkkkkkkkkkkkklllmmnoonoopppqqqqqqr............qqqrrrssssr
(PID.TID 0000.0001) //     20 ttsrp.......qqrppoooooooonn.......o....nnmllkkkkjkkkjjjjkllmmnnopqqrrsssrrs............pqrssssttsr
(PID.TID 0000.0001) //     19 tttsq.......pqtsrqqqqrrrrqqqp.onmm.....oqponnllllllllkkkkklllmnnopqqrssssttt...........ppqrsstttts
(PID.TID 0000.0001) //     18 stuus.......o..tssssrstuuuutsrpon......ssrqqpoooooooonmmmmmmlmmmnnoopqqrstuut..........nnopqrsstuu
(PID.TID 0000.0001) //     17 stvww.......o..rrrrrsttuvvvvutr........rssrrrqpppqpppppoonnmmmmmmmmnnnopqrsuu..........lllmopqstvw
(PID.TID 0000.0001) //     16 qsvxy......rq.noppqqrrrstuuvwx..........srrrrrqqqrqqqqqqpponmmmmlllllmmopqsuvt........jkkllmnpqsvx
(PID.TID 0000.0001) //     15 pqtx+......qr.lmnoppqppqrrsuxz...........qqqqqpppqppppppppoonnmlllkkklmmopqsvv.......jjkllllmopqtx
(PID.TID 0000.0001) //     14 noqtyz....mopnmnnnopppppqqrsvx...........pppppopppopppppppoonmmllkkkllmmnoprvy......llkkklkklmnoqt
(PID.TID 0000.0001) //     13 lmopsu...mlmmmmmnnnnooopppqrst..........qpppoooooooooopppoonmmmllkjklmnmmopruw.....mmllkkkkkkklmop
(PID.TID 0000.0001) //     12 jkklnqqonmlllllllmlmmnnoooooopp.mlmn....qqppp.nnn.nnnnooooonmmmmljjjllkklmnpq.....mmlllmlllkjijkkl
(PID.TID 0000.0001) //     11 jjjjlmmmllkjjjjkklkkllmmmmmlllkkkkjklllnopoo..onn.onnmmlllllkllmllkkkkkllllmm....klllmmmmllkjijjjj
(PID.TID 0000.0001) //     10 hiiiiijiiiihgghiijjjklllkkjjjjjjiiiiijklmmnm.nnnmnnnmmlllkkkkkllllkkkkllllkji...kkllmmnmllkkiihiii
(PID.TID 0000.0001) //      9 ghhhhhgggggffffggghijkkjihhhhhiihhhgghiijjkkkklllkllllkkklllkkkkkklmmlkkkjhge...llllmmmmlllkihghhh
(PID.TID 0000.0001) //      8 hhhhhhhgggggggggggghijkjjihhhiiihgfffggghhhhhhijkhijkkjjjklllkjjjkmnnlkjihgee..klmmmmllllllkjihhhh
(PID.TID 0000.0001) //      7 kllkkkkjjihhghhiijjkllmmnmlmllkjhhghhiihhhhhhiijkiijkkkjjklmmmllllnoonmkjiihgghjlmnnnmmmmmmmlkkllk
(PID.TID 0000.0001) //      6 mmnnooonmljkkkklmnooppppqqp.nnlkkklllllkkjjkkkllmkllmmmmmlllmmllmmnooonnmlkjiiij.mnnnnnnnnnnnmmmnn
(PID.TID 0000.0001) //      5 ooopqqqpon.m..............................nnooonnoonnmmlllkkkllmnnooopponmlkkj...lmmnnnnoonoooooop
(PID.TID 0000.0001) //      4 .............................................srqosrqonnmllllmmnnooooooo..........kkklllllmno......
(PID.TID 0000.0001) //      3 .............................................wvutwvutssrr...........................mmmm..........
(PID.TID 0000.0001) //      2 ..................................................................................................
(PID.TID 0000.0001) //      1 ..................................................................................................
(PID.TID 0000.0001) //      0 ..................................................................................................
(PID.TID 0000.0001) //     -1 hiijkl..........................................................................ii.........gghhiij
(PID.TID 0000.0001) // =======================================================
(PID.TID 0000.0001) // END OF FIELD                                          =
(PID.TID 0000.0001) // =======================================================
(PID.TID 0000.0001) 
 SH  5.22138922  23.2965364
 NH  10.4779825  25.5643986
 SH  5.22138922  23.2965364
 NH  10.4779825  25.5643986
  5.22139532  23.2965425
  10.4779886  25.5644047
(PID.TID 0000.0001) // =======================================================
(PID.TID 0000.0001) // Model current state
(PID.TID 0000.0001) // =======================================================
(PID.TID 0000.0001) 
(PID.TID 0000.0001) // =======================================================
(PID.TID 0000.0001) // Begin MONITOR dynamic field statistics
(PID.TID 0000.0001) // =======================================================
(PID.TID 0000.0001) %MON time_tsnumber                =                     0
(PID.TID 0000.0001) %MON time_secondsf                =   0.0000000000000E+00
(PID.TID 0000.0001) %MON dynstat_eta_max              =   0.0000000000000E+00
(PID.TID 0000.0001) %MON dynstat_eta_min              =   0.0000000000000E+00
(PID.TID 0000.0001) %MON dynstat_eta_mean             =   0.0000000000000E+00
(PID.TID 0000.0001) %MON dynstat_eta_sd               =   0.0000000000000E+00
(PID.TID 0000.0001) %MON dynstat_eta_del2             =   0.0000000000000E+00
(PID.TID 0000.0001) %MON dynstat_uvel_max             =   0.0000000000000E+00
(PID.TID 0000.0001) %MON dynstat_uvel_min             =   0.0000000000000E+00
(PID.TID 0000.0001) %MON dynstat_uvel_mean            =   0.0000000000000E+00
(PID.TID 0000.0001) %MON dynstat_uvel_sd              =   0.0000000000000E+00
(PID.TID 0000.0001) %MON dynstat_uvel_del2            =   0.0000000000000E+00
(PID.TID 0000.0001) %MON dynstat_vvel_max             =   0.0000000000000E+00
(PID.TID 0000.0001) %MON dynstat_vvel_min             =   0.0000000000000E+00
(PID.TID 0000.0001) %MON dynstat_vvel_mean            =   0.0000000000000E+00
(PID.TID 0000.0001) %MON dynstat_vvel_sd              =   0.0000000000000E+00
(PID.TID 0000.0001) %MON dynstat_vvel_del2            =   0.0000000000000E+00
(PID.TID 0000.0001) %MON dynstat_wvel_max             =   0.0000000000000E+00
(PID.TID 0000.0001) %MON dynstat_wvel_min             =   0.0000000000000E+00
(PID.TID 0000.0001) %MON dynstat_wvel_mean            =   0.0000000000000E+00
(PID.TID 0000.0001) %MON dynstat_wvel_sd              =   0.0000000000000E+00
(PID.TID 0000.0001) %MON dynstat_wvel_del2            =   0.0000000000000E+00
(PID.TID 0000.0001) %MON dynstat_theta_max            =   2.9329580307007E+01
(PID.TID 0000.0001) %MON dynstat_theta_min            =  -1.8507585525513E+00
(PID.TID 0000.0001) %MON dynstat_theta_mean           =   3.4385862740247E+00
(PID.TID 0000.0001) %MON dynstat_theta_sd             =   4.1126810597649E+00
(PID.TID 0000.0001) %MON dynstat_theta_del2           =   1.3650057162091E-01
(PID.TID 0000.0001) %MON dynstat_salt_max             =   3.7439460754395E+01
(PID.TID 0000.0001) %MON dynstat_salt_min             =   3.1028352737427E+01
(PID.TID 0000.0001) %MON dynstat_salt_mean            =   3.4715046474651E+01
(PID.TID 0000.0001) %MON dynstat_salt_sd              =   2.7634376761930E-01
(PID.TID 0000.0001) %MON dynstat_salt_del2            =   2.2114221965762E-02
(PID.TID 0000.0001) %MON extforcing_qnet_max          =   1.3199679941600E+02
(PID.TID 0000.0001) %MON extforcing_qnet_min          =  -3.5049627091214E+01
(PID.TID 0000.0001) %MON extforcing_qnet_mean         =  -6.8984510202483E-01
(PID.TID 0000.0001) %MON extforcing_qnet_sd           =   2.2692302782162E+01
(PID.TID 0000.0001) %MON extforcing_qnet_del2         =   7.3170698536294E-01
(PID.TID 0000.0001) %MON extforcing_qsw_max           =   0.0000000000000E+00
(PID.TID 0000.0001) %MON extforcing_qsw_min           =   0.0000000000000E+00
(PID.TID 0000.0001) %MON extforcing_qsw_mean          =   0.0000000000000E+00
(PID.TID 0000.0001) %MON extforcing_qsw_sd            =   0.0000000000000E+00
(PID.TID 0000.0001) %MON extforcing_qsw_del2          =   0.0000000000000E+00
(PID.TID 0000.0001) %MON extforcing_empmr_max         =   3.8916387204582E-05
(PID.TID 0000.0001) %MON extforcing_empmr_min         =  -1.8174137994730E-05
(PID.TID 0000.0001) %MON extforcing_empmr_mean        =   1.6190657687033E-06
(PID.TID 0000.0001) %MON extforcing_empmr_sd          =   1.2325823495205E-05
(PID.TID 0000.0001) %MON extforcing_empmr_del2        =   7.7932218222740E-07
(PID.TID 0000.0001) %MON advcfl_uvel_max              =   0.0000000000000E+00
(PID.TID 0000.0001) %MON advcfl_vvel_max              =   0.0000000000000E+00
(PID.TID 0000.0001) %MON advcfl_wvel_max              =   0.0000000000000E+00
(PID.TID 0000.0001) %MON advcfl_W_hf_max              =   0.0000000000000E+00
(PID.TID 0000.0001) %MON pe_b_mean                    =   0.0000000000000E+00
(PID.TID 0000.0001) %MON ke_max                       =   0.0000000000000E+00
(PID.TID 0000.0001) %MON ke_mean                      =   0.0000000000000E+00
(PID.TID 0000.0001) %MON ke_vol                       =   1.4101703507225E+18
(PID.TID 0000.0001) %MON vort_r_min                   =   0.0000000000000E+00
(PID.TID 0000.0001) %MON vort_r_max                   =   0.0000000000000E+00
(PID.TID 0000.0001) %MON vort_a_mean                  =  -1.9922043059714E-05
(PID.TID 0000.0001) %MON vort_a_sd                    =   7.3517359474083E-05
(PID.TID 0000.0001) %MON vort_p_mean                  =  -2.3665444248068E-05
(PID.TID 0000.0001) %MON vort_p_sd                    =   1.0341451660816E-04
(PID.TID 0000.0001) %MON surfExpan_theta_mean         =   0.0000000000000E+00
(PID.TID 0000.0001) %MON surfExpan_salt_mean          =   0.0000000000000E+00
(PID.TID 0000.0001) // =======================================================
(PID.TID 0000.0001) // End MONITOR dynamic field statistics
(PID.TID 0000.0001) // =======================================================
 SH  5.22138922  23.2965364
 NH  10.4779825  25.5643986
 SH  5.22138922  23.2965364
 NH  10.4779825  25.5643986
 cg2d: Sum(rhs),rhsMax =   5.20175144402071E-03  7.56856566340337E+00
(PID.TID 0000.0001)                    cg2d_init_res =    2.96826516551054E+00
(PID.TID 0000.0001)                       cg2d_iters =    22
(PID.TID 0000.0001)                         cg2d_res =    7.97954300668993E-14
(PID.TID 0000.0001) // =======================================================
(PID.TID 0000.0001) // Begin MONITOR dynamic field statistics
(PID.TID 0000.0001) // =======================================================
(PID.TID 0000.0001) %MON time_tsnumber                =                     1
(PID.TID 0000.0001) %MON time_secondsf                =   4.3200000000000E+04
(PID.TID 0000.0001) %MON dynstat_eta_max              =   3.7649399131689E-01
(PID.TID 0000.0001) %MON dynstat_eta_min              =  -1.7612323135130E-01
(PID.TID 0000.0001) %MON dynstat_eta_mean             =  -1.8771777027787E-06
(PID.TID 0000.0001) %MON dynstat_eta_sd               =   2.7747059252462E-02
(PID.TID 0000.0001) %MON dynstat_eta_del2             =   1.0070951810210E-02
(PID.TID 0000.0001) %MON dynstat_uvel_max             =   4.1046482620899E-02
(PID.TID 0000.0001) %MON dynstat_uvel_min             =  -6.9949891341309E-02
(PID.TID 0000.0001) %MON dynstat_uvel_mean            =  -3.6664390112744E-04
(PID.TID 0000.0001) %MON dynstat_uvel_sd              =   1.3806802673504E-03
(PID.TID 0000.0001) %MON dynstat_uvel_del2            =   2.9854432841405E-04
(PID.TID 0000.0001) %MON dynstat_vvel_max             =   6.0208692355544E-02
(PID.TID 0000.0001) %MON dynstat_vvel_min             =  -9.0703836573090E-02
(PID.TID 0000.0001) %MON dynstat_vvel_mean            =   9.8155253971917E-04
(PID.TID 0000.0001) %MON dynstat_vvel_sd              =   3.5442114346214E-03
(PID.TID 0000.0001) %MON dynstat_vvel_del2            =   4.6566338863006E-04
(PID.TID 0000.0001) %MON dynstat_wvel_max             =   3.6127898973966E-04
(PID.TID 0000.0001) %MON dynstat_wvel_min             =  -2.0231725322385E-04
(PID.TID 0000.0001) %MON dynstat_wvel_mean            =   8.6653258284786E-23
(PID.TID 0000.0001) %MON dynstat_wvel_sd              =   1.8907694040084E-05
(PID.TID 0000.0001) %MON dynstat_wvel_del2            =   7.8361568107345E-06
(PID.TID 0000.0001) %MON dynstat_theta_max            =   2.9312844900415E+01
(PID.TID 0000.0001) %MON dynstat_theta_min            =  -1.8502991122761E+00
(PID.TID 0000.0001) %MON dynstat_theta_mean           =   3.4385879792238E+00
(PID.TID 0000.0001) %MON dynstat_theta_sd             =   4.1125408863502E+00
(PID.TID 0000.0001) %MON dynstat_theta_del2           =   1.3649855432588E-01
(PID.TID 0000.0001) %MON dynstat_salt_max             =   3.7439172827326E+01
(PID.TID 0000.0001) %MON dynstat_salt_min             =   3.1029390096132E+01
(PID.TID 0000.0001) %MON dynstat_salt_mean            =   3.4715046457201E+01
(PID.TID 0000.0001) %MON dynstat_salt_sd              =   2.7632925832739E-01
(PID.TID 0000.0001) %MON dynstat_salt_del2            =   2.2120641418747E-02
(PID.TID 0000.0001) %MON extforcing_qnet_max          =   1.3199679941600E+02
(PID.TID 0000.0001) %MON extforcing_qnet_min          =  -3.5049627091214E+01
(PID.TID 0000.0001) %MON extforcing_qnet_mean         =  -6.8984510202483E-01
(PID.TID 0000.0001) %MON extforcing_qnet_sd           =   2.2692302782162E+01
(PID.TID 0000.0001) %MON extforcing_qnet_del2         =   7.3170698536294E-01
(PID.TID 0000.0001) %MON extforcing_qsw_max           =   0.0000000000000E+00
(PID.TID 0000.0001) %MON extforcing_qsw_min           =   0.0000000000000E+00
(PID.TID 0000.0001) %MON extforcing_qsw_mean          =   0.0000000000000E+00
(PID.TID 0000.0001) %MON extforcing_qsw_sd            =   0.0000000000000E+00
(PID.TID 0000.0001) %MON extforcing_qsw_del2          =   0.0000000000000E+00
(PID.TID 0000.0001) %MON extforcing_empmr_max         =   3.8916387204582E-05
(PID.TID 0000.0001) %MON extforcing_empmr_min         =  -1.8174137994730E-05
(PID.TID 0000.0001) %MON extforcing_empmr_mean        =   1.6190657687033E-06
(PID.TID 0000.0001) %MON extforcing_empmr_sd          =   1.2325823495205E-05
(PID.TID 0000.0001) %MON extforcing_empmr_del2        =   7.7932218222740E-07
(PID.TID 0000.0001) %MON advcfl_uvel_max              =   6.8998959363735E-03
(PID.TID 0000.0001) %MON advcfl_vvel_max              =   8.8111503657535E-03
(PID.TID 0000.0001) %MON advcfl_wvel_max              =   5.4212557788632E-01
(PID.TID 0000.0001) %MON advcfl_W_hf_max              =   2.7376888770531E-01
(PID.TID 0000.0001) %MON pe_b_mean                    =   8.9322549811573E-07
(PID.TID 0000.0001) %MON ke_max                       =   2.3546783249348E-03
(PID.TID 0000.0001) %MON ke_mean                      =   7.0957135010644E-06
(PID.TID 0000.0001) %MON ke_vol                       =   1.4101703507225E+18
(PID.TID 0000.0001) %MON vort_r_min                   =  -2.1402960237433E-07
(PID.TID 0000.0001) %MON vort_r_max                   =   2.0304683894478E-07
(PID.TID 0000.0001) %MON vort_a_mean                  =  -1.9922043059714E-05
(PID.TID 0000.0001) %MON vort_a_sd                    =   7.3517273567136E-05
(PID.TID 0000.0001) %MON vort_p_mean                  =  -2.3665444248068E-05
(PID.TID 0000.0001) %MON vort_p_sd                    =   1.0341438339718E-04
(PID.TID 0000.0001) %MON surfExpan_theta_mean         =   4.7431412018815E-05
(PID.TID 0000.0001) %MON surfExpan_salt_mean          =   3.9477470768878E-06
(PID.TID 0000.0001) // =======================================================
(PID.TID 0000.0001) // End MONITOR dynamic field statistics
(PID.TID 0000.0001) // =======================================================
 SH  5.22011963  23.2974981
 NH  10.4665383  25.56524
 SH  5.22011963  23.2974981
 NH  10.4665383  25.56524
 cg2d: Sum(rhs),rhsMax =   4.54544241848487E-03  1.73227570579194E+01
(PID.TID 0000.0001)                    cg2d_init_res =    1.45696829285801E+00
(PID.TID 0000.0001)                       cg2d_iters =    22
(PID.TID 0000.0001)                         cg2d_res =    5.26460584706549E-14
(PID.TID 0000.0001) // =======================================================
(PID.TID 0000.0001) // Begin MONITOR dynamic field statistics
(PID.TID 0000.0001) // =======================================================
(PID.TID 0000.0001) %MON time_tsnumber                =                     2
(PID.TID 0000.0001) %MON time_secondsf                =   8.6400000000000E+04
(PID.TID 0000.0001) %MON dynstat_eta_max              =   8.7733773844337E-01
(PID.TID 0000.0001) %MON dynstat_eta_min              =  -3.2136324984990E-01
(PID.TID 0000.0001) %MON dynstat_eta_mean             =  -3.7543554055301E-06
(PID.TID 0000.0001) %MON dynstat_eta_sd               =   6.4693937666472E-02
(PID.TID 0000.0001) %MON dynstat_eta_del2             =   1.9648719329091E-02
(PID.TID 0000.0001) %MON dynstat_uvel_max             =   7.4464784402089E-02
(PID.TID 0000.0001) %MON dynstat_uvel_min             =  -1.2538541692019E-01
(PID.TID 0000.0001) %MON dynstat_uvel_mean            =  -9.0949657800713E-04
(PID.TID 0000.0001) %MON dynstat_uvel_sd              =   2.5466390454847E-03
(PID.TID 0000.0001) %MON dynstat_uvel_del2            =   5.9982325828063E-04
(PID.TID 0000.0001) %MON dynstat_vvel_max             =   1.0851720143365E-01
(PID.TID 0000.0001) %MON dynstat_vvel_min             =  -1.5985414112733E-01
(PID.TID 0000.0001) %MON dynstat_vvel_mean            =   1.9084209880863E-03
(PID.TID 0000.0001) %MON dynstat_vvel_sd              =   6.5125282720010E-03
(PID.TID 0000.0001) %MON dynstat_vvel_del2            =   8.6737920140463E-04
(PID.TID 0000.0001) %MON dynstat_wvel_max             =   6.0866456878933E-04
(PID.TID 0000.0001) %MON dynstat_wvel_min             =  -3.1503886672108E-04
(PID.TID 0000.0001) %MON dynstat_wvel_mean            =   1.3069016003607E-22
(PID.TID 0000.0001) %MON dynstat_wvel_sd              =   2.8674550838955E-05
(PID.TID 0000.0001) %MON dynstat_wvel_del2            =   9.4391752083263E-06
(PID.TID 0000.0001) %MON dynstat_theta_max            =   2.9287834254738E+01
(PID.TID 0000.0001) %MON dynstat_theta_min            =  -1.8502283440935E+00
(PID.TID 0000.0001) %MON dynstat_theta_mean           =   3.4378142601170E+00
(PID.TID 0000.0001) %MON dynstat_theta_sd             =   4.1109605952369E+00
(PID.TID 0000.0001) %MON dynstat_theta_del2           =   1.3449063555896E-01
(PID.TID 0000.0001) %MON dynstat_salt_max             =   3.7438783217680E+01
(PID.TID 0000.0001) %MON dynstat_salt_min             =   3.1030465732780E+01
(PID.TID 0000.0001) %MON dynstat_salt_mean            =   3.4714981893309E+01
(PID.TID 0000.0001) %MON dynstat_salt_sd              =   2.7634723066663E-01
(PID.TID 0000.0001) %MON dynstat_salt_del2            =   2.2038728038160E-02
(PID.TID 0000.0001) %MON extforcing_qnet_max          =   1.3078311538851E+02
(PID.TID 0000.0001) %MON extforcing_qnet_min          =  -3.5027306538012E+01
(PID.TID 0000.0001) %MON extforcing_qnet_mean         =  -6.9821893357359E-01
(PID.TID 0000.0001) %MON extforcing_qnet_sd           =   2.2554383421053E+01
(PID.TID 0000.0001) %MON extforcing_qnet_del2         =   7.3047749795039E-01
(PID.TID 0000.0001) %MON extforcing_qsw_max           =   0.0000000000000E+00
(PID.TID 0000.0001) %MON extforcing_qsw_min           =   0.0000000000000E+00
(PID.TID 0000.0001) %MON extforcing_qsw_mean          =   0.0000000000000E+00
(PID.TID 0000.0001) %MON extforcing_qsw_sd            =   0.0000000000000E+00
(PID.TID 0000.0001) %MON extforcing_qsw_del2          =   0.0000000000000E+00
(PID.TID 0000.0001) %MON extforcing_empmr_max         =   3.8916387204582E-05
(PID.TID 0000.0001) %MON extforcing_empmr_min         =  -1.8174137994730E-05
(PID.TID 0000.0001) %MON extforcing_empmr_mean        =   1.6190657687033E-06
(PID.TID 0000.0001) %MON extforcing_empmr_sd          =   1.2325823495205E-05
(PID.TID 0000.0001) %MON extforcing_empmr_del2        =   7.7932218222740E-07
(PID.TID 0000.0001) %MON advcfl_uvel_max              =   1.2368086813270E-02
(PID.TID 0000.0001) %MON advcfl_vvel_max              =   1.5528547934422E-02
(PID.TID 0000.0001) %MON advcfl_wvel_max              =   7.2118922625214E-01
(PID.TID 0000.0001) %MON advcfl_W_hf_max              =   3.6926104819907E-01
(PID.TID 0000.0001) %MON pe_b_mean                    =   4.8557280965316E-06
(PID.TID 0000.0001) %MON ke_max                       =   7.5949771932397E-03
(PID.TID 0000.0001) %MON ke_mean                      =   2.4330223197966E-05
(PID.TID 0000.0001) %MON ke_vol                       =   1.4101703507225E+18
(PID.TID 0000.0001) %MON vort_r_min                   =  -3.8214083539252E-07
(PID.TID 0000.0001) %MON vort_r_max                   =   3.6505323575249E-07
(PID.TID 0000.0001) %MON vort_a_mean                  =  -1.9922043059714E-05
(PID.TID 0000.0001) %MON vort_a_sd                    =   7.3517156732908E-05
(PID.TID 0000.0001) %MON vort_p_mean                  =  -2.3665444248068E-05
(PID.TID 0000.0001) %MON vort_p_sd                    =   1.0341417962218E-04
(PID.TID 0000.0001) %MON surfExpan_theta_mean         =   8.6222863596253E-05
(PID.TID 0000.0001) %MON surfExpan_salt_mean          =   7.5148473981908E-06
(PID.TID 0000.0001) // =======================================================
(PID.TID 0000.0001) // End MONITOR dynamic field statistics
(PID.TID 0000.0001) // =======================================================
 SH  5.221881  23.2969161
 NH  10.4697281  25.5649376
 SH  5.221881  23.2969161
 NH  10.4697281  25.5649376
 cg2d: Sum(rhs),rhsMax =   4.96512406799254E-03  2.37878027791015E+01
(PID.TID 0000.0001)                    cg2d_init_res =    8.53472688491411E-01
(PID.TID 0000.0001)                       cg2d_iters =    22
(PID.TID 0000.0001)                         cg2d_res =    4.20341767282234E-14
(PID.TID 0000.0001) // =======================================================
(PID.TID 0000.0001) // Begin MONITOR dynamic field statistics
(PID.TID 0000.0001) // =======================================================
(PID.TID 0000.0001) %MON time_tsnumber                =                     3
(PID.TID 0000.0001) %MON time_secondsf                =   1.2960000000000E+05
(PID.TID 0000.0001) %MON dynstat_eta_max              =   1.2382457214027E+00
(PID.TID 0000.0001) %MON dynstat_eta_min              =  -4.0269258987977E-01
(PID.TID 0000.0001) %MON dynstat_eta_mean             =  -5.6315331082890E-06
(PID.TID 0000.0001) %MON dynstat_eta_sd               =   9.9598500828755E-02
(PID.TID 0000.0001) %MON dynstat_eta_del2             =   2.3897222605242E-02
(PID.TID 0000.0001) %MON dynstat_uvel_max             =   9.4190440377840E-02
(PID.TID 0000.0001) %MON dynstat_uvel_min             =  -1.6623380237170E-01
(PID.TID 0000.0001) %MON dynstat_uvel_mean            =  -1.6002858424751E-03
(PID.TID 0000.0001) %MON dynstat_uvel_sd              =   3.6803832520100E-03
(PID.TID 0000.0001) %MON dynstat_uvel_del2            =   9.0870411966146E-04
(PID.TID 0000.0001) %MON dynstat_vvel_max             =   1.4472464400700E-01
(PID.TID 0000.0001) %MON dynstat_vvel_min             =  -2.1167876235995E-01
(PID.TID 0000.0001) %MON dynstat_vvel_mean            =   2.7551455626314E-03
(PID.TID 0000.0001) %MON dynstat_vvel_sd              =   8.9778346683582E-03
(PID.TID 0000.0001) %MON dynstat_vvel_del2            =   1.2552940819463E-03
(PID.TID 0000.0001) %MON dynstat_wvel_max             =   7.4163235545361E-04
(PID.TID 0000.0001) %MON dynstat_wvel_min             =  -3.6473106429585E-04
(PID.TID 0000.0001) %MON dynstat_wvel_mean            =   3.8638829923708E-22
(PID.TID 0000.0001) %MON dynstat_wvel_sd              =   3.2676902757019E-05
(PID.TID 0000.0001) %MON dynstat_wvel_del2            =   8.3081955935825E-06
(PID.TID 0000.0001) %MON dynstat_theta_max            =   2.9265158200908E+01
(PID.TID 0000.0001) %MON dynstat_theta_min            =  -1.8518203806375E+00
(PID.TID 0000.0001) %MON dynstat_theta_mean           =   3.4366971170530E+00
(PID.TID 0000.0001) %MON dynstat_theta_sd             =   4.1087591313127E+00
(PID.TID 0000.0001) %MON dynstat_theta_del2           =   1.3295634549009E-01
(PID.TID 0000.0001) %MON dynstat_salt_max             =   3.7438190635866E+01
(PID.TID 0000.0001) %MON dynstat_salt_min             =   3.1031083480237E+01
(PID.TID 0000.0001) %MON dynstat_salt_mean            =   3.4714883222764E+01
(PID.TID 0000.0001) %MON dynstat_salt_sd              =   2.7638222703024E-01
(PID.TID 0000.0001) %MON dynstat_salt_del2            =   2.1966240937816E-02
(PID.TID 0000.0001) %MON extforcing_qnet_max          =   1.3112796626164E+02
(PID.TID 0000.0001) %MON extforcing_qnet_min          =  -3.5048593730648E+01
(PID.TID 0000.0001) %MON extforcing_qnet_mean         =  -6.9680499496685E-01
(PID.TID 0000.0001) %MON extforcing_qnet_sd           =   2.2597693666580E+01
(PID.TID 0000.0001) %MON extforcing_qnet_del2         =   7.3100142784865E-01
(PID.TID 0000.0001) %MON extforcing_qsw_max           =   0.0000000000000E+00
(PID.TID 0000.0001) %MON extforcing_qsw_min           =   0.0000000000000E+00
(PID.TID 0000.0001) %MON extforcing_qsw_mean          =   0.0000000000000E+00
(PID.TID 0000.0001) %MON extforcing_qsw_sd            =   0.0000000000000E+00
(PID.TID 0000.0001) %MON extforcing_qsw_del2          =   0.0000000000000E+00
(PID.TID 0000.0001) %MON extforcing_empmr_max         =   3.8916387204582E-05
(PID.TID 0000.0001) %MON extforcing_empmr_min         =  -1.8174137994730E-05
(PID.TID 0000.0001) %MON extforcing_empmr_mean        =   1.6190657687033E-06
(PID.TID 0000.0001) %MON extforcing_empmr_sd          =   1.2325823495205E-05
(PID.TID 0000.0001) %MON extforcing_empmr_del2        =   7.7932218222740E-07
(PID.TID 0000.0001) %MON advcfl_uvel_max              =   1.6397394127116E-02
(PID.TID 0000.0001) %MON advcfl_vvel_max              =   2.0562894303673E-02
(PID.TID 0000.0001) %MON advcfl_wvel_max              =   5.1968172585141E-01
(PID.TID 0000.0001) %MON advcfl_W_hf_max              =   2.7634105498682E-01
(PID.TID 0000.0001) %MON pe_b_mean                    =   1.1508872824718E-05
(PID.TID 0000.0001) %MON ke_max                       =   1.3519135454152E-02
(PID.TID 0000.0001) %MON ke_mean                      =   4.7561547339428E-05
(PID.TID 0000.0001) %MON ke_vol                       =   1.4101703507225E+18
(PID.TID 0000.0001) %MON vort_r_min                   =  -5.0881784149081E-07
(PID.TID 0000.0001) %MON vort_r_max                   =   4.9261604976350E-07
(PID.TID 0000.0001) %MON vort_a_mean                  =  -1.9922043059714E-05
(PID.TID 0000.0001) %MON vort_a_sd                    =   7.3517014091806E-05
(PID.TID 0000.0001) %MON vort_p_mean                  =  -2.3665444248068E-05
(PID.TID 0000.0001) %MON vort_p_sd                    =   1.0341390549727E-04
(PID.TID 0000.0001) %MON surfExpan_theta_mean         =   1.1737039326967E-04
(PID.TID 0000.0001) %MON surfExpan_salt_mean          =   1.0336268234209E-05
(PID.TID 0000.0001) // =======================================================
(PID.TID 0000.0001) // End MONITOR dynamic field statistics
(PID.TID 0000.0001) // =======================================================
 SH  5.22475981  23.2936356
 NH  10.4778803  25.5611176
 SH  5.22475981  23.2936356
 NH  10.4778803  25.5611176
 cg2d: Sum(rhs),rhsMax =   6.09357701436458E-03  2.58434724134967E+01
(PID.TID 0000.0001)                    cg2d_init_res =    7.25508980434953E-01
(PID.TID 0000.0001)                       cg2d_iters =    22
(PID.TID 0000.0001)                         cg2d_res =    4.03731441245316E-14
(PID.TID 0000.0001) // =======================================================
(PID.TID 0000.0001) // Begin MONITOR dynamic field statistics
(PID.TID 0000.0001) // =======================================================
(PID.TID 0000.0001) %MON time_tsnumber                =                     4
(PID.TID 0000.0001) %MON time_secondsf                =   1.7280000000000E+05
(PID.TID 0000.0001) %MON dynstat_eta_max              =   1.3893809899049E+00
(PID.TID 0000.0001) %MON dynstat_eta_min              =  -5.1940062807593E-01
(PID.TID 0000.0001) %MON dynstat_eta_mean             =  -7.5087108111005E-06
(PID.TID 0000.0001) %MON dynstat_eta_sd               =   1.3186638377498E-01
(PID.TID 0000.0001) %MON dynstat_eta_del2             =   2.4353330174412E-02
(PID.TID 0000.0001) %MON dynstat_uvel_max             =   1.0982853537439E-01
(PID.TID 0000.0001) %MON dynstat_uvel_min             =  -2.0261473666972E-01
(PID.TID 0000.0001) %MON dynstat_uvel_mean            =  -2.4101910735939E-03
(PID.TID 0000.0001) %MON dynstat_uvel_sd              =   4.8981397964360E-03
(PID.TID 0000.0001) %MON dynstat_uvel_del2            =   1.1885378845066E-03
(PID.TID 0000.0001) %MON dynstat_vvel_max             =   1.7797057475340E-01
(PID.TID 0000.0001) %MON dynstat_vvel_min             =  -2.5869317664478E-01
(PID.TID 0000.0001) %MON dynstat_vvel_mean            =   3.5015658361339E-03
(PID.TID 0000.0001) %MON dynstat_vvel_sd              =   1.1075029110542E-02
(PID.TID 0000.0001) %MON dynstat_vvel_del2            =   1.6335745220295E-03
(PID.TID 0000.0001) %MON dynstat_wvel_max             =   8.6183155704749E-04
(PID.TID 0000.0001) %MON dynstat_wvel_min             =  -4.4569400539873E-04
(PID.TID 0000.0001) %MON dynstat_wvel_mean            =  -7.7277659847416E-22
(PID.TID 0000.0001) %MON dynstat_wvel_sd              =   3.6051503114265E-05
(PID.TID 0000.0001) %MON dynstat_wvel_del2            =   8.2400366492830E-06
(PID.TID 0000.0001) %MON dynstat_theta_max            =   2.9246356979381E+01
(PID.TID 0000.0001) %MON dynstat_theta_min            =  -1.8528137093674E+00
(PID.TID 0000.0001) %MON dynstat_theta_mean           =   3.4353085824490E+00
(PID.TID 0000.0001) %MON dynstat_theta_sd             =   4.1060064565064E+00
(PID.TID 0000.0001) %MON dynstat_theta_del2           =   1.3200733508916E-01
(PID.TID 0000.0001) %MON dynstat_salt_max             =   3.7437381874651E+01
(PID.TID 0000.0001) %MON dynstat_salt_min             =   3.1030640162650E+01
(PID.TID 0000.0001) %MON dynstat_salt_mean            =   3.4714760306626E+01
(PID.TID 0000.0001) %MON dynstat_salt_sd              =   2.7642289685268E-01
(PID.TID 0000.0001) %MON dynstat_salt_del2            =   2.1901206682642E-02
(PID.TID 0000.0001) %MON extforcing_qnet_max          =   1.3229652454943E+02
(PID.TID 0000.0001) %MON extforcing_qnet_min          =  -3.5113336312907E+01
(PID.TID 0000.0001) %MON extforcing_qnet_mean         =  -6.9989708326846E-01
(PID.TID 0000.0001) %MON extforcing_qnet_sd           =   2.2742096879192E+01
(PID.TID 0000.0001) %MON extforcing_qnet_del2         =   7.3250075785185E-01
(PID.TID 0000.0001) %MON extforcing_qsw_max           =   0.0000000000000E+00
(PID.TID 0000.0001) %MON extforcing_qsw_min           =   0.0000000000000E+00
(PID.TID 0000.0001) %MON extforcing_qsw_mean          =   0.0000000000000E+00
(PID.TID 0000.0001) %MON extforcing_qsw_sd            =   0.0000000000000E+00
(PID.TID 0000.0001) %MON extforcing_qsw_del2          =   0.0000000000000E+00
(PID.TID 0000.0001) %MON extforcing_empmr_max         =   3.8916387204582E-05
(PID.TID 0000.0001) %MON extforcing_empmr_min         =  -1.8174137994730E-05
(PID.TID 0000.0001) %MON extforcing_empmr_mean        =   1.6190657687033E-06
(PID.TID 0000.0001) %MON extforcing_empmr_sd          =   1.2325823495205E-05
(PID.TID 0000.0001) %MON extforcing_empmr_del2        =   7.7932218222740E-07
(PID.TID 0000.0001) %MON advcfl_uvel_max              =   1.9986029590459E-02
(PID.TID 0000.0001) %MON advcfl_vvel_max              =   2.5129967641168E-02
(PID.TID 0000.0001) %MON advcfl_wvel_max              =   2.3289553652471E-01
(PID.TID 0000.0001) %MON advcfl_W_hf_max              =   1.3324108189457E-01
(PID.TID 0000.0001) %MON pe_b_mean                    =   2.0174156303436E-05
(PID.TID 0000.0001) %MON ke_max                       =   2.0308561985417E-02
(PID.TID 0000.0001) %MON ke_mean                      =   7.5142659053721E-05
(PID.TID 0000.0001) %MON ke_vol                       =   1.4101703507225E+18
(PID.TID 0000.0001) %MON vort_r_min                   =  -6.1369921816623E-07
(PID.TID 0000.0001) %MON vort_r_max                   =   6.0817880721507E-07
(PID.TID 0000.0001) %MON vort_a_mean                  =  -1.9922043059714E-05
(PID.TID 0000.0001) %MON vort_a_sd                    =   7.3516850645770E-05
(PID.TID 0000.0001) %MON vort_p_mean                  =  -2.3665444248068E-05
(PID.TID 0000.0001) %MON vort_p_sd                    =   1.0341355548787E-04
(PID.TID 0000.0001) %MON surfExpan_theta_mean         =   1.4192204580538E-04
(PID.TID 0000.0001) %MON surfExpan_salt_mean          =   1.2334846297327E-05
(PID.TID 0000.0001) // =======================================================
(PID.TID 0000.0001) // End MONITOR dynamic field statistics
(PID.TID 0000.0001) // =======================================================
 SH  5.22854807  23.2864836
 NH  10.4885164  25.5549344
 SH  5.22854807  23.2864836
 NH  10.4885164  25.5549344
 cg2d: Sum(rhs),rhsMax =   7.79864369471489E-03  2.52414387095211E+01
(PID.TID 0000.0001)                    cg2d_init_res =    7.20223623029792E-01
(PID.TID 0000.0001)                       cg2d_iters =    22
(PID.TID 0000.0001)                         cg2d_res =    4.12566594268387E-14
(PID.TID 0000.0001) // =======================================================
(PID.TID 0000.0001) // Begin MONITOR dynamic field statistics
(PID.TID 0000.0001) // =======================================================
(PID.TID 0000.0001) %MON time_tsnumber                =                     5
(PID.TID 0000.0001) %MON time_secondsf                =   2.1600000000000E+05
(PID.TID 0000.0001) %MON dynstat_eta_max              =   1.3947265889472E+00
(PID.TID 0000.0001) %MON dynstat_eta_min              =  -6.1723015781307E-01
(PID.TID 0000.0001) %MON dynstat_eta_mean             =  -9.3858885138881E-06
(PID.TID 0000.0001) %MON dynstat_eta_sd               =   1.6297361486364E-01
(PID.TID 0000.0001) %MON dynstat_eta_del2             =   2.3402096030937E-02
(PID.TID 0000.0001) %MON dynstat_uvel_max             =   1.3797147298715E-01
(PID.TID 0000.0001) %MON dynstat_uvel_min             =  -2.3958790057191E-01
(PID.TID 0000.0001) %MON dynstat_uvel_mean            =  -3.3069650975065E-03
(PID.TID 0000.0001) %MON dynstat_uvel_sd              =   6.1978436716241E-03
(PID.TID 0000.0001) %MON dynstat_uvel_del2            =   1.4331173917899E-03
(PID.TID 0000.0001) %MON dynstat_vvel_max             =   2.1306255432458E-01
(PID.TID 0000.0001) %MON dynstat_vvel_min             =  -3.0867285603707E-01
(PID.TID 0000.0001) %MON dynstat_vvel_mean            =   4.1295734600339E-03
(PID.TID 0000.0001) %MON dynstat_vvel_sd              =   1.2835794350969E-02
(PID.TID 0000.0001) %MON dynstat_vvel_del2            =   1.9645243217242E-03
(PID.TID 0000.0001) %MON dynstat_wvel_max             =   9.9974297461322E-04
(PID.TID 0000.0001) %MON dynstat_wvel_min             =  -5.6820316403434E-04
(PID.TID 0000.0001) %MON dynstat_wvel_mean            =   8.4096276892776E-22
(PID.TID 0000.0001) %MON dynstat_wvel_sd              =   4.0208128828158E-05
(PID.TID 0000.0001) %MON dynstat_wvel_del2            =   9.2861697329754E-06
(PID.TID 0000.0001) %MON dynstat_theta_max            =   2.9227107534755E+01
(PID.TID 0000.0001) %MON dynstat_theta_min            =  -1.8536479517108E+00
(PID.TID 0000.0001) %MON dynstat_theta_mean           =   3.4337096550511E+00
(PID.TID 0000.0001) %MON dynstat_theta_sd             =   4.1027830648938E+00
(PID.TID 0000.0001) %MON dynstat_theta_del2           =   1.3150315837186E-01
(PID.TID 0000.0001) %MON dynstat_salt_max             =   3.7436365960254E+01
(PID.TID 0000.0001) %MON dynstat_salt_min             =   3.1028656752100E+01
(PID.TID 0000.0001) %MON dynstat_salt_mean            =   3.4714622029005E+01
(PID.TID 0000.0001) %MON dynstat_salt_sd              =   2.7646294998549E-01
(PID.TID 0000.0001) %MON dynstat_salt_del2            =   2.1842832559237E-02
(PID.TID 0000.0001) %MON extforcing_qnet_max          =   1.3393177005707E+02
(PID.TID 0000.0001) %MON extforcing_qnet_min          =  -3.5234922511100E+01
(PID.TID 0000.0001) %MON extforcing_qnet_mean         =  -7.1139973788294E-01
(PID.TID 0000.0001) %MON extforcing_qnet_sd           =   2.2951541400696E+01
(PID.TID 0000.0001) %MON extforcing_qnet_del2         =   7.3493263163882E-01
(PID.TID 0000.0001) %MON extforcing_qsw_max           =   0.0000000000000E+00
(PID.TID 0000.0001) %MON extforcing_qsw_min           =   0.0000000000000E+00
(PID.TID 0000.0001) %MON extforcing_qsw_mean          =   0.0000000000000E+00
(PID.TID 0000.0001) %MON extforcing_qsw_sd            =   0.0000000000000E+00
(PID.TID 0000.0001) %MON extforcing_qsw_del2          =   0.0000000000000E+00
(PID.TID 0000.0001) %MON extforcing_empmr_max         =   3.8916387204582E-05
(PID.TID 0000.0001) %MON extforcing_empmr_min         =  -1.8174137994730E-05
(PID.TID 0000.0001) %MON extforcing_empmr_mean        =   1.6190657687033E-06
(PID.TID 0000.0001) %MON extforcing_empmr_sd          =   1.2325823495205E-05
(PID.TID 0000.0001) %MON extforcing_empmr_del2        =   7.7932218222740E-07
(PID.TID 0000.0001) %MON advcfl_uvel_max              =   2.3633082909224E-02
(PID.TID 0000.0001) %MON advcfl_vvel_max              =   2.9985092705286E-02
(PID.TID 0000.0001) %MON advcfl_wvel_max              =   2.5426162524826E-01
(PID.TID 0000.0001) %MON advcfl_W_hf_max              =   1.2620021435044E-01
(PID.TID 0000.0001) %MON pe_b_mean                    =   3.0814972569977E-05
(PID.TID 0000.0001) %MON ke_max                       =   2.8717058479120E-02
(PID.TID 0000.0001) %MON ke_mean                      =   1.0550287936581E-04
(PID.TID 0000.0001) %MON ke_vol                       =   1.4101703507225E+18
(PID.TID 0000.0001) %MON vort_r_min                   =  -7.1540295591054E-07
(PID.TID 0000.0001) %MON vort_r_max                   =   7.2683095733264E-07
(PID.TID 0000.0001) %MON vort_a_mean                  =  -1.9922043059714E-05
(PID.TID 0000.0001) %MON vort_a_sd                    =   7.3516671989505E-05
(PID.TID 0000.0001) %MON vort_p_mean                  =  -2.3665444248068E-05
(PID.TID 0000.0001) %MON vort_p_sd                    =   1.0341314399237E-04
(PID.TID 0000.0001) %MON surfExpan_theta_mean         =   1.5991571706562E-04
(PID.TID 0000.0001) %MON surfExpan_salt_mean          =   1.3606773118909E-05
(PID.TID 0000.0001) // =======================================================
(PID.TID 0000.0001) // End MONITOR dynamic field statistics
(PID.TID 0000.0001) // =======================================================
 SH  5.23335071  23.2751771
 NH  10.5003433  25.5481492
 SH  5.23335071  23.2751771
 NH  10.5003433  25.5481492
 cg2d: Sum(rhs),rhsMax =   9.94380654005556E-03  2.37553680529065E+01
(PID.TID 0000.0001)                    cg2d_init_res =    7.40348758384175E-01
(PID.TID 0000.0001)                       cg2d_iters =    22
(PID.TID 0000.0001)                         cg2d_res =    4.23625906453611E-14
(PID.TID 0000.0001) // =======================================================
(PID.TID 0000.0001) // Begin MONITOR dynamic field statistics
(PID.TID 0000.0001) // =======================================================
(PID.TID 0000.0001) %MON time_tsnumber                =                     6
(PID.TID 0000.0001) %MON time_secondsf                =   2.5920000000000E+05
(PID.TID 0000.0001) %MON dynstat_eta_max              =   1.3333679734253E+00
(PID.TID 0000.0001) %MON dynstat_eta_min              =  -6.8387280240328E-01
(PID.TID 0000.0001) %MON dynstat_eta_mean             =  -1.1263066216757E-05
(PID.TID 0000.0001) %MON dynstat_eta_sd               =   1.9343584095306E-01
(PID.TID 0000.0001) %MON dynstat_eta_del2             =   2.2336164566331E-02
(PID.TID 0000.0001) %MON dynstat_uvel_max             =   1.6725271634544E-01
(PID.TID 0000.0001) %MON dynstat_uvel_min             =  -2.7722426541544E-01
(PID.TID 0000.0001) %MON dynstat_uvel_mean            =  -4.2545096755013E-03
(PID.TID 0000.0001) %MON dynstat_uvel_sd              =   7.5620861105693E-03
(PID.TID 0000.0001) %MON dynstat_uvel_del2            =   1.6549420479374E-03
(PID.TID 0000.0001) %MON dynstat_vvel_max             =   2.4997933065995E-01
(PID.TID 0000.0001) %MON dynstat_vvel_min             =  -3.6150134211488E-01
(PID.TID 0000.0001) %MON dynstat_vvel_mean            =   4.6249206481024E-03
(PID.TID 0000.0001) %MON dynstat_vvel_sd              =   1.4275318704066E-02
(PID.TID 0000.0001) %MON dynstat_vvel_del2            =   2.2480130521521E-03
(PID.TID 0000.0001) %MON dynstat_wvel_max             =   1.1611966321274E-03
(PID.TID 0000.0001) %MON dynstat_wvel_min             =  -7.0828331403265E-04
(PID.TID 0000.0001) %MON dynstat_wvel_mean            =   1.3182659621030E-21
(PID.TID 0000.0001) %MON dynstat_wvel_sd              =   4.4756706775338E-05
(PID.TID 0000.0001) %MON dynstat_wvel_del2            =   1.0568393348184E-05
(PID.TID 0000.0001) %MON dynstat_theta_max            =   2.9206803263130E+01
(PID.TID 0000.0001) %MON dynstat_theta_min            =  -1.8543273756810E+00
(PID.TID 0000.0001) %MON dynstat_theta_mean           =   3.4319671344884E+00
(PID.TID 0000.0001) %MON dynstat_theta_sd             =   4.0991862418685E+00
(PID.TID 0000.0001) %MON dynstat_theta_del2           =   1.3110258409704E-01
(PID.TID 0000.0001) %MON dynstat_salt_max             =   3.7435126440569E+01
(PID.TID 0000.0001) %MON dynstat_salt_min             =   3.1024997151636E+01
(PID.TID 0000.0001) %MON dynstat_salt_mean            =   3.4714475225717E+01
(PID.TID 0000.0001) %MON dynstat_salt_sd              =   2.7649890431410E-01
(PID.TID 0000.0001) %MON dynstat_salt_del2            =   2.1786920448536E-02
(PID.TID 0000.0001) %MON extforcing_qnet_max          =   1.3573790478968E+02
(PID.TID 0000.0001) %MON extforcing_qnet_min          =  -3.5417664587488E+01
(PID.TID 0000.0001) %MON extforcing_qnet_mean         =  -7.3151333909528E-01
(PID.TID 0000.0001) %MON extforcing_qnet_sd           =   2.3194420004027E+01
(PID.TID 0000.0001) %MON extforcing_qnet_del2         =   7.3823260027139E-01
(PID.TID 0000.0001) %MON extforcing_qsw_max           =   0.0000000000000E+00
(PID.TID 0000.0001) %MON extforcing_qsw_min           =   0.0000000000000E+00
(PID.TID 0000.0001) %MON extforcing_qsw_mean          =   0.0000000000000E+00
(PID.TID 0000.0001) %MON extforcing_qsw_sd            =   0.0000000000000E+00
(PID.TID 0000.0001) %MON extforcing_qsw_del2          =   0.0000000000000E+00
(PID.TID 0000.0001) %MON extforcing_empmr_max         =   3.8916387204582E-05
(PID.TID 0000.0001) %MON extforcing_empmr_min         =  -1.8174137994730E-05
(PID.TID 0000.0001) %MON extforcing_empmr_mean        =   1.6190657687033E-06
(PID.TID 0000.0001) %MON extforcing_empmr_sd          =   1.2325823495205E-05
(PID.TID 0000.0001) %MON extforcing_empmr_del2        =   7.7932218222740E-07
(PID.TID 0000.0001) %MON advcfl_uvel_max              =   2.7345554735330E-02
(PID.TID 0000.0001) %MON advcfl_vvel_max              =   3.5116956494219E-02
(PID.TID 0000.0001) %MON advcfl_wvel_max              =   2.4428858880703E-01
(PID.TID 0000.0001) %MON advcfl_W_hf_max              =   1.3775605159409E-01
(PID.TID 0000.0001) %MON pe_b_mean                    =   4.3411128934805E-05
(PID.TID 0000.0001) %MON ke_max                       =   3.8914913867935E-02
(PID.TID 0000.0001) %MON ke_mean                      =   1.3720588918138E-04
(PID.TID 0000.0001) %MON ke_vol                       =   1.4101703507225E+18
(PID.TID 0000.0001) %MON vort_r_min                   =  -8.2164066881127E-07
(PID.TID 0000.0001) %MON vort_r_max                   =   8.5013820705993E-07
(PID.TID 0000.0001) %MON vort_a_mean                  =  -1.9922043059714E-05
(PID.TID 0000.0001) %MON vort_a_sd                    =   7.3516484515572E-05
(PID.TID 0000.0001) %MON vort_p_mean                  =  -2.3665444248068E-05
(PID.TID 0000.0001) %MON vort_p_sd                    =   1.0341269975886E-04
(PID.TID 0000.0001) %MON surfExpan_theta_mean         =   1.7173539500699E-04
(PID.TID 0000.0001) %MON surfExpan_salt_mean          =   1.4259619027631E-05
(PID.TID 0000.0001) // =======================================================
(PID.TID 0000.0001) // End MONITOR dynamic field statistics
(PID.TID 0000.0001) // =======================================================
 SH  5.23936063  23.2600743
 NH  10.5123131  25.5417681
 SH  5.23936063  23.2600743
 NH  10.5123131  25.5417681
 cg2d: Sum(rhs),rhsMax =   1.24138380091945E-02  2.22001109867376E+01
(PID.TID 0000.0001)                    cg2d_init_res =    7.64919856444123E-01
(PID.TID 0000.0001)                       cg2d_iters =    22
(PID.TID 0000.0001)                         cg2d_res =    4.35930315154613E-14
(PID.TID 0000.0001) // =======================================================
(PID.TID 0000.0001) // Begin MONITOR dynamic field statistics
(PID.TID 0000.0001) // =======================================================
(PID.TID 0000.0001) %MON time_tsnumber                =                     7
(PID.TID 0000.0001) %MON time_secondsf                =   3.0240000000000E+05
(PID.TID 0000.0001) %MON dynstat_eta_max              =   1.2522138008668E+00
(PID.TID 0000.0001) %MON dynstat_eta_min              =  -7.4868763666528E-01
(PID.TID 0000.0001) %MON dynstat_eta_mean             =  -1.3140243919573E-05
(PID.TID 0000.0001) %MON dynstat_eta_sd               =   2.2305854991152E-01
(PID.TID 0000.0001) %MON dynstat_eta_del2             =   2.1520403064992E-02
(PID.TID 0000.0001) %MON dynstat_uvel_max             =   1.9363587134959E-01
(PID.TID 0000.0001) %MON dynstat_uvel_min             =  -3.1511314903474E-01
(PID.TID 0000.0001) %MON dynstat_uvel_mean            =  -5.2145540022848E-03
(PID.TID 0000.0001) %MON dynstat_uvel_sd              =   8.9670360745218E-03
(PID.TID 0000.0001) %MON dynstat_uvel_del2            =   1.8598069007958E-03
(PID.TID 0000.0001) %MON dynstat_vvel_max             =   2.8758601121931E-01
(PID.TID 0000.0001) %MON dynstat_vvel_min             =  -4.1463215061640E-01
(PID.TID 0000.0001) %MON dynstat_vvel_mean            =   4.9786740270202E-03
(PID.TID 0000.0001) %MON dynstat_vvel_sd              =   1.5414499478840E-02
(PID.TID 0000.0001) %MON dynstat_vvel_del2            =   2.4909646112202E-03
(PID.TID 0000.0001) %MON dynstat_wvel_max             =   1.3332342545398E-03
(PID.TID 0000.0001) %MON dynstat_wvel_min             =  -8.4057822054847E-04
(PID.TID 0000.0001) %MON dynstat_wvel_mean            =  -1.3637234090720E-22
(PID.TID 0000.0001) %MON dynstat_wvel_sd              =   4.9148165672096E-05
(PID.TID 0000.0001) %MON dynstat_wvel_del2            =   1.1703676362366E-05
(PID.TID 0000.0001) %MON dynstat_theta_max            =   2.9223693123791E+01
(PID.TID 0000.0001) %MON dynstat_theta_min            =  -1.8549475080013E+00
(PID.TID 0000.0001) %MON dynstat_theta_mean           =   3.4301417717588E+00
(PID.TID 0000.0001) %MON dynstat_theta_sd             =   4.0953089062822E+00
(PID.TID 0000.0001) %MON dynstat_theta_del2           =   1.3066849559881E-01
(PID.TID 0000.0001) %MON dynstat_salt_max             =   3.7433735546146E+01
(PID.TID 0000.0001) %MON dynstat_salt_min             =   3.1019913626839E+01
(PID.TID 0000.0001) %MON dynstat_salt_mean            =   3.4714325561705E+01
(PID.TID 0000.0001) %MON dynstat_salt_sd              =   2.7652874016904E-01
(PID.TID 0000.0001) %MON dynstat_salt_del2            =   2.1733025156053E-02
(PID.TID 0000.0001) %MON extforcing_qnet_max          =   1.3751637555833E+02
(PID.TID 0000.0001) %MON extforcing_qnet_min          =  -3.5658252969762E+01
(PID.TID 0000.0001) %MON extforcing_qnet_mean         =  -7.5951984265328E-01
(PID.TID 0000.0001) %MON extforcing_qnet_sd           =   2.3448199028631E+01
(PID.TID 0000.0001) %MON extforcing_qnet_del2         =   7.4226485080215E-01
(PID.TID 0000.0001) %MON extforcing_qsw_max           =   0.0000000000000E+00
(PID.TID 0000.0001) %MON extforcing_qsw_min           =   0.0000000000000E+00
(PID.TID 0000.0001) %MON extforcing_qsw_mean          =   0.0000000000000E+00
(PID.TID 0000.0001) %MON extforcing_qsw_sd            =   0.0000000000000E+00
(PID.TID 0000.0001) %MON extforcing_qsw_del2          =   0.0000000000000E+00
(PID.TID 0000.0001) %MON extforcing_empmr_max         =   3.8916387204582E-05
(PID.TID 0000.0001) %MON extforcing_empmr_min         =  -1.8174137994730E-05
(PID.TID 0000.0001) %MON extforcing_empmr_mean        =   1.6190657687033E-06
(PID.TID 0000.0001) %MON extforcing_empmr_sd          =   1.2325823495205E-05
(PID.TID 0000.0001) %MON extforcing_empmr_del2        =   7.7932218222740E-07
(PID.TID 0000.0001) %MON advcfl_uvel_max              =   3.1082935153019E-02
(PID.TID 0000.0001) %MON advcfl_vvel_max              =   4.0278188482280E-02
(PID.TID 0000.0001) %MON advcfl_wvel_max              =   2.0856127717296E-01
(PID.TID 0000.0001) %MON advcfl_W_hf_max              =   1.5821079899214E-01
(PID.TID 0000.0001) %MON pe_b_mean                    =   5.7725132368332E-05
(PID.TID 0000.0001) %MON ke_max                       =   5.0807409458276E-02
(PID.TID 0000.0001) %MON ke_mean                      =   1.6905692955675E-04
(PID.TID 0000.0001) %MON ke_vol                       =   1.4101703507225E+18
(PID.TID 0000.0001) %MON vort_r_min                   =  -9.3203793558692E-07
(PID.TID 0000.0001) %MON vort_r_max                   =   9.7519303697232E-07
(PID.TID 0000.0001) %MON vort_a_mean                  =  -1.9922043059714E-05
(PID.TID 0000.0001) %MON vort_a_sd                    =   7.3516295069123E-05
(PID.TID 0000.0001) %MON vort_p_mean                  =  -2.3665444248068E-05
(PID.TID 0000.0001) %MON vort_p_sd                    =   1.0341225385375E-04
(PID.TID 0000.0001) %MON surfExpan_theta_mean         =   1.7795240985835E-04
(PID.TID 0000.0001) %MON surfExpan_salt_mean          =   1.4388708257523E-05
(PID.TID 0000.0001) // =======================================================
(PID.TID 0000.0001) // End MONITOR dynamic field statistics
(PID.TID 0000.0001) // =======================================================
 SH  5.24667247  23.2419868
 NH  10.5234693  25.5364035
 SH  5.24667247  23.2419868
 NH  10.5234693  25.5364035
 cg2d: Sum(rhs),rhsMax =   1.51444331430630E-02  2.07969737769940E+01
(PID.TID 0000.0001)                    cg2d_init_res =    7.88540314693874E-01
(PID.TID 0000.0001)                       cg2d_iters =    22
(PID.TID 0000.0001)                         cg2d_res =    4.48292347625203E-14
(PID.TID 0000.0001) // =======================================================
(PID.TID 0000.0001) // Begin MONITOR dynamic field statistics
(PID.TID 0000.0001) // =======================================================
(PID.TID 0000.0001) %MON time_tsnumber                =                     8
(PID.TID 0000.0001) %MON time_secondsf                =   3.4560000000000E+05
(PID.TID 0000.0001) %MON dynstat_eta_max              =   1.1732151857822E+00
(PID.TID 0000.0001) %MON dynstat_eta_min              =  -8.4947156379511E-01
(PID.TID 0000.0001) %MON dynstat_eta_mean             =  -1.5017421622428E-05
(PID.TID 0000.0001) %MON dynstat_eta_sd               =   2.5141375262393E-01
(PID.TID 0000.0001) %MON dynstat_eta_del2             =   2.0833403121273E-02
(PID.TID 0000.0001) %MON dynstat_uvel_max             =   2.1704092869160E-01
(PID.TID 0000.0001) %MON dynstat_uvel_min             =  -3.5288582070052E-01
(PID.TID 0000.0001) %MON dynstat_uvel_mean            =  -6.1498673996656E-03
(PID.TID 0000.0001) %MON dynstat_uvel_sd              =   1.0384483910441E-02
(PID.TID 0000.0001) %MON dynstat_uvel_del2            =   2.0497711167994E-03
(PID.TID 0000.0001) %MON dynstat_vvel_max             =   3.2486914672207E-01
(PID.TID 0000.0001) %MON dynstat_vvel_min             =  -4.6642343311914E-01
(PID.TID 0000.0001) %MON dynstat_vvel_mean            =   5.1890045728795E-03
(PID.TID 0000.0001) %MON dynstat_vvel_sd              =   1.6283465666605E-02
(PID.TID 0000.0001) %MON dynstat_vvel_del2            =   2.6959835228794E-03
(PID.TID 0000.0001) %MON dynstat_wvel_max             =   1.5064750801224E-03
(PID.TID 0000.0001) %MON dynstat_wvel_min             =  -9.5533161276040E-04
(PID.TID 0000.0001) %MON dynstat_wvel_mean            =   1.8637553257318E-21
(PID.TID 0000.0001) %MON dynstat_wvel_sd              =   5.3236466700620E-05
(PID.TID 0000.0001) %MON dynstat_wvel_del2            =   1.2629692117272E-05
(PID.TID 0000.0001) %MON dynstat_theta_max            =   2.9230019886664E+01
(PID.TID 0000.0001) %MON dynstat_theta_min            =  -1.8555313898052E+00
(PID.TID 0000.0001) %MON dynstat_theta_mean           =   3.4282873267271E+00
(PID.TID 0000.0001) %MON dynstat_theta_sd             =   4.0912335111148E+00
(PID.TID 0000.0001) %MON dynstat_theta_del2           =   1.3018504954627E-01
(PID.TID 0000.0001) %MON dynstat_salt_max             =   3.7432395044988E+01
(PID.TID 0000.0001) %MON dynstat_salt_min             =   3.1013961734769E+01
(PID.TID 0000.0001) %MON dynstat_salt_mean            =   3.4714177801553E+01
(PID.TID 0000.0001) %MON dynstat_salt_sd              =   2.7655114078285E-01
(PID.TID 0000.0001) %MON dynstat_salt_del2            =   2.1681659648083E-02
(PID.TID 0000.0001) %MON extforcing_qnet_max          =   1.3911608459136E+02
(PID.TID 0000.0001) %MON extforcing_qnet_min          =  -3.5946758492772E+01
(PID.TID 0000.0001) %MON extforcing_qnet_mean         =  -7.9398034719115E-01
(PID.TID 0000.0001) %MON extforcing_qnet_sd           =   2.3694108000771E+01
(PID.TID 0000.0001) %MON extforcing_qnet_del2         =   7.4682107098714E-01
(PID.TID 0000.0001) %MON extforcing_qsw_max           =   0.0000000000000E+00
(PID.TID 0000.0001) %MON extforcing_qsw_min           =   0.0000000000000E+00
(PID.TID 0000.0001) %MON extforcing_qsw_mean          =   0.0000000000000E+00
(PID.TID 0000.0001) %MON extforcing_qsw_sd            =   0.0000000000000E+00
(PID.TID 0000.0001) %MON extforcing_qsw_del2          =   0.0000000000000E+00
(PID.TID 0000.0001) %MON extforcing_empmr_max         =   3.8916387204582E-05
(PID.TID 0000.0001) %MON extforcing_empmr_min         =  -1.8174137994730E-05
(PID.TID 0000.0001) %MON extforcing_empmr_mean        =   1.6190657687033E-06
(PID.TID 0000.0001) %MON extforcing_empmr_sd          =   1.2325823495205E-05
(PID.TID 0000.0001) %MON extforcing_empmr_del2        =   7.7932218222740E-07
(PID.TID 0000.0001) %MON advcfl_uvel_max              =   3.4808852359395E-02
(PID.TID 0000.0001) %MON advcfl_vvel_max              =   4.5309296261267E-02
(PID.TID 0000.0001) %MON advcfl_wvel_max              =   2.1614996299062E-01
(PID.TID 0000.0001) %MON advcfl_W_hf_max              =   1.7918262967469E-01
(PID.TID 0000.0001) %MON pe_b_mean                    =   7.3333978893185E-05
(PID.TID 0000.0001) %MON ke_max                       =   6.4208135839070E-02
(PID.TID 0000.0001) %MON ke_mean                      =   2.0013140136266E-04
(PID.TID 0000.0001) %MON ke_vol                       =   1.4101703507225E+18
(PID.TID 0000.0001) %MON vort_r_min                   =  -1.0427842759527E-06
(PID.TID 0000.0001) %MON vort_r_max                   =   1.0993860752877E-06
(PID.TID 0000.0001) %MON vort_a_mean                  =  -1.9922043059714E-05
(PID.TID 0000.0001) %MON vort_a_sd                    =   7.3516110283051E-05
(PID.TID 0000.0001) %MON vort_p_mean                  =  -2.3665444248068E-05
(PID.TID 0000.0001) %MON vort_p_sd                    =   1.0341183121583E-04
(PID.TID 0000.0001) %MON surfExpan_theta_mean         =   1.7919635031945E-04
(PID.TID 0000.0001) %MON surfExpan_salt_mean          =   1.4073422888722E-05
(PID.TID 0000.0001) // =======================================================
(PID.TID 0000.0001) // End MONITOR dynamic field statistics
(PID.TID 0000.0001) // =======================================================
 SH  5.255225  23.2218728
 NH  10.5330419  25.5321066
 SH  5.255225  23.2218728
 NH  10.5330419  25.5321066
 cg2d: Sum(rhs),rhsMax =   1.80582388510038E-02  1.96214137622427E+01
(PID.TID 0000.0001)                    cg2d_init_res =    8.01896303164062E-01
(PID.TID 0000.0001)                       cg2d_iters =    22
(PID.TID 0000.0001)                         cg2d_res =    4.59566409543881E-14
(PID.TID 0000.0001) // =======================================================
(PID.TID 0000.0001) // Begin MONITOR dynamic field statistics
(PID.TID 0000.0001) // =======================================================
(PID.TID 0000.0001) %MON time_tsnumber                =                     9
(PID.TID 0000.0001) %MON time_secondsf                =   3.8880000000000E+05
(PID.TID 0000.0001) %MON dynstat_eta_max              =   1.1076699919740E+00
(PID.TID 0000.0001) %MON dynstat_eta_min              =  -9.2228685553888E-01
(PID.TID 0000.0001) %MON dynstat_eta_mean             =  -1.6894599325406E-05
(PID.TID 0000.0001) %MON dynstat_eta_sd               =   2.7800121406564E-01
(PID.TID 0000.0001) %MON dynstat_eta_del2             =   2.0228478063975E-02
(PID.TID 0000.0001) %MON dynstat_uvel_max             =   2.3793272364146E-01
(PID.TID 0000.0001) %MON dynstat_uvel_min             =  -3.8982073187161E-01
(PID.TID 0000.0001) %MON dynstat_uvel_mean            =  -7.0268767147046E-03
(PID.TID 0000.0001) %MON dynstat_uvel_sd              =   1.1784374904075E-02
(PID.TID 0000.0001) %MON dynstat_uvel_del2            =   2.2257429689859E-03
(PID.TID 0000.0001) %MON dynstat_vvel_max             =   3.6110782397874E-01
(PID.TID 0000.0001) %MON dynstat_vvel_min             =  -5.1622954623151E-01
(PID.TID 0000.0001) %MON dynstat_vvel_mean            =   5.2624676728579E-03
(PID.TID 0000.0001) %MON dynstat_vvel_sd              =   1.6920939828393E-02
(PID.TID 0000.0001) %MON dynstat_vvel_del2            =   2.8675244601108E-03
(PID.TID 0000.0001) %MON dynstat_wvel_max             =   1.6768172291345E-03
(PID.TID 0000.0001) %MON dynstat_wvel_min             =  -1.0538098816902E-03
(PID.TID 0000.0001) %MON dynstat_wvel_mean            =   1.4546383030102E-21
(PID.TID 0000.0001) %MON dynstat_wvel_sd              =   5.6959823236592E-05
(PID.TID 0000.0001) %MON dynstat_wvel_del2            =   1.3331938573548E-05
(PID.TID 0000.0001) %MON dynstat_theta_max            =   2.9223470277594E+01
(PID.TID 0000.0001) %MON dynstat_theta_min            =  -1.8560741469503E+00
(PID.TID 0000.0001) %MON dynstat_theta_mean           =   3.4264507653936E+00
(PID.TID 0000.0001) %MON dynstat_theta_sd             =   4.0870338747560E+00
(PID.TID 0000.0001) %MON dynstat_theta_del2           =   1.2970513350778E-01
(PID.TID 0000.0001) %MON dynstat_salt_max             =   3.7431347052167E+01
(PID.TID 0000.0001) %MON dynstat_salt_min             =   3.1007862548855E+01
(PID.TID 0000.0001) %MON dynstat_salt_mean            =   3.4714035995240E+01
(PID.TID 0000.0001) %MON dynstat_salt_sd              =   2.7656481646187E-01
(PID.TID 0000.0001) %MON dynstat_salt_del2            =   2.1633508986171E-02
(PID.TID 0000.0001) %MON extforcing_qnet_max          =   1.4045775464293E+02
(PID.TID 0000.0001) %MON extforcing_qnet_min          =  -3.6270190125255E+01
(PID.TID 0000.0001) %MON extforcing_qnet_mean         =  -8.3347987702862E-01
(PID.TID 0000.0001) %MON extforcing_qnet_sd           =   2.3920692400601E+01
(PID.TID 0000.0001) %MON extforcing_qnet_del2         =   7.5167418915060E-01
(PID.TID 0000.0001) %MON extforcing_qsw_max           =   0.0000000000000E+00
(PID.TID 0000.0001) %MON extforcing_qsw_min           =   0.0000000000000E+00
(PID.TID 0000.0001) %MON extforcing_qsw_mean          =   0.0000000000000E+00
(PID.TID 0000.0001) %MON extforcing_qsw_sd            =   0.0000000000000E+00
(PID.TID 0000.0001) %MON extforcing_qsw_del2          =   0.0000000000000E+00
(PID.TID 0000.0001) %MON extforcing_empmr_max         =   3.8916387204582E-05
(PID.TID 0000.0001) %MON extforcing_empmr_min         =  -1.8174137994730E-05
(PID.TID 0000.0001) %MON extforcing_empmr_mean        =   1.6190657687033E-06
(PID.TID 0000.0001) %MON extforcing_empmr_sd          =   1.2325823495205E-05
(PID.TID 0000.0001) %MON extforcing_empmr_del2        =   7.7932218222740E-07
(PID.TID 0000.0001) %MON advcfl_uvel_max              =   3.8452132407626E-02
(PID.TID 0000.0001) %MON advcfl_vvel_max              =   5.0147560753125E-02
(PID.TID 0000.0001) %MON advcfl_wvel_max              =   2.1378578389433E-01
(PID.TID 0000.0001) %MON advcfl_W_hf_max              =   1.9999330127587E-01
(PID.TID 0000.0001) %MON pe_b_mean                    =   8.9664508770021E-05
(PID.TID 0000.0001) %MON ke_max                       =   7.8813237472701E-02
(PID.TID 0000.0001) %MON ke_mean                      =   2.2977213273067E-04
(PID.TID 0000.0001) %MON ke_vol                       =   1.4101703507225E+18
(PID.TID 0000.0001) %MON vort_r_min                   =  -1.1501588890592E-06
(PID.TID 0000.0001) %MON vort_r_max                   =   1.2209370111200E-06
(PID.TID 0000.0001) %MON vort_a_mean                  =  -1.9922043059714E-05
(PID.TID 0000.0001) %MON vort_a_sd                    =   7.3515936085379E-05
(PID.TID 0000.0001) %MON vort_p_mean                  =  -2.3665444248068E-05
(PID.TID 0000.0001) %MON vort_p_sd                    =   1.0341145067220E-04
(PID.TID 0000.0001) %MON surfExpan_theta_mean         =   1.7615001297516E-04
(PID.TID 0000.0001) %MON surfExpan_salt_mean          =   1.3383124366703E-05
(PID.TID 0000.0001) // =======================================================
(PID.TID 0000.0001) // End MONITOR dynamic field statistics
(PID.TID 0000.0001) // =======================================================
 SH  5.26480298  23.2006325
 NH  10.5405599  25.5285853
 SH  5.26480298  23.2006325
 NH  10.5405599  25.5285853
 cg2d: Sum(rhs),rhsMax =   2.10285050493386E-02  1.87221094775492E+01
(PID.TID 0000.0001)                    cg2d_init_res =    8.00789230098579E-01
(PID.TID 0000.0001)                       cg2d_iters =    22
(PID.TID 0000.0001)                         cg2d_res =    4.61901473460345E-14
(PID.TID 0000.0001) // =======================================================
(PID.TID 0000.0001) // Begin MONITOR dynamic field statistics
(PID.TID 0000.0001) // =======================================================
(PID.TID 0000.0001) %MON time_tsnumber                =                    10
(PID.TID 0000.0001) %MON time_secondsf                =   4.3200000000000E+05
(PID.TID 0000.0001) %MON dynstat_eta_max              =   1.1107433452540E+00
(PID.TID 0000.0001) %MON dynstat_eta_min              =  -9.7611820003652E-01
(PID.TID 0000.0001) %MON dynstat_eta_mean             =  -1.8771777028267E-05
(PID.TID 0000.0001) %MON dynstat_eta_sd               =   3.0229613589688E-01
(PID.TID 0000.0001) %MON dynstat_eta_del2             =   1.9772974939065E-02
(PID.TID 0000.0001) %MON dynstat_uvel_max             =   2.5697994935958E-01
(PID.TID 0000.0001) %MON dynstat_uvel_min             =  -4.2503960092141E-01
(PID.TID 0000.0001) %MON dynstat_uvel_mean            =  -7.8172442701186E-03
(PID.TID 0000.0001) %MON dynstat_uvel_sd              =   1.3138929137080E-02
(PID.TID 0000.0001) %MON dynstat_uvel_del2            =   2.3887321545866E-03
(PID.TID 0000.0001) %MON dynstat_vvel_max             =   3.9586191442687E-01
(PID.TID 0000.0001) %MON dynstat_vvel_min             =  -5.6374561197116E-01
(PID.TID 0000.0001) %MON dynstat_vvel_mean            =   5.2136406853384E-03
(PID.TID 0000.0001) %MON dynstat_vvel_sd              =   1.7373446158420E-02
(PID.TID 0000.0001) %MON dynstat_vvel_del2            =   3.0064450002392E-03
(PID.TID 0000.0001) %MON dynstat_wvel_max             =   1.8421130459959E-03
(PID.TID 0000.0001) %MON dynstat_wvel_min             =  -1.1447958362661E-03
(PID.TID 0000.0001) %MON dynstat_wvel_mean            =   1.9092127727009E-21
(PID.TID 0000.0001) %MON dynstat_wvel_sd              =   6.0242553620877E-05
(PID.TID 0000.0001) %MON dynstat_wvel_del2            =   1.3791003471886E-05
(PID.TID 0000.0001) %MON dynstat_theta_max            =   2.9204204231916E+01
(PID.TID 0000.0001) %MON dynstat_theta_min            =  -1.8602843364457E+00
(PID.TID 0000.0001) %MON dynstat_theta_mean           =   3.4246717477484E+00
(PID.TID 0000.0001) %MON dynstat_theta_sd             =   4.0827733195300E+00
(PID.TID 0000.0001) %MON dynstat_theta_del2           =   1.2925365470517E-01
(PID.TID 0000.0001) %MON dynstat_salt_max             =   3.7430752421543E+01
(PID.TID 0000.0001) %MON dynstat_salt_min             =   3.1002359937428E+01
(PID.TID 0000.0001) %MON dynstat_salt_mean            =   3.4713903544631E+01
(PID.TID 0000.0001) %MON dynstat_salt_sd              =   2.7656821659081E-01
(PID.TID 0000.0001) %MON dynstat_salt_del2            =   2.1590231321039E-02
(PID.TID 0000.0001) %MON extforcing_qnet_max          =   1.4152366043766E+02
(PID.TID 0000.0001) %MON extforcing_qnet_min          =  -3.6615177710097E+01
(PID.TID 0000.0001) %MON extforcing_qnet_mean         =  -8.7675806499626E-01
(PID.TID 0000.0001) %MON extforcing_qnet_sd           =   2.4123204270485E+01
(PID.TID 0000.0001) %MON extforcing_qnet_del2         =   7.5661987406140E-01
(PID.TID 0000.0001) %MON extforcing_qsw_max           =   0.0000000000000E+00
(PID.TID 0000.0001) %MON extforcing_qsw_min           =   0.0000000000000E+00
(PID.TID 0000.0001) %MON extforcing_qsw_mean          =   0.0000000000000E+00
(PID.TID 0000.0001) %MON extforcing_qsw_sd            =   0.0000000000000E+00
(PID.TID 0000.0001) %MON extforcing_qsw_del2          =   0.0000000000000E+00
(PID.TID 0000.0001) %MON extforcing_empmr_max         =   3.8916387204582E-05
(PID.TID 0000.0001) %MON extforcing_empmr_min         =  -1.8174137994730E-05
(PID.TID 0000.0001) %MON extforcing_empmr_mean        =   1.6190657687033E-06
(PID.TID 0000.0001) %MON extforcing_empmr_sd          =   1.2325823495205E-05
(PID.TID 0000.0001) %MON extforcing_empmr_del2        =   7.7932218222740E-07
(PID.TID 0000.0001) %MON advcfl_uvel_max              =   4.1926141112724E-02
(PID.TID 0000.0001) %MON advcfl_vvel_max              =   5.4763365506695E-02
(PID.TID 0000.0001) %MON advcfl_wvel_max              =   2.0521731594014E-01
(PID.TID 0000.0001) %MON advcfl_W_hf_max              =   2.2029847434926E-01
(PID.TID 0000.0001) %MON pe_b_mean                    =   1.0602111815155E-04
(PID.TID 0000.0001) %MON ke_max                       =   9.4231384692989E-02
(PID.TID 0000.0001) %MON ke_mean                      =   2.5760048549684E-04
(PID.TID 0000.0001) %MON ke_vol                       =   1.4101703507225E+18
(PID.TID 0000.0001) %MON vort_r_min                   =  -1.2518323011956E-06
(PID.TID 0000.0001) %MON vort_r_max                   =   1.3386168310884E-06
(PID.TID 0000.0001) %MON vort_a_mean                  =  -1.9922043059714E-05
(PID.TID 0000.0001) %MON vort_a_sd                    =   7.3515777470352E-05
(PID.TID 0000.0001) %MON vort_p_mean                  =  -2.3665444248068E-05
(PID.TID 0000.0001) %MON vort_p_sd                    =   1.0341112632843E-04
(PID.TID 0000.0001) %MON surfExpan_theta_mean         =   1.6951274139346E-04
(PID.TID 0000.0001) %MON surfExpan_salt_mean          =   1.2382302030129E-05
(PID.TID 0000.0001) // =======================================================
(PID.TID 0000.0001) // End MONITOR dynamic field statistics
(PID.TID 0000.0001) // =======================================================
 SH  5.27508374  23.179032
 NH  10.5458788  25.5253925
 SH  5.27508374  23.179032
 NH  10.5458788  25.5253925
 cg2d: Sum(rhs),rhsMax =   2.39208149227075E-02  1.81042231400666E+01
(PID.TID 0000.0001)                    cg2d_init_res =    7.84056045284868E-01
(PID.TID 0000.0001)                       cg2d_iters =    22
(PID.TID 0000.0001)                         cg2d_res =    4.45192670551428E-14
(PID.TID 0000.0001) // =======================================================
(PID.TID 0000.0001) // Begin MONITOR dynamic field statistics
(PID.TID 0000.0001) // =======================================================
(PID.TID 0000.0001) %MON time_tsnumber                =                    11
(PID.TID 0000.0001) %MON time_secondsf                =   4.7520000000000E+05
(PID.TID 0000.0001) %MON dynstat_eta_max              =   1.1302547880492E+00
(PID.TID 0000.0001) %MON dynstat_eta_min              =  -1.0524510011196E+00
(PID.TID 0000.0001) %MON dynstat_eta_mean             =  -2.0648954731241E-05
(PID.TID 0000.0001) %MON dynstat_eta_sd               =   3.2380446499924E-01
(PID.TID 0000.0001) %MON dynstat_eta_del2             =   1.9392329018204E-02
(PID.TID 0000.0001) %MON dynstat_uvel_max             =   2.7451574104657E-01
(PID.TID 0000.0001) %MON dynstat_uvel_min             =  -4.5799982453255E-01
(PID.TID 0000.0001) %MON dynstat_uvel_mean            =  -8.4985256770599E-03
(PID.TID 0000.0001) %MON dynstat_uvel_sd              =   1.4424550060196E-02
(PID.TID 0000.0001) %MON dynstat_uvel_del2            =   2.5371335798850E-03
(PID.TID 0000.0001) %MON dynstat_vvel_max             =   4.2894468950719E-01
(PID.TID 0000.0001) %MON dynstat_vvel_min             =  -6.0867197489824E-01
(PID.TID 0000.0001) %MON dynstat_vvel_mean            =   5.0631704181368E-03
(PID.TID 0000.0001) %MON dynstat_vvel_sd              =   1.7692243373498E-02
(PID.TID 0000.0001) %MON dynstat_vvel_del2            =   3.1126093150617E-03
(PID.TID 0000.0001) %MON dynstat_wvel_max             =   2.0001340147874E-03
(PID.TID 0000.0001) %MON dynstat_wvel_min             =  -1.2288975607470E-03
(PID.TID 0000.0001) %MON dynstat_wvel_mean            =   7.2731915150509E-22
(PID.TID 0000.0001) %MON dynstat_wvel_sd              =   6.3097359453829E-05
(PID.TID 0000.0001) %MON dynstat_wvel_del2            =   1.4024519609407E-05
(PID.TID 0000.0001) %MON dynstat_theta_max            =   2.9172015073991E+01
(PID.TID 0000.0001) %MON dynstat_theta_min            =  -1.8812026409162E+00
(PID.TID 0000.0001) %MON dynstat_theta_mean           =   3.4229826837020E+00
(PID.TID 0000.0001) %MON dynstat_theta_sd             =   4.0785063568821E+00
(PID.TID 0000.0001) %MON dynstat_theta_del2           =   1.2883986157646E-01
(PID.TID 0000.0001) %MON dynstat_salt_max             =   3.7430626772502E+01
(PID.TID 0000.0001) %MON dynstat_salt_min             =   3.0998101085334E+01
(PID.TID 0000.0001) %MON dynstat_salt_mean            =   3.4713783222024E+01
(PID.TID 0000.0001) %MON dynstat_salt_sd              =   2.7655977663672E-01
(PID.TID 0000.0001) %MON dynstat_salt_del2            =   2.1551235165071E-02
(PID.TID 0000.0001) %MON extforcing_qnet_max          =   1.4234230911491E+02
(PID.TID 0000.0001) %MON extforcing_qnet_min          =  -3.6969336464957E+01
(PID.TID 0000.0001) %MON extforcing_qnet_mean         =  -9.2267459340263E-01
(PID.TID 0000.0001) %MON extforcing_qnet_sd           =   2.4302123667675E+01
(PID.TID 0000.0001) %MON extforcing_qnet_del2         =   7.6149447305063E-01
(PID.TID 0000.0001) %MON extforcing_qsw_max           =   0.0000000000000E+00
(PID.TID 0000.0001) %MON extforcing_qsw_min           =   0.0000000000000E+00
(PID.TID 0000.0001) %MON extforcing_qsw_mean          =   0.0000000000000E+00
(PID.TID 0000.0001) %MON extforcing_qsw_sd            =   0.0000000000000E+00
(PID.TID 0000.0001) %MON extforcing_qsw_del2          =   0.0000000000000E+00
(PID.TID 0000.0001) %MON extforcing_empmr_max         =   3.8916387204582E-05
(PID.TID 0000.0001) %MON extforcing_empmr_min         =  -1.8174137994730E-05
(PID.TID 0000.0001) %MON extforcing_empmr_mean        =   1.6190657687033E-06
(PID.TID 0000.0001) %MON extforcing_empmr_sd          =   1.2325823495205E-05
(PID.TID 0000.0001) %MON extforcing_empmr_del2        =   7.7932218222740E-07
(PID.TID 0000.0001) %MON advcfl_uvel_max              =   4.5177355783620E-02
(PID.TID 0000.0001) %MON advcfl_vvel_max              =   5.9127601398943E-02
(PID.TID 0000.0001) %MON advcfl_wvel_max              =   2.2334177955831E-01
(PID.TID 0000.0001) %MON advcfl_W_hf_max              =   2.3976396923172E-01
(PID.TID 0000.0001) %MON pe_b_mean                    =   1.2164460560185E-04
(PID.TID 0000.0001) %MON ke_max                       =   1.1009968452596E-01
(PID.TID 0000.0001) %MON ke_mean                      =   2.8347264479812E-04
(PID.TID 0000.0001) %MON ke_vol                       =   1.4101703507225E+18
(PID.TID 0000.0001) %MON vort_r_min                   =  -1.3463737401651E-06
(PID.TID 0000.0001) %MON vort_r_max                   =   1.4514999688268E-06
(PID.TID 0000.0001) %MON vort_a_mean                  =  -1.9922043059714E-05
(PID.TID 0000.0001) %MON vort_a_sd                    =   7.3515638461006E-05
(PID.TID 0000.0001) %MON vort_p_mean                  =  -2.3665444248068E-05
(PID.TID 0000.0001) %MON vort_p_sd                    =   1.0341086825053E-04
(PID.TID 0000.0001) %MON surfExpan_theta_mean         =   1.5995138542674E-04
(PID.TID 0000.0001) %MON surfExpan_salt_mean          =   1.1134103927303E-05
(PID.TID 0000.0001) // =======================================================
(PID.TID 0000.0001) // End MONITOR dynamic field statistics
(PID.TID 0000.0001) // =======================================================
 SH  5.28569176  23.1577057
 NH  10.5491113  25.5220423
 SH  5.28569176  23.1577057
 NH  10.5491113  25.5220423
 cg2d: Sum(rhs),rhsMax =   2.66584784039363E-02  1.77218504846084E+01
(PID.TID 0000.0001)                    cg2d_init_res =    7.56211181573979E-01
(PID.TID 0000.0001)                       cg2d_iters =    22
(PID.TID 0000.0001)                         cg2d_res =    4.03614858780636E-14
(PID.TID 0000.0001) // =======================================================
(PID.TID 0000.0001) // Begin MONITOR dynamic field statistics
(PID.TID 0000.0001) // =======================================================
(PID.TID 0000.0001) %MON time_tsnumber                =                    12
(PID.TID 0000.0001) %MON time_secondsf                =   5.1840000000000E+05
(PID.TID 0000.0001) %MON dynstat_eta_max              =   1.1497778267379E+00
(PID.TID 0000.0001) %MON dynstat_eta_min              =  -1.1126466617678E+00
(PID.TID 0000.0001) %MON dynstat_eta_mean             =  -2.2526132434020E-05
(PID.TID 0000.0001) %MON dynstat_eta_sd               =   3.4213446757777E-01
(PID.TID 0000.0001) %MON dynstat_eta_del2             =   1.8996480212709E-02
(PID.TID 0000.0001) %MON dynstat_uvel_max             =   2.9058660963745E-01
(PID.TID 0000.0001) %MON dynstat_uvel_min             =  -4.8850587931509E-01
(PID.TID 0000.0001) %MON dynstat_uvel_mean            =  -9.0543407504268E-03
(PID.TID 0000.0001) %MON dynstat_uvel_sd              =   1.5623120458268E-02
(PID.TID 0000.0001) %MON dynstat_uvel_del2            =   2.6696626982855E-03
(PID.TID 0000.0001) %MON dynstat_vvel_max             =   4.6024618396392E-01
(PID.TID 0000.0001) %MON dynstat_vvel_min             =  -6.5072330087679E-01
(PID.TID 0000.0001) %MON dynstat_vvel_mean            =   4.8351937572809E-03
(PID.TID 0000.0001) %MON dynstat_vvel_sd              =   1.7928272720409E-02
(PID.TID 0000.0001) %MON dynstat_vvel_del2            =   3.1877757798236E-03
(PID.TID 0000.0001) %MON dynstat_wvel_max             =   2.1488006805770E-03
(PID.TID 0000.0001) %MON dynstat_wvel_min             =  -1.3060542302700E-03
(PID.TID 0000.0001) %MON dynstat_wvel_mean            =  -3.3638510757111E-21
(PID.TID 0000.0001) %MON dynstat_wvel_sd              =   6.5613670230911E-05
(PID.TID 0000.0001) %MON dynstat_wvel_del2            =   1.4074413800833E-05
(PID.TID 0000.0001) %MON dynstat_theta_max            =   2.9129211916644E+01
(PID.TID 0000.0001) %MON dynstat_theta_min            =  -1.8973412904404E+00
(PID.TID 0000.0001) %MON dynstat_theta_mean           =   3.4214093948535E+00
(PID.TID 0000.0001) %MON dynstat_theta_sd             =   4.0742825422289E+00
(PID.TID 0000.0001) %MON dynstat_theta_del2           =   1.2844521352905E-01
(PID.TID 0000.0001) %MON dynstat_salt_max             =   3.7430854140095E+01
(PID.TID 0000.0001) %MON dynstat_salt_min             =   3.0995557119316E+01
(PID.TID 0000.0001) %MON dynstat_salt_mean            =   3.4713677162466E+01
(PID.TID 0000.0001) %MON dynstat_salt_sd              =   2.7653839192985E-01
(PID.TID 0000.0001) %MON dynstat_salt_del2            =   2.1517043088099E-02
(PID.TID 0000.0001) %MON extforcing_qnet_max          =   1.4297064714479E+02
(PID.TID 0000.0001) %MON extforcing_qnet_min          =  -3.7321654330242E+01
(PID.TID 0000.0001) %MON extforcing_qnet_mean         =  -9.7016466370372E-01
(PID.TID 0000.0001) %MON extforcing_qnet_sd           =   2.4461210179655E+01
(PID.TID 0000.0001) %MON extforcing_qnet_del2         =   7.6617312716618E-01
(PID.TID 0000.0001) %MON extforcing_qsw_max           =   0.0000000000000E+00
(PID.TID 0000.0001) %MON extforcing_qsw_min           =   0.0000000000000E+00
(PID.TID 0000.0001) %MON extforcing_qsw_mean          =   0.0000000000000E+00
(PID.TID 0000.0001) %MON extforcing_qsw_sd            =   0.0000000000000E+00
(PID.TID 0000.0001) %MON extforcing_qsw_del2          =   0.0000000000000E+00
(PID.TID 0000.0001) %MON extforcing_empmr_max         =   3.8916387204582E-05
(PID.TID 0000.0001) %MON extforcing_empmr_min         =  -1.8174137994730E-05
(PID.TID 0000.0001) %MON extforcing_empmr_mean        =   1.6190657687033E-06
(PID.TID 0000.0001) %MON extforcing_empmr_sd          =   1.2325823495205E-05
(PID.TID 0000.0001) %MON extforcing_empmr_del2        =   7.7932218222740E-07
(PID.TID 0000.0001) %MON advcfl_uvel_max              =   4.8186489885084E-02
(PID.TID 0000.0001) %MON advcfl_vvel_max              =   6.3212550506666E-02
(PID.TID 0000.0001) %MON advcfl_wvel_max              =   2.4040785007506E-01
(PID.TID 0000.0001) %MON advcfl_W_hf_max              =   2.5808489787470E-01
(PID.TID 0000.0001) %MON pe_b_mean                    =   1.3580659032085E-04
(PID.TID 0000.0001) %MON ke_max                       =   1.2611099564030E-01
(PID.TID 0000.0001) %MON ke_mean                      =   3.0739999174265E-04
(PID.TID 0000.0001) %MON ke_vol                       =   1.4101703507225E+18
(PID.TID 0000.0001) %MON vort_r_min                   =  -1.4327118043707E-06
(PID.TID 0000.0001) %MON vort_r_max                   =   1.5588016250032E-06
(PID.TID 0000.0001) %MON vort_a_mean                  =  -1.9922043059714E-05
(PID.TID 0000.0001) %MON vort_a_sd                    =   7.3515522136826E-05
(PID.TID 0000.0001) %MON vort_p_mean                  =  -2.3665444248068E-05
(PID.TID 0000.0001) %MON vort_p_sd                    =   1.0341068255656E-04
(PID.TID 0000.0001) %MON surfExpan_theta_mean         =   1.4807773656136E-04
(PID.TID 0000.0001) %MON surfExpan_salt_mean          =   9.7021506186568E-06
(PID.TID 0000.0001) // =======================================================
(PID.TID 0000.0001) // End MONITOR dynamic field statistics
(PID.TID 0000.0001) // =======================================================
 SH  5.29624877  23.1371923
 NH  10.5505073  25.5180667
 SH  5.29624877  23.1371923
 NH  10.5505073  25.5180667
 cg2d: Sum(rhs),rhsMax =   2.92406114546537E-02  1.75033058589315E+01
(PID.TID 0000.0001)                    cg2d_init_res =    7.27340982978434E-01
(PID.TID 0000.0001)                       cg2d_iters =    22
(PID.TID 0000.0001)                         cg2d_res =    3.36429962231348E-14
(PID.TID 0000.0001) // =======================================================
(PID.TID 0000.0001) // Begin MONITOR dynamic field statistics
(PID.TID 0000.0001) // =======================================================
(PID.TID 0000.0001) %MON time_tsnumber                =                    13
(PID.TID 0000.0001) %MON time_secondsf                =   5.6160000000000E+05
(PID.TID 0000.0001) %MON dynstat_eta_max              =   1.2012785641702E+00
(PID.TID 0000.0001) %MON dynstat_eta_min              =  -1.1443233072889E+00
(PID.TID 0000.0001) %MON dynstat_eta_mean             =  -2.4403310136942E-05
(PID.TID 0000.0001) %MON dynstat_eta_sd               =   3.5706379135748E-01
(PID.TID 0000.0001) %MON dynstat_eta_del2             =   1.8543092054966E-02
(PID.TID 0000.0001) %MON dynstat_uvel_max             =   3.0519899529281E-01
(PID.TID 0000.0001) %MON dynstat_uvel_min             =  -5.1644445118623E-01
(PID.TID 0000.0001) %MON dynstat_uvel_mean            =  -9.4742496798106E-03
(PID.TID 0000.0001) %MON dynstat_uvel_sd              =   1.6722213375297E-02
(PID.TID 0000.0001) %MON dynstat_uvel_del2            =   2.7868734733531E-03
(PID.TID 0000.0001) %MON dynstat_vvel_max             =   4.8959797168633E-01
(PID.TID 0000.0001) %MON dynstat_vvel_min             =  -6.8963428305330E-01
(PID.TID 0000.0001) %MON dynstat_vvel_mean            =   4.5549268234235E-03
(PID.TID 0000.0001) %MON dynstat_vvel_sd              =   1.8125315548880E-02
(PID.TID 0000.0001) %MON dynstat_vvel_del2            =   3.2345743854223E-03
(PID.TID 0000.0001) %MON dynstat_wvel_max             =   2.2866362318860E-03
(PID.TID 0000.0001) %MON dynstat_wvel_min             =  -1.3765400355199E-03
(PID.TID 0000.0001) %MON dynstat_wvel_mean            =   1.9092127727009E-21
(PID.TID 0000.0001) %MON dynstat_wvel_sd              =   6.7861265767722E-05
(PID.TID 0000.0001) %MON dynstat_wvel_del2            =   1.3981016130105E-05
(PID.TID 0000.0001) %MON dynstat_theta_max            =   2.9088296489708E+01
(PID.TID 0000.0001) %MON dynstat_theta_min            =  -1.8975448119219E+00
(PID.TID 0000.0001) %MON dynstat_theta_mean           =   3.4199717956430E+00
(PID.TID 0000.0001) %MON dynstat_theta_sd             =   4.0701499643356E+00
(PID.TID 0000.0001) %MON dynstat_theta_del2           =   1.2806769793688E-01
(PID.TID 0000.0001) %MON dynstat_salt_max             =   3.7431247239444E+01
(PID.TID 0000.0001) %MON dynstat_salt_min             =   3.0994990916406E+01
(PID.TID 0000.0001) %MON dynstat_salt_mean            =   3.4713586847980E+01
(PID.TID 0000.0001) %MON dynstat_salt_sd              =   2.7650389577555E-01
(PID.TID 0000.0001) %MON dynstat_salt_del2            =   2.1486289566895E-02
(PID.TID 0000.0001) %MON extforcing_qnet_max          =   1.4347701884849E+02
(PID.TID 0000.0001) %MON extforcing_qnet_min          =  -3.7662424698732E+01
(PID.TID 0000.0001) %MON extforcing_qnet_mean         =  -1.0182308681635E+00
(PID.TID 0000.0001) %MON extforcing_qnet_sd           =   2.4605581582064E+01
(PID.TID 0000.0001) %MON extforcing_qnet_del2         =   7.7061285503693E-01
(PID.TID 0000.0001) %MON extforcing_qsw_max           =   0.0000000000000E+00
(PID.TID 0000.0001) %MON extforcing_qsw_min           =   0.0000000000000E+00
(PID.TID 0000.0001) %MON extforcing_qsw_mean          =   0.0000000000000E+00
(PID.TID 0000.0001) %MON extforcing_qsw_sd            =   0.0000000000000E+00
(PID.TID 0000.0001) %MON extforcing_qsw_del2          =   0.0000000000000E+00
(PID.TID 0000.0001) %MON extforcing_empmr_max         =   3.8916387204582E-05
(PID.TID 0000.0001) %MON extforcing_empmr_min         =  -1.8174137994730E-05
(PID.TID 0000.0001) %MON extforcing_empmr_mean        =   1.6190657687033E-06
(PID.TID 0000.0001) %MON extforcing_empmr_sd          =   1.2325823495205E-05
(PID.TID 0000.0001) %MON extforcing_empmr_del2        =   7.7932218222740E-07
(PID.TID 0000.0001) %MON advcfl_uvel_max              =   5.0942366053371E-02
(PID.TID 0000.0001) %MON advcfl_vvel_max              =   6.6992440396551E-02
(PID.TID 0000.0001) %MON advcfl_wvel_max              =   2.5621198024729E-01
(PID.TID 0000.0001) %MON advcfl_W_hf_max              =   2.7505109644195E-01
(PID.TID 0000.0001) %MON pe_b_mean                    =   1.4791724624624E-04
(PID.TID 0000.0001) %MON ke_max                       =   1.4196109083919E-01
(PID.TID 0000.0001) %MON ke_mean                      =   3.2943746922728E-04
(PID.TID 0000.0001) %MON ke_vol                       =   1.4101703507225E+18
(PID.TID 0000.0001) %MON vort_r_min                   =  -1.5099778074838E-06
(PID.TID 0000.0001) %MON vort_r_max                   =   1.6597674474188E-06
(PID.TID 0000.0001) %MON vort_a_mean                  =  -1.9922043059714E-05
(PID.TID 0000.0001) %MON vort_a_sd                    =   7.3515430674349E-05
(PID.TID 0000.0001) %MON vort_p_mean                  =  -2.3665444248068E-05
(PID.TID 0000.0001) %MON vort_p_sd                    =   1.0341057130109E-04
(PID.TID 0000.0001) %MON surfExpan_theta_mean         =   1.3444803888237E-04
(PID.TID 0000.0001) %MON surfExpan_salt_mean          =   8.1497128171915E-06
(PID.TID 0000.0001) // =======================================================
(PID.TID 0000.0001) // End MONITOR dynamic field statistics
(PID.TID 0000.0001) // =======================================================
 SH  5.30641127  23.1179718
 NH  10.5503354  25.5130574
 SH  5.30641127  23.1179718
 NH  10.5503354  25.5130574
 cg2d: Sum(rhs),rhsMax =   3.17074269609581E-02  1.73832195164324E+01
(PID.TID 0000.0001)                    cg2d_init_res =    7.07719667374614E-01
(PID.TID 0000.0001)                       cg2d_iters =    22
(PID.TID 0000.0001)                         cg2d_res =    2.51767448182788E-14
(PID.TID 0000.0001) // =======================================================
(PID.TID 0000.0001) // Begin MONITOR dynamic field statistics
(PID.TID 0000.0001) // =======================================================
(PID.TID 0000.0001) %MON time_tsnumber                =                    14
(PID.TID 0000.0001) %MON time_secondsf                =   6.0480000000000E+05
(PID.TID 0000.0001) %MON dynstat_eta_max              =   1.2227175355690E+00
(PID.TID 0000.0001) %MON dynstat_eta_min              =  -1.1498623164512E+00
(PID.TID 0000.0001) %MON dynstat_eta_mean             =  -2.6280487839725E-05
(PID.TID 0000.0001) %MON dynstat_eta_sd               =   3.6857570442622E-01
(PID.TID 0000.0001) %MON dynstat_eta_del2             =   1.8071016567359E-02
(PID.TID 0000.0001) %MON dynstat_uvel_max             =   3.1837915606115E-01
(PID.TID 0000.0001) %MON dynstat_uvel_min             =  -5.4168735877182E-01
(PID.TID 0000.0001) %MON dynstat_uvel_mean            =  -9.7533464720971E-03
(PID.TID 0000.0001) %MON dynstat_uvel_sd              =   1.7714580435168E-02
(PID.TID 0000.0001) %MON dynstat_uvel_del2            =   2.8888396578418E-03
(PID.TID 0000.0001) %MON dynstat_vvel_max             =   5.1680021811416E-01
(PID.TID 0000.0001) %MON dynstat_vvel_min             =  -7.2513845150199E-01
(PID.TID 0000.0001) %MON dynstat_vvel_mean            =   4.2467940067498E-03
(PID.TID 0000.0001) %MON dynstat_vvel_sd              =   1.8314060911915E-02
(PID.TID 0000.0001) %MON dynstat_vvel_del2            =   3.2573812046157E-03
(PID.TID 0000.0001) %MON dynstat_wvel_max             =   2.4125691254265E-03
(PID.TID 0000.0001) %MON dynstat_wvel_min             =  -1.4403232159465E-03
(PID.TID 0000.0001) %MON dynstat_wvel_mean            =   1.2728085151339E-21
(PID.TID 0000.0001) %MON dynstat_wvel_sd              =   6.9859347190698E-05
(PID.TID 0000.0001) %MON dynstat_wvel_del2            =   1.3773785893135E-05
(PID.TID 0000.0001) %MON dynstat_theta_max            =   2.9047334511056E+01
(PID.TID 0000.0001) %MON dynstat_theta_min            =  -1.8977903143089E+00
(PID.TID 0000.0001) %MON dynstat_theta_mean           =   3.4186848200600E+00
(PID.TID 0000.0001) %MON dynstat_theta_sd             =   4.0661556193843E+00
(PID.TID 0000.0001) %MON dynstat_theta_del2           =   1.2772295545523E-01
(PID.TID 0000.0001) %MON dynstat_salt_max             =   3.7431613954631E+01
(PID.TID 0000.0001) %MON dynstat_salt_min             =   3.0996467913786E+01
(PID.TID 0000.0001) %MON dynstat_salt_mean            =   3.4713513116363E+01
(PID.TID 0000.0001) %MON dynstat_salt_sd              =   2.7645731943844E-01
(PID.TID 0000.0001) %MON dynstat_salt_del2            =   2.1459836982186E-02
(PID.TID 0000.0001) %MON extforcing_qnet_max          =   1.4392583347971E+02
(PID.TID 0000.0001) %MON extforcing_qnet_min          =  -3.7983038929272E+01
(PID.TID 0000.0001) %MON extforcing_qnet_mean         =  -1.0659406550367E+00
(PID.TID 0000.0001) %MON extforcing_qnet_sd           =   2.4739995635476E+01
(PID.TID 0000.0001) %MON extforcing_qnet_del2         =   7.7494735817139E-01
(PID.TID 0000.0001) %MON extforcing_qsw_max           =   0.0000000000000E+00
(PID.TID 0000.0001) %MON extforcing_qsw_min           =   0.0000000000000E+00
(PID.TID 0000.0001) %MON extforcing_qsw_mean          =   0.0000000000000E+00
(PID.TID 0000.0001) %MON extforcing_qsw_sd            =   0.0000000000000E+00
(PID.TID 0000.0001) %MON extforcing_qsw_del2          =   0.0000000000000E+00
(PID.TID 0000.0001) %MON extforcing_empmr_max         =   3.8916387204582E-05
(PID.TID 0000.0001) %MON extforcing_empmr_min         =  -1.8174137994730E-05
(PID.TID 0000.0001) %MON extforcing_empmr_mean        =   1.6190657687033E-06
(PID.TID 0000.0001) %MON extforcing_empmr_sd          =   1.2325823495205E-05
(PID.TID 0000.0001) %MON extforcing_empmr_del2        =   7.7932218222740E-07
(PID.TID 0000.0001) %MON advcfl_uvel_max              =   5.3432340406901E-02
(PID.TID 0000.0001) %MON advcfl_vvel_max              =   7.0441385652140E-02
(PID.TID 0000.0001) %MON advcfl_wvel_max              =   2.7062331285955E-01
(PID.TID 0000.0001) %MON advcfl_W_hf_max              =   2.9052208586393E-01
(PID.TID 0000.0001) %MON pe_b_mean                    =   1.5760884903153E-04
(PID.TID 0000.0001) %MON ke_max                       =   1.5734020652128E-01
(PID.TID 0000.0001) %MON ke_mean                      =   3.4958559168009E-04
(PID.TID 0000.0001) %MON ke_vol                       =   1.4101703507225E+18
(PID.TID 0000.0001) %MON vort_r_min                   =  -1.5775776316384E-06
(PID.TID 0000.0001) %MON vort_r_max                   =   1.7537794997632E-06
(PID.TID 0000.0001) %MON vort_a_mean                  =  -1.9922043059714E-05
(PID.TID 0000.0001) %MON vort_a_sd                    =   7.3515365404200E-05
(PID.TID 0000.0001) %MON vort_p_mean                  =  -2.3665444248068E-05
(PID.TID 0000.0001) %MON vort_p_sd                    =   1.0341053249463E-04
(PID.TID 0000.0001) %MON surfExpan_theta_mean         =   1.1957458209040E-04
(PID.TID 0000.0001) %MON surfExpan_salt_mean          =   6.5366470257928E-06
(PID.TID 0000.0001) // =======================================================
(PID.TID 0000.0001) // End MONITOR dynamic field statistics
(PID.TID 0000.0001) // =======================================================
 SH  5.31589182  23.1004926
 NH  10.5488025  25.5066929
 SH  5.31589182  23.1004926
 NH  10.5488025  25.5066929
 cg2d: Sum(rhs),rhsMax =   3.41492532108507E-02  1.72931149295085E+01
(PID.TID 0000.0001)                    cg2d_init_res =    7.02843491027812E-01
(PID.TID 0000.0001)                       cg2d_iters =    21
(PID.TID 0000.0001)                         cg2d_res =    9.37177966358318E-14
(PID.TID 0000.0001) // =======================================================
(PID.TID 0000.0001) // Begin MONITOR dynamic field statistics
(PID.TID 0000.0001) // =======================================================
(PID.TID 0000.0001) %MON time_tsnumber                =                    15
(PID.TID 0000.0001) %MON time_secondsf                =   6.4800000000000E+05
(PID.TID 0000.0001) %MON dynstat_eta_max              =   1.2168475190979E+00
(PID.TID 0000.0001) %MON dynstat_eta_min              =  -1.1340657611678E+00
(PID.TID 0000.0001) %MON dynstat_eta_mean             =  -2.8157665542778E-05
(PID.TID 0000.0001) %MON dynstat_eta_sd               =   3.7685256947226E-01
(PID.TID 0000.0001) %MON dynstat_eta_del2             =   1.7632339772782E-02
(PID.TID 0000.0001) %MON dynstat_uvel_max             =   3.3087029390692E-01
(PID.TID 0000.0001) %MON dynstat_uvel_min             =  -5.6415261523627E-01
(PID.TID 0000.0001) %MON dynstat_uvel_mean            =  -9.8917024846626E-03
(PID.TID 0000.0001) %MON dynstat_uvel_sd              =   1.8597689070577E-02
(PID.TID 0000.0001) %MON dynstat_uvel_del2            =   2.9743973169077E-03
(PID.TID 0000.0001) %MON dynstat_vvel_max             =   5.4174632513421E-01
(PID.TID 0000.0001) %MON dynstat_vvel_min             =  -7.5693004164277E-01
(PID.TID 0000.0001) %MON dynstat_vvel_mean            =   3.9330966002058E-03
(PID.TID 0000.0001) %MON dynstat_vvel_sd              =   1.8509840927154E-02
(PID.TID 0000.0001) %MON dynstat_vvel_del2            =   3.2548163724580E-03
(PID.TID 0000.0001) %MON dynstat_wvel_max             =   2.5256575662473E-03
(PID.TID 0000.0001) %MON dynstat_wvel_min             =  -1.4968216721618E-03
(PID.TID 0000.0001) %MON dynstat_wvel_mean            =  -9.0914893938137E-22
(PID.TID 0000.0001) %MON dynstat_wvel_sd              =   7.1603973284722E-05
(PID.TID 0000.0001) %MON dynstat_wvel_del2            =   1.3457942628852E-05
(PID.TID 0000.0001) %MON dynstat_theta_max            =   2.9012519290630E+01
(PID.TID 0000.0001) %MON dynstat_theta_min            =  -1.8979935039291E+00
(PID.TID 0000.0001) %MON dynstat_theta_mean           =   3.4175579718575E+00
(PID.TID 0000.0001) %MON dynstat_theta_sd             =   4.0623468619155E+00
(PID.TID 0000.0001) %MON dynstat_theta_del2           =   1.2739931978961E-01
(PID.TID 0000.0001) %MON dynstat_salt_max             =   3.7431805281047E+01
(PID.TID 0000.0001) %MON dynstat_salt_min             =   3.0999895594425E+01
(PID.TID 0000.0001) %MON dynstat_salt_mean            =   3.4713456215058E+01
(PID.TID 0000.0001) %MON dynstat_salt_sd              =   2.7640083309965E-01
(PID.TID 0000.0001) %MON dynstat_salt_del2            =   2.1437096331718E-02
(PID.TID 0000.0001) %MON extforcing_qnet_max          =   1.4436717415178E+02
(PID.TID 0000.0001) %MON extforcing_qnet_min          =  -3.8275786850520E+01
(PID.TID 0000.0001) %MON extforcing_qnet_mean         =  -1.1124203212347E+00
(PID.TID 0000.0001) %MON extforcing_qnet_sd           =   2.4867716142091E+01
(PID.TID 0000.0001) %MON extforcing_qnet_del2         =   7.7882212917482E-01
(PID.TID 0000.0001) %MON extforcing_qsw_max           =   0.0000000000000E+00
(PID.TID 0000.0001) %MON extforcing_qsw_min           =   0.0000000000000E+00
(PID.TID 0000.0001) %MON extforcing_qsw_mean          =   0.0000000000000E+00
(PID.TID 0000.0001) %MON extforcing_qsw_sd            =   0.0000000000000E+00
(PID.TID 0000.0001) %MON extforcing_qsw_del2          =   0.0000000000000E+00
(PID.TID 0000.0001) %MON extforcing_empmr_max         =   3.8916387204582E-05
(PID.TID 0000.0001) %MON extforcing_empmr_min         =  -1.8174137994730E-05
(PID.TID 0000.0001) %MON extforcing_empmr_mean        =   1.6190657687033E-06
(PID.TID 0000.0001) %MON extforcing_empmr_sd          =   1.2325823495205E-05
(PID.TID 0000.0001) %MON extforcing_empmr_del2        =   7.7932218222740E-07
(PID.TID 0000.0001) %MON advcfl_uvel_max              =   5.5648325718905E-02
(PID.TID 0000.0001) %MON advcfl_vvel_max              =   7.3529683696414E-02
(PID.TID 0000.0001) %MON advcfl_wvel_max              =   2.8352671667534E-01
(PID.TID 0000.0001) %MON advcfl_W_hf_max              =   3.0437426937205E-01
(PID.TID 0000.0001) %MON pe_b_mean                    =   1.6476696828722E-04
(PID.TID 0000.0001) %MON ke_max                       =   1.7198179839615E-01
(PID.TID 0000.0001) %MON ke_mean                      =   3.6775621946931E-04
(PID.TID 0000.0001) %MON ke_vol                       =   1.4101703507225E+18
(PID.TID 0000.0001) %MON vort_r_min                   =  -1.6351550362367E-06
(PID.TID 0000.0001) %MON vort_r_max                   =   1.8405294156492E-06
(PID.TID 0000.0001) %MON vort_a_mean                  =  -1.9922043059714E-05
(PID.TID 0000.0001) %MON vort_a_sd                    =   7.3515326868670E-05
(PID.TID 0000.0001) %MON vort_p_mean                  =  -2.3665444248068E-05
(PID.TID 0000.0001) %MON vort_p_sd                    =   1.0341056044085E-04
(PID.TID 0000.0001) %MON surfExpan_theta_mean         =   1.0394140210938E-04
(PID.TID 0000.0001) %MON surfExpan_salt_mean          =   4.9162599757066E-06
(PID.TID 0000.0001) // =======================================================
(PID.TID 0000.0001) // End MONITOR dynamic field statistics
(PID.TID 0000.0001) // =======================================================
 SH  5.32446384  23.0851821
 NH  10.5460213  25.4987333
 SH  5.32446384  23.0851821
 NH  10.5460213  25.4987333
 cg2d: Sum(rhs),rhsMax =   3.66790620971251E-02  1.71737422357070E+01
(PID.TID 0000.0001)                    cg2d_init_res =    7.11776343115603E-01
(PID.TID 0000.0001)                       cg2d_iters =    22
(PID.TID 0000.0001)                         cg2d_res =    2.50812944894721E-14
(PID.TID 0000.0001) // =======================================================
(PID.TID 0000.0001) // Begin MONITOR dynamic field statistics
(PID.TID 0000.0001) // =======================================================
(PID.TID 0000.0001) %MON time_tsnumber                =                    16
(PID.TID 0000.0001) %MON time_secondsf                =   6.9120000000000E+05
(PID.TID 0000.0001) %MON dynstat_eta_max              =   1.1878146088283E+00
(PID.TID 0000.0001) %MON dynstat_eta_min              =  -1.1335600377809E+00
(PID.TID 0000.0001) %MON dynstat_eta_mean             =  -3.0034843245609E-05
(PID.TID 0000.0001) %MON dynstat_eta_sd               =   3.8223618882877E-01
(PID.TID 0000.0001) %MON dynstat_eta_del2             =   1.7270782792235E-02
(PID.TID 0000.0001) %MON dynstat_uvel_max             =   3.4243934291958E-01
(PID.TID 0000.0001) %MON dynstat_uvel_min             =  -5.8381577047284E-01
(PID.TID 0000.0001) %MON dynstat_uvel_mean            =  -9.8937889499065E-03
(PID.TID 0000.0001) %MON dynstat_uvel_sd              =   1.9372074383073E-02
(PID.TID 0000.0001) %MON dynstat_uvel_del2            =   3.0449539038065E-03
(PID.TID 0000.0001) %MON dynstat_vvel_max             =   5.6445741048533E-01
(PID.TID 0000.0001) %MON dynstat_vvel_min             =  -7.8465618451203E-01
(PID.TID 0000.0001) %MON dynstat_vvel_mean            =   3.6330997428266E-03
(PID.TID 0000.0001) %MON dynstat_vvel_sd              =   1.8713215648791E-02
(PID.TID 0000.0001) %MON dynstat_vvel_del2            =   3.2294759903929E-03
(PID.TID 0000.0001) %MON dynstat_wvel_max             =   2.6248387347719E-03
(PID.TID 0000.0001) %MON dynstat_wvel_min             =  -1.5448159170307E-03
(PID.TID 0000.0001) %MON dynstat_wvel_mean            =   1.0000638333195E-21
(PID.TID 0000.0001) %MON dynstat_wvel_sd              =   7.3084007949576E-05
(PID.TID 0000.0001) %MON dynstat_wvel_del2            =   1.3058513425234E-05
(PID.TID 0000.0001) %MON dynstat_theta_max            =   2.8976330791108E+01
(PID.TID 0000.0001) %MON dynstat_theta_min            =  -1.8981567533121E+00
(PID.TID 0000.0001) %MON dynstat_theta_mean           =   3.4165956336156E+00
(PID.TID 0000.0001) %MON dynstat_theta_sd             =   4.0587708888724E+00
(PID.TID 0000.0001) %MON dynstat_theta_del2           =   1.2708788034335E-01
(PID.TID 0000.0001) %MON dynstat_salt_max             =   3.7431737927544E+01
(PID.TID 0000.0001) %MON dynstat_salt_min             =   3.1005073659862E+01
(PID.TID 0000.0001) %MON dynstat_salt_mean            =   3.4713415887541E+01
(PID.TID 0000.0001) %MON dynstat_salt_sd              =   2.7633752114729E-01
(PID.TID 0000.0001) %MON dynstat_salt_del2            =   2.1417852885489E-02
(PID.TID 0000.0001) %MON extforcing_qnet_max          =   1.4483428581240E+02
(PID.TID 0000.0001) %MON extforcing_qnet_min          =  -3.8533742412534E+01
(PID.TID 0000.0001) %MON extforcing_qnet_mean         =  -1.1568678743458E+00
(PID.TID 0000.0001) %MON extforcing_qnet_sd           =   2.4990285753071E+01
(PID.TID 0000.0001) %MON extforcing_qnet_del2         =   7.8268220484852E-01
(PID.TID 0000.0001) %MON extforcing_qsw_max           =   0.0000000000000E+00
(PID.TID 0000.0001) %MON extforcing_qsw_min           =   0.0000000000000E+00
(PID.TID 0000.0001) %MON extforcing_qsw_mean          =   0.0000000000000E+00
(PID.TID 0000.0001) %MON extforcing_qsw_sd            =   0.0000000000000E+00
(PID.TID 0000.0001) %MON extforcing_qsw_del2          =   0.0000000000000E+00
(PID.TID 0000.0001) %MON extforcing_empmr_max         =   3.8916387204582E-05
(PID.TID 0000.0001) %MON extforcing_empmr_min         =  -1.8174137994730E-05
(PID.TID 0000.0001) %MON extforcing_empmr_mean        =   1.6190657687033E-06
(PID.TID 0000.0001) %MON extforcing_empmr_sd          =   1.2325823495205E-05
(PID.TID 0000.0001) %MON extforcing_empmr_del2        =   7.7932218222740E-07
(PID.TID 0000.0001) %MON advcfl_uvel_max              =   5.7587910217344E-02
(PID.TID 0000.0001) %MON advcfl_vvel_max              =   7.6223056139228E-02
(PID.TID 0000.0001) %MON advcfl_wvel_max              =   2.9479140911350E-01
(PID.TID 0000.0001) %MON advcfl_W_hf_max              =   3.1646724801890E-01
(PID.TID 0000.0001) %MON pe_b_mean                    =   1.6950823191714E-04
(PID.TID 0000.0001) %MON ke_max                       =   1.8568361166855E-01
(PID.TID 0000.0001) %MON ke_mean                      =   3.8376016179709E-04
(PID.TID 0000.0001) %MON ke_vol                       =   1.4101703507225E+18
(PID.TID 0000.0001) %MON vort_r_min                   =  -1.6824806575621E-06
(PID.TID 0000.0001) %MON vort_r_max                   =   1.9200135942286E-06
(PID.TID 0000.0001) %MON vort_a_mean                  =  -1.9922043059714E-05
(PID.TID 0000.0001) %MON vort_a_sd                    =   7.3515314860508E-05
(PID.TID 0000.0001) %MON vort_p_mean                  =  -2.3665444248068E-05
(PID.TID 0000.0001) %MON vort_p_sd                    =   1.0341064641897E-04
(PID.TID 0000.0001) %MON surfExpan_theta_mean         =   8.8013542475623E-05
(PID.TID 0000.0001) %MON surfExpan_salt_mean          =   3.3345833698888E-06
(PID.TID 0000.0001) // =======================================================
(PID.TID 0000.0001) // End MONITOR dynamic field statistics
(PID.TID 0000.0001) // =======================================================
 SH  5.33195233  23.0724398
 NH  10.5420185  25.4889894
 SH  5.33195233  23.0724398
 NH  10.5420185  25.4889894
 cg2d: Sum(rhs),rhsMax =   3.94330605147122E-02  1.69727266038726E+01
(PID.TID 0000.0001)                    cg2d_init_res =    7.30435952241992E-01
(PID.TID 0000.0001)                       cg2d_iters =    22
(PID.TID 0000.0001)                         cg2d_res =    2.53787581406281E-14
(PID.TID 0000.0001) // =======================================================
(PID.TID 0000.0001) // Begin MONITOR dynamic field statistics
(PID.TID 0000.0001) // =======================================================
(PID.TID 0000.0001) %MON time_tsnumber                =                    17
(PID.TID 0000.0001) %MON time_secondsf                =   7.3440000000000E+05
(PID.TID 0000.0001) %MON dynstat_eta_max              =   1.1402378280745E+00
(PID.TID 0000.0001) %MON dynstat_eta_min              =  -1.1406095192862E+00
(PID.TID 0000.0001) %MON dynstat_eta_mean             =  -3.1912020948308E-05
(PID.TID 0000.0001) %MON dynstat_eta_sd               =   3.8516951927000E-01
(PID.TID 0000.0001) %MON dynstat_eta_del2             =   1.6995199294617E-02
(PID.TID 0000.0001) %MON dynstat_uvel_max             =   3.5231595931453E-01
(PID.TID 0000.0001) %MON dynstat_uvel_min             =  -6.0067569989458E-01
(PID.TID 0000.0001) %MON dynstat_uvel_mean            =  -9.7679131465609E-03
(PID.TID 0000.0001) %MON dynstat_uvel_sd              =   2.0041149506815E-02
(PID.TID 0000.0001) %MON dynstat_uvel_del2            =   3.1045244835313E-03
(PID.TID 0000.0001) %MON dynstat_vvel_max             =   5.8506126619290E-01
(PID.TID 0000.0001) %MON dynstat_vvel_min             =  -8.0800441735298E-01
(PID.TID 0000.0001) %MON dynstat_vvel_mean            =   3.3625670161839E-03
(PID.TID 0000.0001) %MON dynstat_vvel_sd              =   1.8915522249941E-02
(PID.TID 0000.0001) %MON dynstat_vvel_del2            =   3.1859063046249E-03
(PID.TID 0000.0001) %MON dynstat_wvel_max             =   2.7094736122356E-03
(PID.TID 0000.0001) %MON dynstat_wvel_min             =  -1.5827689027964E-03
(PID.TID 0000.0001) %MON dynstat_wvel_mean            =  -2.1819574545153E-21
(PID.TID 0000.0001) %MON dynstat_wvel_sd              =   7.4285307599618E-05
(PID.TID 0000.0001) %MON dynstat_wvel_del2            =   1.2598546957209E-05
(PID.TID 0000.0001) %MON dynstat_theta_max            =   2.8939579845236E+01
(PID.TID 0000.0001) %MON dynstat_theta_min            =  -1.8982846033086E+00
(PID.TID 0000.0001) %MON dynstat_theta_mean           =   3.4157978867713E+00
(PID.TID 0000.0001) %MON dynstat_theta_sd             =   4.0554723416642E+00
(PID.TID 0000.0001) %MON dynstat_theta_del2           =   1.2680527846828E-01
(PID.TID 0000.0001) %MON dynstat_salt_max             =   3.7431395499076E+01
(PID.TID 0000.0001) %MON dynstat_salt_min             =   3.1011740674380E+01
(PID.TID 0000.0001) %MON dynstat_salt_mean            =   3.4713391452325E+01
(PID.TID 0000.0001) %MON dynstat_salt_sd              =   2.7627094418359E-01
(PID.TID 0000.0001) %MON dynstat_salt_del2            =   2.1401483733961E-02
(PID.TID 0000.0001) %MON extforcing_qnet_max          =   1.4534717182983E+02
(PID.TID 0000.0001) %MON extforcing_qnet_min          =  -3.8750747336526E+01
(PID.TID 0000.0001) %MON extforcing_qnet_mean         =  -1.1985855400561E+00
(PID.TID 0000.0001) %MON extforcing_qnet_sd           =   2.5107988069400E+01
(PID.TID 0000.0001) %MON extforcing_qnet_del2         =   7.8591442448979E-01
(PID.TID 0000.0001) %MON extforcing_qsw_max           =   0.0000000000000E+00
(PID.TID 0000.0001) %MON extforcing_qsw_min           =   0.0000000000000E+00
(PID.TID 0000.0001) %MON extforcing_qsw_mean          =   0.0000000000000E+00
(PID.TID 0000.0001) %MON extforcing_qsw_sd            =   0.0000000000000E+00
(PID.TID 0000.0001) %MON extforcing_qsw_del2          =   0.0000000000000E+00
(PID.TID 0000.0001) %MON extforcing_empmr_max         =   3.8916387204582E-05
(PID.TID 0000.0001) %MON extforcing_empmr_min         =  -1.8174137994730E-05
(PID.TID 0000.0001) %MON extforcing_empmr_mean        =   1.6190657687033E-06
(PID.TID 0000.0001) %MON extforcing_empmr_sd          =   1.2325823495205E-05
(PID.TID 0000.0001) %MON extforcing_empmr_del2        =   7.7932218222740E-07
(PID.TID 0000.0001) %MON advcfl_uvel_max              =   5.9250982972339E-02
(PID.TID 0000.0001) %MON advcfl_vvel_max              =   7.8491149729409E-02
(PID.TID 0000.0001) %MON advcfl_wvel_max              =   3.0434681818664E-01
(PID.TID 0000.0001) %MON advcfl_W_hf_max              =   3.2672526070036E-01
(PID.TID 0000.0001) %MON pe_b_mean                    =   1.7211987138852E-04
(PID.TID 0000.0001) %MON ke_max                       =   1.9830731119331E-01
(PID.TID 0000.0001) %MON ke_mean                      =   3.9739344107263E-04
(PID.TID 0000.0001) %MON ke_vol                       =   1.4101703507225E+18
(PID.TID 0000.0001) %MON vort_r_min                   =  -1.7195267268097E-06
(PID.TID 0000.0001) %MON vort_r_max                   =   1.9925519880142E-06
(PID.TID 0000.0001) %MON vort_a_mean                  =  -1.9922043059714E-05
(PID.TID 0000.0001) %MON vort_a_sd                    =   7.3515328457206E-05
(PID.TID 0000.0001) %MON vort_p_mean                  =  -2.3665444248068E-05
(PID.TID 0000.0001) %MON vort_p_sd                    =   1.0341077971863E-04
(PID.TID 0000.0001) %MON surfExpan_theta_mean         =   7.2244631941739E-05
(PID.TID 0000.0001) %MON surfExpan_salt_mean          =   1.8311687453440E-06
(PID.TID 0000.0001) // =======================================================
(PID.TID 0000.0001) // End MONITOR dynamic field statistics
(PID.TID 0000.0001) // =======================================================
 SH  5.33821687  23.0626189
 NH  10.5367612  25.4772979
 SH  5.33821687  23.0626189
 NH  10.5367612  25.4772979
 cg2d: Sum(rhs),rhsMax =   4.25792819248940E-02  1.66432199088758E+01
(PID.TID 0000.0001)                    cg2d_init_res =    7.54911098656351E-01
(PID.TID 0000.0001)                       cg2d_iters =    22
(PID.TID 0000.0001)                         cg2d_res =    2.47352508205668E-14
(PID.TID 0000.0001) // =======================================================
(PID.TID 0000.0001) // Begin MONITOR dynamic field statistics
(PID.TID 0000.0001) // =======================================================
(PID.TID 0000.0001) %MON time_tsnumber                =                    18
(PID.TID 0000.0001) %MON time_secondsf                =   7.7760000000000E+05
(PID.TID 0000.0001) %MON dynstat_eta_max              =   1.1024370479147E+00
(PID.TID 0000.0001) %MON dynstat_eta_min              =  -1.1399507620744E+00
(PID.TID 0000.0001) %MON dynstat_eta_mean             =  -3.3789198651172E-05
(PID.TID 0000.0001) %MON dynstat_eta_sd               =   3.8613680726480E-01
(PID.TID 0000.0001) %MON dynstat_eta_del2             =   1.6740433846560E-02
(PID.TID 0000.0001) %MON dynstat_uvel_max             =   3.6068872373515E-01
(PID.TID 0000.0001) %MON dynstat_uvel_min             =  -6.1471737405740E-01
(PID.TID 0000.0001) %MON dynstat_uvel_mean            =  -9.5256321195486E-03
(PID.TID 0000.0001) %MON dynstat_uvel_sd              =   2.0610067913540E-02
(PID.TID 0000.0001) %MON dynstat_uvel_del2            =   3.1562750958582E-03
(PID.TID 0000.0001) %MON dynstat_vvel_max             =   6.0370195750021E-01
(PID.TID 0000.0001) %MON dynstat_vvel_min             =  -8.2678051373003E-01
(PID.TID 0000.0001) %MON dynstat_vvel_mean            =   3.1336287471402E-03
(PID.TID 0000.0001) %MON dynstat_vvel_sd              =   1.9104440382050E-02
(PID.TID 0000.0001) %MON dynstat_vvel_del2            =   3.1300667142977E-03
(PID.TID 0000.0001) %MON dynstat_wvel_max             =   2.7796084452763E-03
(PID.TID 0000.0001) %MON dynstat_wvel_min             =  -1.6092538946830E-03
(PID.TID 0000.0001) %MON dynstat_wvel_mean            =  -1.0909787272576E-21
(PID.TID 0000.0001) %MON dynstat_wvel_sd              =   7.5197730022646E-05
(PID.TID 0000.0001) %MON dynstat_wvel_del2            =   1.2104064944959E-05
(PID.TID 0000.0001) %MON dynstat_theta_max            =   2.8902872025347E+01
(PID.TID 0000.0001) %MON dynstat_theta_min            =  -1.8983818685859E+00
(PID.TID 0000.0001) %MON dynstat_theta_mean           =   3.4151602780865E+00
(PID.TID 0000.0001) %MON dynstat_theta_sd             =   4.0524896646942E+00
(PID.TID 0000.0001) %MON dynstat_theta_del2           =   1.2655999381485E-01
(PID.TID 0000.0001) %MON dynstat_salt_max             =   3.7430815849357E+01
(PID.TID 0000.0001) %MON dynstat_salt_min             =   3.1019609978572E+01
(PID.TID 0000.0001) %MON dynstat_salt_mean            =   3.4713381864513E+01
(PID.TID 0000.0001) %MON dynstat_salt_sd              =   2.7620474275288E-01
(PID.TID 0000.0001) %MON dynstat_salt_del2            =   2.1388973798033E-02
(PID.TID 0000.0001) %MON extforcing_qnet_max          =   1.4591750831841E+02
(PID.TID 0000.0001) %MON extforcing_qnet_min          =  -3.8921498254682E+01
(PID.TID 0000.0001) %MON extforcing_qnet_mean         =  -1.2370142056359E+00
(PID.TID 0000.0001) %MON extforcing_qnet_sd           =   2.5220460854672E+01
(PID.TID 0000.0001) %MON extforcing_qnet_del2         =   7.8830380302589E-01
(PID.TID 0000.0001) %MON extforcing_qsw_max           =   0.0000000000000E+00
(PID.TID 0000.0001) %MON extforcing_qsw_min           =   0.0000000000000E+00
(PID.TID 0000.0001) %MON extforcing_qsw_mean          =   0.0000000000000E+00
(PID.TID 0000.0001) %MON extforcing_qsw_sd            =   0.0000000000000E+00
(PID.TID 0000.0001) %MON extforcing_qsw_del2          =   0.0000000000000E+00
(PID.TID 0000.0001) %MON extforcing_empmr_max         =   3.8916387204582E-05
(PID.TID 0000.0001) %MON extforcing_empmr_min         =  -1.8174137994730E-05
(PID.TID 0000.0001) %MON extforcing_empmr_mean        =   1.6190657687033E-06
(PID.TID 0000.0001) %MON extforcing_empmr_sd          =   1.2325823495205E-05
(PID.TID 0000.0001) %MON extforcing_empmr_del2        =   7.7932218222740E-07
(PID.TID 0000.0001) %MON advcfl_uvel_max              =   6.0636061471221E-02
(PID.TID 0000.0001) %MON advcfl_vvel_max              =   8.0315096926248E-02
(PID.TID 0000.0001) %MON advcfl_wvel_max              =   3.1221752512853E-01
(PID.TID 0000.0001) %MON advcfl_W_hf_max              =   3.3517469609386E-01
(PID.TID 0000.0001) %MON pe_b_mean                    =   1.7298545684325E-04
(PID.TID 0000.0001) %MON ke_max                       =   2.0974907062208E-01
(PID.TID 0000.0001) %MON ke_mean                      =   4.0850305852443E-04
(PID.TID 0000.0001) %MON ke_vol                       =   1.4101703507225E+18
(PID.TID 0000.0001) %MON vort_r_min                   =  -1.7465148209464E-06
(PID.TID 0000.0001) %MON vort_r_max                   =   2.0586194275617E-06
(PID.TID 0000.0001) %MON vort_a_mean                  =  -1.9922043059714E-05
(PID.TID 0000.0001) %MON vort_a_sd                    =   7.3515366065313E-05
(PID.TID 0000.0001) %MON vort_p_mean                  =  -2.3665444248068E-05
(PID.TID 0000.0001) %MON vort_p_sd                    =   1.0341094871534E-04
(PID.TID 0000.0001) %MON surfExpan_theta_mean         =   5.7074299014276E-05
(PID.TID 0000.0001) %MON surfExpan_salt_mean          =   4.4080542480315E-07
(PID.TID 0000.0001) // =======================================================
(PID.TID 0000.0001) // End MONITOR dynamic field statistics
(PID.TID 0000.0001) // =======================================================
 SH  5.34314808  23.0560006
 NH  10.5301862  25.4635318
 SH  5.34314808  23.0560006
 NH  10.5301862  25.4635318
 cg2d: Sum(rhs),rhsMax =   4.62308912425193E-02  1.61802234371484E+01
(PID.TID 0000.0001)                    cg2d_init_res =    7.81157877803801E-01
(PID.TID 0000.0001)                       cg2d_iters =    22
(PID.TID 0000.0001)                         cg2d_res =    2.85105426831351E-14
(PID.TID 0000.0001) // =======================================================
(PID.TID 0000.0001) // Begin MONITOR dynamic field statistics
(PID.TID 0000.0001) // =======================================================
(PID.TID 0000.0001) %MON time_tsnumber                =                    19
(PID.TID 0000.0001) %MON time_secondsf                =   8.2080000000000E+05
(PID.TID 0000.0001) %MON dynstat_eta_max              =   1.1009867226382E+00
(PID.TID 0000.0001) %MON dynstat_eta_min              =  -1.1328212609185E+00
(PID.TID 0000.0001) %MON dynstat_eta_mean             =  -3.5666376353828E-05
(PID.TID 0000.0001) %MON dynstat_eta_sd               =   3.8561375897032E-01
(PID.TID 0000.0001) %MON dynstat_eta_del2             =   1.6542393825026E-02
(PID.TID 0000.0001) %MON dynstat_uvel_max             =   3.6766818325694E-01
(PID.TID 0000.0001) %MON dynstat_uvel_min             =  -6.2591695951801E-01
(PID.TID 0000.0001) %MON dynstat_uvel_mean            =  -9.1810863041925E-03
(PID.TID 0000.0001) %MON dynstat_uvel_sd              =   2.1083356321576E-02
(PID.TID 0000.0001) %MON dynstat_uvel_del2            =   3.2034765706031E-03
(PID.TID 0000.0001) %MON dynstat_vvel_max             =   6.2048099369060E-01
(PID.TID 0000.0001) %MON dynstat_vvel_min             =  -8.4090521279400E-01
(PID.TID 0000.0001) %MON dynstat_vvel_mean            =   2.9548384791588E-03
(PID.TID 0000.0001) %MON dynstat_vvel_sd              =   1.9267539475191E-02
(PID.TID 0000.0001) %MON dynstat_vvel_del2            =   3.0686591800916E-03
(PID.TID 0000.0001) %MON dynstat_wvel_max             =   2.8355780055578E-03
(PID.TID 0000.0001) %MON dynstat_wvel_min             =  -1.6231735192063E-03
(PID.TID 0000.0001) %MON dynstat_wvel_mean            =  -3.6365957575255E-22
(PID.TID 0000.0001) %MON dynstat_wvel_sd              =   7.5823121064181E-05
(PID.TID 0000.0001) %MON dynstat_wvel_del2            =   1.1601388891410E-05
(PID.TID 0000.0001) %MON dynstat_theta_max            =   2.8866602319788E+01
(PID.TID 0000.0001) %MON dynstat_theta_min            =  -1.8984530357607E+00
(PID.TID 0000.0001) %MON dynstat_theta_mean           =   3.4146738948971E+00
(PID.TID 0000.0001) %MON dynstat_theta_sd             =   4.0498541539764E+00
(PID.TID 0000.0001) %MON dynstat_theta_del2           =   1.2632787346839E-01
(PID.TID 0000.0001) %MON dynstat_salt_max             =   3.7430071672124E+01
(PID.TID 0000.0001) %MON dynstat_salt_min             =   3.1028393381351E+01
(PID.TID 0000.0001) %MON dynstat_salt_mean            =   3.4713385754060E+01
(PID.TID 0000.0001) %MON dynstat_salt_sd              =   2.7614165894686E-01
(PID.TID 0000.0001) %MON dynstat_salt_del2            =   2.1369320962489E-02
(PID.TID 0000.0001) %MON extforcing_qnet_max          =   1.4655066762817E+02
(PID.TID 0000.0001) %MON extforcing_qnet_min          =  -3.9041813374148E+01
(PID.TID 0000.0001) %MON extforcing_qnet_mean         =  -1.2717457517435E+00
(PID.TID 0000.0001) %MON extforcing_qnet_sd           =   2.5327026682324E+01
(PID.TID 0000.0001) %MON extforcing_qnet_del2         =   7.8977784989104E-01
(PID.TID 0000.0001) %MON extforcing_qsw_max           =   0.0000000000000E+00
(PID.TID 0000.0001) %MON extforcing_qsw_min           =   0.0000000000000E+00
(PID.TID 0000.0001) %MON extforcing_qsw_mean          =   0.0000000000000E+00
(PID.TID 0000.0001) %MON extforcing_qsw_sd            =   0.0000000000000E+00
(PID.TID 0000.0001) %MON extforcing_qsw_del2          =   0.0000000000000E+00
(PID.TID 0000.0001) %MON extforcing_empmr_max         =   3.8916387204582E-05
(PID.TID 0000.0001) %MON extforcing_empmr_min         =  -1.8174137994730E-05
(PID.TID 0000.0001) %MON extforcing_empmr_mean        =   1.6190657687033E-06
(PID.TID 0000.0001) %MON extforcing_empmr_sd          =   1.2325823495205E-05
(PID.TID 0000.0001) %MON extforcing_empmr_del2        =   7.7932218222740E-07
(PID.TID 0000.0001) %MON advcfl_uvel_max              =   6.1740794769971E-02
(PID.TID 0000.0001) %MON advcfl_vvel_max              =   8.1687198173843E-02
(PID.TID 0000.0001) %MON advcfl_wvel_max              =   3.1845984573083E-01
(PID.TID 0000.0001) %MON advcfl_W_hf_max              =   3.4187601085810E-01
(PID.TID 0000.0001) %MON pe_b_mean                    =   1.7251713351266E-04
(PID.TID 0000.0001) %MON ke_max                       =   2.1991439995013E-01
(PID.TID 0000.0001) %MON ke_mean                      =   4.1698922690408E-04
(PID.TID 0000.0001) %MON ke_vol                       =   1.4101703507225E+18
(PID.TID 0000.0001) %MON vort_r_min                   =  -1.7638232502228E-06
(PID.TID 0000.0001) %MON vort_r_max                   =   2.1185903068617E-06
(PID.TID 0000.0001) %MON vort_a_mean                  =  -1.9922043059714E-05
(PID.TID 0000.0001) %MON vort_a_sd                    =   7.3515425495349E-05
(PID.TID 0000.0001) %MON vort_p_mean                  =  -2.3665444248068E-05
(PID.TID 0000.0001) %MON vort_p_sd                    =   1.0341114187404E-04
(PID.TID 0000.0001) %MON surfExpan_theta_mean         =   4.2912407199531E-05
(PID.TID 0000.0001) %MON surfExpan_salt_mean          =  -8.0488752379795E-07
(PID.TID 0000.0001) // =======================================================
(PID.TID 0000.0001) // End MONITOR dynamic field statistics
(PID.TID 0000.0001) // =======================================================
 SH  5.34668068  23.052769
 NH  10.5222253  25.4476127
 SH  5.34668068  23.052769
 NH  10.5222253  25.4476127
 cg2d: Sum(rhs),rhsMax =   5.03817630070316E-02  1.56285905926360E+01
(PID.TID 0000.0001)                    cg2d_init_res =    8.04832527994255E-01
(PID.TID 0000.0001)                       cg2d_iters =    22
(PID.TID 0000.0001)                         cg2d_res =    3.21463467523420E-14
(PID.TID 0000.0001) // =======================================================
(PID.TID 0000.0001) // Begin MONITOR dynamic field statistics
(PID.TID 0000.0001) // =======================================================
(PID.TID 0000.0001) %MON time_tsnumber                =                    20
(PID.TID 0000.0001) %MON time_secondsf                =   8.6400000000000E+05
(PID.TID 0000.0001) %MON dynstat_eta_max              =   1.0941132130056E+00
(PID.TID 0000.0001) %MON dynstat_eta_min              =  -1.1099664176803E+00
(PID.TID 0000.0001) %MON dynstat_eta_mean             =  -3.7543554056550E-05
(PID.TID 0000.0001) %MON dynstat_eta_sd               =   3.8403153156110E-01
(PID.TID 0000.0001) %MON dynstat_eta_del2             =   1.6392194874429E-02
(PID.TID 0000.0001) %MON dynstat_uvel_max             =   3.7324341227131E-01
(PID.TID 0000.0001) %MON dynstat_uvel_min             =  -6.3427503019932E-01
(PID.TID 0000.0001) %MON dynstat_uvel_mean            =  -8.7502719532194E-03
(PID.TID 0000.0001) %MON dynstat_uvel_sd              =   2.1464380964571E-02
(PID.TID 0000.0001) %MON dynstat_uvel_del2            =   3.2510086761241E-03
(PID.TID 0000.0001) %MON dynstat_vvel_max             =   6.3545010885769E-01
(PID.TID 0000.0001) %MON dynstat_vvel_min             =  -8.5039375885153E-01
(PID.TID 0000.0001) %MON dynstat_vvel_mean            =   2.8313835061552E-03
(PID.TID 0000.0001) %MON dynstat_vvel_sd              =   1.9395942318209E-02
(PID.TID 0000.0001) %MON dynstat_vvel_del2            =   3.0098043184002E-03
(PID.TID 0000.0001) %MON dynstat_wvel_max             =   2.8776247909967E-03
(PID.TID 0000.0001) %MON dynstat_wvel_min             =  -1.6238953331807E-03
(PID.TID 0000.0001) %MON dynstat_wvel_mean            =   1.0000638333195E-21
(PID.TID 0000.0001) %MON dynstat_wvel_sd              =   7.6171252489488E-05
(PID.TID 0000.0001) %MON dynstat_wvel_del2            =   1.1127996495366E-05
(PID.TID 0000.0001) %MON dynstat_theta_max            =   2.8830997805495E+01
(PID.TID 0000.0001) %MON dynstat_theta_min            =  -1.8985018623167E+00
(PID.TID 0000.0001) %MON dynstat_theta_mean           =   3.4143260127541E+00
(PID.TID 0000.0001) %MON dynstat_theta_sd             =   4.0475866417341E+00
(PID.TID 0000.0001) %MON dynstat_theta_del2           =   1.2609494335704E-01
(PID.TID 0000.0001) %MON dynstat_salt_max             =   3.7429249413077E+01
(PID.TID 0000.0001) %MON dynstat_salt_min             =   3.1037813850174E+01
(PID.TID 0000.0001) %MON dynstat_salt_mean            =   3.4713401448484E+01
(PID.TID 0000.0001) %MON dynstat_salt_sd              =   2.7608553483121E-01
(PID.TID 0000.0001) %MON dynstat_salt_del2            =   2.1362703855314E-02
(PID.TID 0000.0001) %MON extforcing_qnet_max          =   1.4724687718442E+02
(PID.TID 0000.0001) %MON extforcing_qnet_min          =  -3.9109024331037E+01
(PID.TID 0000.0001) %MON extforcing_qnet_mean         =  -1.3025383174238E+00
(PID.TID 0000.0001) %MON extforcing_qnet_sd           =   2.5426958513817E+01
(PID.TID 0000.0001) %MON extforcing_qnet_del2         =   7.9028787656399E-01
(PID.TID 0000.0001) %MON extforcing_qsw_max           =   0.0000000000000E+00
(PID.TID 0000.0001) %MON extforcing_qsw_min           =   0.0000000000000E+00
(PID.TID 0000.0001) %MON extforcing_qsw_mean          =   0.0000000000000E+00
(PID.TID 0000.0001) %MON extforcing_qsw_sd            =   0.0000000000000E+00
(PID.TID 0000.0001) %MON extforcing_qsw_del2          =   0.0000000000000E+00
(PID.TID 0000.0001) %MON extforcing_empmr_max         =   3.8916387204582E-05
(PID.TID 0000.0001) %MON extforcing_empmr_min         =  -1.8174137994730E-05
(PID.TID 0000.0001) %MON extforcing_empmr_mean        =   1.6190657687033E-06
(PID.TID 0000.0001) %MON extforcing_empmr_sd          =   1.2325823495205E-05
(PID.TID 0000.0001) %MON extforcing_empmr_del2        =   7.7932218222740E-07
(PID.TID 0000.0001) %MON advcfl_uvel_max              =   6.2565239480664E-02
(PID.TID 0000.0001) %MON advcfl_vvel_max              =   8.2608934334341E-02
(PID.TID 0000.0001) %MON advcfl_wvel_max              =   3.2310353263897E-01
(PID.TID 0000.0001) %MON advcfl_W_hf_max              =   3.4686114533301E-01
(PID.TID 0000.0001) %MON pe_b_mean                    =   1.7110431408678E-04
(PID.TID 0000.0001) %MON ke_max                       =   2.2871366035156E-01
(PID.TID 0000.0001) %MON ke_mean                      =   4.2284065439058E-04
(PID.TID 0000.0001) %MON ke_vol                       =   1.4101703507225E+18
(PID.TID 0000.0001) %MON vort_r_min                   =  -1.7718920909459E-06
(PID.TID 0000.0001) %MON vort_r_max                   =   2.1725927795124E-06
(PID.TID 0000.0001) %MON vort_a_mean                  =  -1.9922043059714E-05
(PID.TID 0000.0001) %MON vort_a_sd                    =   7.3515504073339E-05
(PID.TID 0000.0001) %MON vort_p_mean                  =  -2.3665444248068E-05
(PID.TID 0000.0001) %MON vort_p_sd                    =   1.0341134857720E-04
(PID.TID 0000.0001) %MON surfExpan_theta_mean         =   3.0122851473822E-05
(PID.TID 0000.0001) %MON surfExpan_salt_mean          =  -1.8773952192693E-06
(PID.TID 0000.0001) // =======================================================
(PID.TID 0000.0001) // End MONITOR dynamic field statistics
(PID.TID 0000.0001) // =======================================================
(PID.TID 0000.0001) // Time-average data written, t-step        20
(PID.TID 0000.0001) 
(PID.TID 0000.0001) %CHECKPOINT        20 ckptA
(PID.TID 0000.0001)   Seconds in section "ALL                    [THE_MODEL_MAIN]":
(PID.TID 0000.0001)           User time:  29.2215578
(PID.TID 0000.0001)         System time:  0.212967997
(PID.TID 0000.0001)     Wall clock time:  35.1806231
(PID.TID 0000.0001)          No. starts: 1
(PID.TID 0000.0001)           No. stops: 1
(PID.TID 0000.0001)   Seconds in section "INITIALISE_FIXED       [THE_MODEL_MAIN]":
(PID.TID 0000.0001)           User time:  0.222965997
(PID.TID 0000.0001)         System time:  0.0379939992
(PID.TID 0000.0001)     Wall clock time:  0.345783949
(PID.TID 0000.0001)          No. starts: 1
(PID.TID 0000.0001)           No. stops: 1
(PID.TID 0000.0001)   Seconds in section "THE_MAIN_LOOP          [THE_MODEL_MAIN]":
(PID.TID 0000.0001)           User time:  28.9985918
(PID.TID 0000.0001)         System time:  0.174973998
(PID.TID 0000.0001)     Wall clock time:  34.8346851
(PID.TID 0000.0001)          No. starts: 1
(PID.TID 0000.0001)           No. stops: 1
(PID.TID 0000.0001)   Seconds in section "INITIALISE_VARIA    [THE_MAIN_LOOP]":
(PID.TID 0000.0001)           User time:  0.615906
(PID.TID 0000.0001)         System time:  0.0509929992
(PID.TID 0000.0001)     Wall clock time:  0.879520893
(PID.TID 0000.0001)          No. starts: 1
(PID.TID 0000.0001)           No. stops: 1
(PID.TID 0000.0001)   Seconds in section "MAIN LOOP           [THE_MAIN_LOOP]":
(PID.TID 0000.0001)           User time:  28.3826858
(PID.TID 0000.0001)         System time:  0.123980999
(PID.TID 0000.0001)     Wall clock time:  33.955019
(PID.TID 0000.0001)          No. starts: 1
(PID.TID 0000.0001)           No. stops: 1
(PID.TID 0000.0001)   Seconds in section "FORWARD_STEP        [THE_MAIN_LOOP]":
(PID.TID 0000.0001)           User time:  28.3806863
(PID.TID 0000.0001)         System time:  0.123980999
(PID.TID 0000.0001)     Wall clock time:  33.9541128
(PID.TID 0000.0001)          No. starts: 20
(PID.TID 0000.0001)           No. stops: 20
(PID.TID 0000.0001)   Seconds in section "LOAD_FIELDS_DRIVER  [FORWARD_STEP]":
(PID.TID 0000.0001)           User time:  0.
(PID.TID 0000.0001)         System time:  0.
(PID.TID 0000.0001)     Wall clock time:  0.000848054886
(PID.TID 0000.0001)          No. starts: 20
(PID.TID 0000.0001)           No. stops: 20
(PID.TID 0000.0001)   Seconds in section "EBM                [FORWARD_STEP]":
(PID.TID 0000.0001)           User time:  0.0939854383
(PID.TID 0000.0001)         System time:  0.00199899822
(PID.TID 0000.0001)     Wall clock time:  0.102943182
(PID.TID 0000.0001)          No. starts: 20
(PID.TID 0000.0001)           No. stops: 20
(PID.TID 0000.0001)   Seconds in section "DO_ATMOSPHERIC_PHYS [FORWARD_STEP]":
(PID.TID 0000.0001)           User time:  0.000999450684
(PID.TID 0000.0001)         System time:  0.000999987125
(PID.TID 0000.0001)     Wall clock time:  0.000815391541
(PID.TID 0000.0001)          No. starts: 20
(PID.TID 0000.0001)           No. stops: 20
(PID.TID 0000.0001)   Seconds in section "DO_OCEANIC_PHYS     [FORWARD_STEP]":
(PID.TID 0000.0001)           User time:  2.95954853
(PID.TID 0000.0001)         System time:  0.00499899685
(PID.TID 0000.0001)     Wall clock time:  3.55016708
(PID.TID 0000.0001)          No. starts: 20
(PID.TID 0000.0001)           No. stops: 20
(PID.TID 0000.0001)   Seconds in section "THERMODYNAMICS      [FORWARD_STEP]":
(PID.TID 0000.0001)           User time:  7.15991151
(PID.TID 0000.0001)         System time:  0.00600000471
(PID.TID 0000.0001)     Wall clock time:  8.44591403
(PID.TID 0000.0001)          No. starts: 20
(PID.TID 0000.0001)           No. stops: 20
(PID.TID 0000.0001)   Seconds in section "DYNAMICS            [FORWARD_STEP]":
(PID.TID 0000.0001)           User time:  9.8055104
(PID.TID 0000.0001)         System time:  0.0159970075
(PID.TID 0000.0001)     Wall clock time:  11.7639287
(PID.TID 0000.0001)          No. starts: 20
(PID.TID 0000.0001)           No. stops: 20
(PID.TID 0000.0001)   Seconds in section "SOLVE_FOR_PRESSURE  [FORWARD_STEP]":
(PID.TID 0000.0001)           User time:  1.17981851
(PID.TID 0000.0001)         System time:  0.
(PID.TID 0000.0001)     Wall clock time:  1.26609778
(PID.TID 0000.0001)          No. starts: 20
(PID.TID 0000.0001)           No. stops: 20
(PID.TID 0000.0001)   Seconds in section "MOM_CORRECTION_STEP [FORWARD_STEP]":
(PID.TID 0000.0001)           User time:  0.556919098
(PID.TID 0000.0001)         System time:  0.0019999966
(PID.TID 0000.0001)     Wall clock time:  0.707372665
(PID.TID 0000.0001)          No. starts: 20
(PID.TID 0000.0001)           No. stops: 20
(PID.TID 0000.0001)   Seconds in section "TRC_CORRECTION_STEP [FORWARD_STEP]":
(PID.TID 0000.0001)           User time:  0.157970428
(PID.TID 0000.0001)         System time:  0.
(PID.TID 0000.0001)     Wall clock time:  0.260568619
(PID.TID 0000.0001)          No. starts: 20
(PID.TID 0000.0001)           No. stops: 20
(PID.TID 0000.0001)   Seconds in section "BLOCKING_EXCHANGES  [FORWARD_STEP]":
(PID.TID 0000.0001)           User time:  0.134982109
(PID.TID 0000.0001)         System time:  0.00100000203
(PID.TID 0000.0001)     Wall clock time:  0.138429642
(PID.TID 0000.0001)          No. starts: 20
(PID.TID 0000.0001)           No. stops: 20
(PID.TID 0000.0001)   Seconds in section "DO_STATEVARS_TAVE   [FORWARD_STEP]":
(PID.TID 0000.0001)           User time:  2.11867666
(PID.TID 0000.0001)         System time:  0.00100000203
(PID.TID 0000.0001)     Wall clock time:  2.50192857
(PID.TID 0000.0001)          No. starts: 20
(PID.TID 0000.0001)           No. stops: 20
(PID.TID 0000.0001)   Seconds in section "MONITOR             [FORWARD_STEP]":
(PID.TID 0000.0001)           User time:  3.32649565
(PID.TID 0000.0001)         System time:  0.00399900228
(PID.TID 0000.0001)     Wall clock time:  3.962713
(PID.TID 0000.0001)          No. starts: 20
(PID.TID 0000.0001)           No. stops: 20
(PID.TID 0000.0001)   Seconds in section "DO_THE_MODEL_IO     [FORWARD_STEP]":
(PID.TID 0000.0001)           User time:  0.6419034
(PID.TID 0000.0001)         System time:  0.057990998
(PID.TID 0000.0001)     Wall clock time:  0.806852341
(PID.TID 0000.0001)          No. starts: 20
(PID.TID 0000.0001)           No. stops: 20
(PID.TID 0000.0001)   Seconds in section "DO_WRITE_PICKUP     [FORWARD_STEP]":
(PID.TID 0000.0001)           User time:  0.230964661
(PID.TID 0000.0001)         System time:  0.0279960036
(PID.TID 0000.0001)     Wall clock time:  0.432375908
(PID.TID 0000.0001)          No. starts: 20
(PID.TID 0000.0001)           No. stops: 20
(PID.TID 0000.0001) // ======================================================
(PID.TID 0000.0001) // Tile <-> Tile communication statistics
(PID.TID 0000.0001) // ======================================================
(PID.TID 0000.0001) // o Tile number: 000001
(PID.TID 0000.0001) //         No. X exchanges =              0
(PID.TID 0000.0001) //            Max. X spins =              0
(PID.TID 0000.0001) //            Min. X spins =     1000000000
(PID.TID 0000.0001) //          Total. X spins =              0
(PID.TID 0000.0001) //            Avg. X spins =       0.00E+00
(PID.TID 0000.0001) //         No. Y exchanges =              0
(PID.TID 0000.0001) //            Max. Y spins =              0
(PID.TID 0000.0001) //            Min. Y spins =     1000000000
(PID.TID 0000.0001) //          Total. Y spins =              0
(PID.TID 0000.0001) //            Avg. Y spins =       0.00E+00
(PID.TID 0000.0001) // o Tile number: 000002
(PID.TID 0000.0001) //         No. X exchanges =              0
(PID.TID 0000.0001) //            Max. X spins =              0
(PID.TID 0000.0001) //            Min. X spins =     1000000000
(PID.TID 0000.0001) //          Total. X spins =              0
(PID.TID 0000.0001) //            Avg. X spins =       0.00E+00
(PID.TID 0000.0001) //         No. Y exchanges =              0
(PID.TID 0000.0001) //            Max. Y spins =              0
(PID.TID 0000.0001) //            Min. Y spins =     1000000000
(PID.TID 0000.0001) //          Total. Y spins =              0
(PID.TID 0000.0001) //            Avg. Y spins =       0.00E+00
(PID.TID 0000.0001) // o Thread number: 000001
(PID.TID 0000.0001) //            No. barriers =          11462
(PID.TID 0000.0001) //      Max. barrier spins =              1
(PID.TID 0000.0001) //      Min. barrier spins =              1
(PID.TID 0000.0001) //     Total barrier spins =          11462
(PID.TID 0000.0001) //      Avg. barrier spins =       1.00E+00
