(PID.TID 0000.0001) 
(PID.TID 0000.0001) // ======================================================
(PID.TID 0000.0001) //                      MITgcm UV
(PID.TID 0000.0001) //                      =========
(PID.TID 0000.0001) // ======================================================
(PID.TID 0000.0001) // execution environment starting up...
(PID.TID 0000.0001) 
(PID.TID 0000.0001) // MITgcmUV version:  checkpoint58x_post
(PID.TID 0000.0001) // Build user:        jmc
(PID.TID 0000.0001) // Build host:        faulks
(PID.TID 0000.0001) // Build date:        Fri Apr  6 13:44:11 EDT 2007
(PID.TID 0000.0001) 
(PID.TID 0000.0001) // =======================================================
(PID.TID 0000.0001) // Execution Environment parameter file "eedata"
(PID.TID 0000.0001) // =======================================================
(PID.TID 0000.0001) ># Example "eedata" file
(PID.TID 0000.0001) ># Lines beginning "#" are comments
(PID.TID 0000.0001) ># nTx - No. threads per process in X
(PID.TID 0000.0001) ># nTy - No. threads per process in Y
(PID.TID 0000.0001) > &EEPARMS
(PID.TID 0000.0001) > nTx=1,
(PID.TID 0000.0001) > nTy=1,
(PID.TID 0000.0001) > &
(PID.TID 0000.0001) ># Note: Some systems use & as the
(PID.TID 0000.0001) ># namelist terminator. Other systems
(PID.TID 0000.0001) ># use a / character (as shown here).
(PID.TID 0000.0001) 
(PID.TID 0000.0001) // =======================================================
(PID.TID 0000.0001) // Computational Grid Specification ( see files "SIZE.h" )
(PID.TID 0000.0001) //                                  ( and "eedata"       )
(PID.TID 0000.0001) // =======================================================
(PID.TID 0000.0001)      nPx =    1 ; /* No. processes in X */
(PID.TID 0000.0001)      nPy =    1 ; /* No. processes in Y */
(PID.TID 0000.0001)      nSx =    2 ; /* No. tiles in X per process */
(PID.TID 0000.0001)      nSy =    1 ; /* No. tiles in Y per process */
(PID.TID 0000.0001)      sNx =   45 ; /* Tile size in X */
(PID.TID 0000.0001)      sNy =   40 ; /* Tile size in Y */
(PID.TID 0000.0001)      OLx =    2 ; /* Tile overlap distance in X */
(PID.TID 0000.0001)      OLy =    2 ; /* Tile overlap distance in Y */
(PID.TID 0000.0001)      nTx =    1 ; /* No. threads in X per process */
(PID.TID 0000.0001)      nTy =    1 ; /* No. threads in Y per process */
(PID.TID 0000.0001)       Nr =   15 ; /* No. levels in the vertical   */
(PID.TID 0000.0001)       nX =   90 ; /* Total domain size in X ( = nPx*nSx*sNx ) */
(PID.TID 0000.0001)       nY =   40 ; /* Total domain size in Y ( = nPy*nSy*sNy ) */
(PID.TID 0000.0001)   nTiles =    2 ; /* Total no. tiles per process ( = nSx*nSy ) */
(PID.TID 0000.0001)   nProcs =    1 ; /* Total no. processes ( = nPx*nPy ) */
(PID.TID 0000.0001) nThreads =    1 ; /* Total no. threads per process ( = nTx*nTy ) */
(PID.TID 0000.0001) usingMPI =    F ; /* Flag used to control whether MPI is in use */
(PID.TID 0000.0001)                   /*  note: To execute a program with MPI calls */
(PID.TID 0000.0001)                   /*  it must be launched appropriately e.g     */
(PID.TID 0000.0001)                   /*  "mpirun -np 64 ......"                    */
(PID.TID 0000.0001) useCoupler=   F ; /* Flag used to control communications with */
(PID.TID 0000.0001)                   /*  other model components, through a coupler */
(PID.TID 0000.0001) 
(PID.TID 0000.0001) // ======================================================
(PID.TID 0000.0001) // Mapping of tiles to threads
(PID.TID 0000.0001) // ======================================================
(PID.TID 0000.0001) // -o- Thread   1, tiles (   1:   2,   1:   1)
(PID.TID 0000.0001) 
(PID.TID 0000.0001) // ======================================================
(PID.TID 0000.0001) // Tile <-> Tile connectvity table
(PID.TID 0000.0001) // ======================================================
(PID.TID 0000.0001) // Tile number: 000001 (process no. = 000001)
(PID.TID 0000.0001) //        WEST: Tile = 000002, Process = 000001, Comm = put
(PID.TID 0000.0001) //                bi = 000002, bj = 000001
(PID.TID 0000.0001) //        EAST: Tile = 000002, Process = 000001, Comm = put
(PID.TID 0000.0001) //                bi = 000002, bj = 000001
(PID.TID 0000.0001) //       SOUTH: Tile = 000001, Process = 000001, Comm = put
(PID.TID 0000.0001) //                bi = 000001, bj = 000001
(PID.TID 0000.0001) //       NORTH: Tile = 000001, Process = 000001, Comm = put
(PID.TID 0000.0001) //                bi = 000001, bj = 000001
(PID.TID 0000.0001) // Tile number: 000002 (process no. = 000001)
(PID.TID 0000.0001) //        WEST: Tile = 000001, Process = 000001, Comm = put
(PID.TID 0000.0001) //                bi = 000001, bj = 000001
(PID.TID 0000.0001) //        EAST: Tile = 000001, Process = 000001, Comm = put
(PID.TID 0000.0001) //                bi = 000001, bj = 000001
(PID.TID 0000.0001) //       SOUTH: Tile = 000002, Process = 000001, Comm = put
(PID.TID 0000.0001) //                bi = 000002, bj = 000001
(PID.TID 0000.0001) //       NORTH: Tile = 000002, Process = 000001, Comm = put
(PID.TID 0000.0001) //                bi = 000002, bj = 000001
(PID.TID 0000.0001) 
(PID.TID 0000.0001) // =======================================================
(PID.TID 0000.0001) // Model parameter file "data"
(PID.TID 0000.0001) // =======================================================
(PID.TID 0000.0001) ># ====================
(PID.TID 0000.0001) ># | Model parameters |
(PID.TID 0000.0001) ># ====================
(PID.TID 0000.0001) >#
(PID.TID 0000.0001) ># Continuous equation parameters
(PID.TID 0000.0001) > &PARM01
(PID.TID 0000.0001) > tRef = 15*20.,
(PID.TID 0000.0001) > sRef = 15*35.,
(PID.TID 0000.0001) > viscAr=1.E-3,
(PID.TID 0000.0001) > viscAh=5.E5,
(PID.TID 0000.0001) > diffKhT=0.0,
(PID.TID 0000.0001) > diffKrT=3.E-5,
(PID.TID 0000.0001) > diffKhS=0.0,
(PID.TID 0000.0001) > diffKrS=3.E-5,
(PID.TID 0000.0001) > rhonil=1035.,
(PID.TID 0000.0001) > rotationPeriod=86400.,
(PID.TID 0000.0001) > gravity=9.81,
(PID.TID 0000.0001) > eosType = 'POLY3',
(PID.TID 0000.0001) > ivdc_kappa=100.,
(PID.TID 0000.0001) > implicitDiffusion=.TRUE.,
(PID.TID 0000.0001) > useOldFreezing=.TRUE.,
(PID.TID 0000.0001) > useRealFreshWaterFlux=.TRUE.,
(PID.TID 0000.0001) > useCDscheme=.TRUE.,
(PID.TID 0000.0001) > useNHMTerms=.TRUE.,
(PID.TID 0000.0001) ># turn on looped cells
(PID.TID 0000.0001) > hFacMin=.05,
(PID.TID 0000.0001) > hFacMindr=50.,
(PID.TID 0000.0001) ># set precision of data files
(PID.TID 0000.0001) > readBinaryPrec=32,
(PID.TID 0000.0001) > &
(PID.TID 0000.0001) >
(PID.TID 0000.0001) ># Elliptic solver parameters
(PID.TID 0000.0001) > &PARM02
(PID.TID 0000.0001) > cg2dMaxIters=500,
(PID.TID 0000.0001) > cg2dTargetResidual=1.E-13,
(PID.TID 0000.0001) > &
(PID.TID 0000.0001) >
(PID.TID 0000.0001) ># Time stepping parameters
(PID.TID 0000.0001) > &PARM03
(PID.TID 0000.0001) > nIter0 =      0,
(PID.TID 0000.0001) > nTimeSteps = 20,
(PID.TID 0000.0001) ># 100 years of integration will yield a reasonable flow field
(PID.TID 0000.0001) ># startTime  =          0.,
(PID.TID 0000.0001) ># endTime    = 3110400000.,
(PID.TID 0000.0001) > deltaTmom = 1200.0,
(PID.TID 0000.0001) > tauCD =     321428.,
(PID.TID 0000.0001) > deltaTtracer= 43200.0,
(PID.TID 0000.0001) > deltaTClock = 43200.0,
(PID.TID 0000.0001) ># if you are using a version later than checkpoint45d on the main branch
(PID.TID 0000.0001) ># you can uncomment the following line and increase the time step
(PID.TID 0000.0001) ># deltaTtracer and deltaTClock to 172800.0 as well to speed up the
(PID.TID 0000.0001) ># asynchronous time stepping
(PID.TID 0000.0001) ># deltaTfreesurf = 172800.0,
(PID.TID 0000.0001) > abEps = 0.1,
(PID.TID 0000.0001) > pChkptFreq= 311040000.,
(PID.TID 0000.0001) > dumpFreq=   311040000.,
(PID.TID 0000.0001) > dumpFreq=   864000.,
(PID.TID 0000.0001) > taveFreq=   311040000.,
(PID.TID 0000.0001) > taveFreq=   864000.,
(PID.TID 0000.0001) >#monitorFreq=31104000.,
(PID.TID 0000.0001) > monitorFreq=1.,
(PID.TID 0000.0001) ># 2 months restoring timescale for temperature
(PID.TID 0000.0001) > tauThetaClimRelax =  5184000.0,
(PID.TID 0000.0001) ># 6 months restoring timescale for salinity
(PID.TID 0000.0001) > tauSaltClimRelax = 15552000.0,
(PID.TID 0000.0001) > periodicExternalForcing=.TRUE.,
(PID.TID 0000.0001) > externForcingPeriod=2592000.,
(PID.TID 0000.0001) > externForcingCycle=31104000.,
(PID.TID 0000.0001) > &
(PID.TID 0000.0001) >
(PID.TID 0000.0001) ># Gridding parameters
(PID.TID 0000.0001) > &PARM04
(PID.TID 0000.0001) > usingCartesianGrid=.FALSE.,
(PID.TID 0000.0001) > usingSphericalPolarGrid=.TRUE.,
(PID.TID 0000.0001) > delR= 50., 70., 100., 140., 190.,
(PID.TID 0000.0001) >       240., 290., 340., 390., 440.,
(PID.TID 0000.0001) >       490., 540., 590., 640., 690.,
(PID.TID 0000.0001) > phiMin=-80.,
(PID.TID 0000.0001) > dySpacing=4.,
(PID.TID 0000.0001) > dxSpacing=4.,
(PID.TID 0000.0001) > &
(PID.TID 0000.0001) >
(PID.TID 0000.0001) ># Input datasets
(PID.TID 0000.0001) > &PARM05
(PID.TID 0000.0001) > bathyFile=      'Topog.bin',
(PID.TID 0000.0001) > hydrogThetaFile='Lev_clim_theta.bin',
(PID.TID 0000.0001) > hydrogSaltFile= 'Lev_clim_salt.bin',
(PID.TID 0000.0001) > zonalWindFile=  'Taux.bin',
(PID.TID 0000.0001) > meridWindFile=  'Tauy.bin',
(PID.TID 0000.0001) > thetaClimFile=  'SST.bin',
(PID.TID 0000.0001) > saltClimFile=   'SSS.bin',
(PID.TID 0000.0001) > &
(PID.TID 0000.0001) 
(PID.TID 0000.0001) S/R INI_PARMS ; starts to read PARM01
(PID.TID 0000.0001) S/R INI_PARMS ; read PARM01 : OK
(PID.TID 0000.0001) S/R INI_PARMS: No request for barotropic solver
(PID.TID 0000.0001) S/R INI_PARMS: => Use implicitFreeSurface as default
(PID.TID 0000.0001) S/R INI_PARMS ; starts to read PARM02
(PID.TID 0000.0001) S/R INI_PARMS ; read PARM02 : OK
(PID.TID 0000.0001) S/R INI_PARMS ; starts to read PARM03
(PID.TID 0000.0001) S/R INI_PARMS ; read PARM03 : OK
(PID.TID 0000.0001) S/R INI_PARMS ; starts to read PARM04
(PID.TID 0000.0001) S/R INI_PARMS ; read PARM04 : OK
(PID.TID 0000.0001) S/R INI_PARMS ; starts to read PARM05
(PID.TID 0000.0001) S/R INI_PARMS ; read PARM05 : OK
(PID.TID 0000.0001)  PACKAGES_BOOT: opening data.pkg
(PID.TID 0000.0001)  OPEN_COPY_DATA_FILE: opening file data.pkg
(PID.TID 0000.0001) // =======================================================
(PID.TID 0000.0001) // Parameter file "data.pkg"
(PID.TID 0000.0001) // =======================================================
(PID.TID 0000.0001) ># Packages
(PID.TID 0000.0001) > &PACKAGES
(PID.TID 0000.0001) > useGMRedi=.TRUE.,
(PID.TID 0000.0001) > useEBM=.TRUE.,
(PID.TID 0000.0001) > &
(PID.TID 0000.0001) >
(PID.TID 0000.0001) 
(PID.TID 0000.0001)  PACKAGES_BOOT: finished reading data.pkg
(PID.TID 0000.0001)  GM_READPARMS: opening data.gmredi
(PID.TID 0000.0001)  OPEN_COPY_DATA_FILE: opening file data.gmredi
(PID.TID 0000.0001) // =======================================================
(PID.TID 0000.0001) // Parameter file "data.gmredi"
(PID.TID 0000.0001) // =======================================================
(PID.TID 0000.0001) ># GM+Redi package parameters:
(PID.TID 0000.0001) >
(PID.TID 0000.0001) >#-from MOM :
(PID.TID 0000.0001) ># GM_background_K: 	G & Mc.W  diffusion coefficient
(PID.TID 0000.0001) ># GM_maxSlope    :	max slope of isopycnals
(PID.TID 0000.0001) ># GM_Scrit       :	transition for scaling diffusion coefficient
(PID.TID 0000.0001) ># GM_Sd          :	half width scaling for diffusion coefficient
(PID.TID 0000.0001) ># GM_taper_scheme:	slope clipping or one of the tapering schemes
(PID.TID 0000.0001) ># GM_Kmin_horiz  :	horizontal diffusion minimum value
(PID.TID 0000.0001) >
(PID.TID 0000.0001) >#-Option parameters (needs to "define" options in GMREDI_OPTIONS.h")
(PID.TID 0000.0001) ># GM_isopycK     :	isopycnal diffusion coefficient (default=GM_background_K)
(PID.TID 0000.0001) ># GM_AdvForm     :	turn on GM Advective form       (default=Skew flux form)
(PID.TID 0000.0001) >
(PID.TID 0000.0001) > &GM_PARM01
(PID.TID 0000.0001) >  GM_background_K    = 1.e+3,
(PID.TID 0000.0001) >  GM_taper_scheme    = 'gkw91',
(PID.TID 0000.0001) >  GM_maxSlope        = 1.e-2,
(PID.TID 0000.0001) >  GM_Kmin_horiz      = 50.,
(PID.TID 0000.0001) >  GM_Scrit           = 4.e-3,
(PID.TID 0000.0001) >  GM_Sd              = 1.e-3,
(PID.TID 0000.0001) ># GM_Visbeck_alpha   = 0.,
(PID.TID 0000.0001) ># GM_Visbeck_length  = 2.e+5,
(PID.TID 0000.0001) ># GM_Visbeck_depth   = 1.e+3,
(PID.TID 0000.0001) ># GM_Visbeck_maxval_K= 2.5e+3,
(PID.TID 0000.0001) > &
(PID.TID 0000.0001) >
(PID.TID 0000.0001) >
(PID.TID 0000.0001) 
(PID.TID 0000.0001)  GM_READPARMS: finished reading data.gmredi
(PID.TID 0000.0001)  ebm_readparms: opening data.ebm
(PID.TID 0000.0001)  OPEN_COPY_DATA_FILE: opening file data.ebm
(PID.TID 0000.0001) // =======================================================
(PID.TID 0000.0001) // Parameter file "data.ebm"
(PID.TID 0000.0001) // =======================================================
(PID.TID 0000.0001) ># Packages
(PID.TID 0000.0001) > &EBM_PARM01
(PID.TID 0000.0001) ># convert from mm/year to m/sec
(PID.TID 0000.0001) > scale_runoff     = 3.170979198E-11,
(PID.TID 0000.0001) > tauThetaZonRelax = 5184000.0,
(PID.TID 0000.0001) > RunoffFile       = 'Runoff.bin',
(PID.TID 0000.0001) > &
(PID.TID 0000.0001) >
(PID.TID 0000.0001) 
(PID.TID 0000.0001)  ebm_readparms: finished reading data.ebm
(PID.TID 0000.0001) SET_PARMS: done
(PID.TID 0000.0001) Enter INI_VERTICAL_GRID: setInterFDr=    T ; setCenterDr=    F
(PID.TID 0000.0001) %MON XC_max                       =   3.5800000000000E+02
(PID.TID 0000.0001) %MON XC_min                       =   2.0000000000000E+00
(PID.TID 0000.0001) %MON XC_mean                      =   1.8000000000000E+02
(PID.TID 0000.0001) %MON XC_sd                        =   1.0391663325314E+02
(PID.TID 0000.0001) %MON XG_max                       =   3.5600000000000E+02
(PID.TID 0000.0001) %MON XG_min                       =   4.0000000000000E+00
(PID.TID 0000.0001) %MON XG_mean                      =   1.8000000000000E+02
(PID.TID 0000.0001) %MON XG_sd                        =   1.0276186062932E+02
(PID.TID 0000.0001) %MON DXC_max                      =   4.4443898815675E+05
(PID.TID 0000.0001) %MON DXC_min                      =   9.2460385861875E+04
(PID.TID 0000.0001) %MON DXC_mean                     =   3.1372497618153E+05
(PID.TID 0000.0001) %MON DXC_sd                       =   1.1216447457560E+05
(PID.TID 0000.0001) %MON DXF_max                      =   4.4443898815675E+05
(PID.TID 0000.0001) %MON DXF_min                      =   9.2460385861875E+04
(PID.TID 0000.0001) %MON DXF_mean                     =   3.1372497618153E+05
(PID.TID 0000.0001) %MON DXF_sd                       =   1.1216447457560E+05
(PID.TID 0000.0001) %MON DXG_max                      =   4.4470989340816E+05
(PID.TID 0000.0001) %MON DXG_min                      =   7.7223062580781E+04
(PID.TID 0000.0001) %MON DXG_mean                     =   3.1353386340261E+05
(PID.TID 0000.0001) %MON DXG_sd                       =   1.1256651772502E+05
(PID.TID 0000.0001) %MON DXV_max                      =   4.4470989340816E+05
(PID.TID 0000.0001) %MON DXV_min                      =   7.7223062580781E+04
(PID.TID 0000.0001) %MON DXV_mean                     =   3.1353386340261E+05
(PID.TID 0000.0001) %MON DXV_sd                       =   1.1256651772502E+05
(PID.TID 0000.0001) %MON YC_max                       =   7.8000000000000E+01
(PID.TID 0000.0001) %MON YC_min                       =  -7.8000000000000E+01
(PID.TID 0000.0001) %MON YC_mean                      =   0.0000000000000E+00
(PID.TID 0000.0001) %MON YC_sd                        =   4.6173585522461E+01
(PID.TID 0000.0001) %MON YG_max                       =   7.6000000000000E+01
(PID.TID 0000.0001) %MON YG_min                       =  -8.0000000000000E+01
(PID.TID 0000.0001) %MON YG_mean                      =  -2.0512820512821E+00
(PID.TID 0000.0001) %MON YG_sd                        =   4.6760682979564E+01
(PID.TID 0000.0001) %MON DYC_max                      =   4.4470989340816E+05
(PID.TID 0000.0001) %MON DYC_min                      =   4.4470989340816E+05
(PID.TID 0000.0001) %MON DYC_mean                     =   4.4470989340817E+05
(PID.TID 0000.0001) %MON DYC_sd                       =   1.4668330550194E-08
(PID.TID 0000.0001) %MON DYF_max                      =   4.4470989340816E+05
(PID.TID 0000.0001) %MON DYF_min                      =   4.4470989340816E+05
(PID.TID 0000.0001) %MON DYF_mean                     =   4.4470989340817E+05
(PID.TID 0000.0001) %MON DYF_sd                       =   1.4668330550194E-08
(PID.TID 0000.0001) %MON DYG_max                      =   4.4470989340816E+05
(PID.TID 0000.0001) %MON DYG_min                      =   4.4470989340816E+05
(PID.TID 0000.0001) %MON DYG_mean                     =   4.4470989340817E+05
(PID.TID 0000.0001) %MON DYG_sd                       =   1.4668330550194E-08
(PID.TID 0000.0001) %MON DYU_max                      =   4.4470989340816E+05
(PID.TID 0000.0001) %MON DYU_min                      =   4.4470989340816E+05
(PID.TID 0000.0001) %MON DYU_mean                     =   4.4470989340817E+05
(PID.TID 0000.0001) %MON DYU_sd                       =   1.4668330550194E-08
(PID.TID 0000.0001) %MON RA_max                       =   1.9760627980089E+11
(PID.TID 0000.0001) %MON RA_min                       =   4.1109698667290E+10
(PID.TID 0000.0001) %MON RA_mean                      =   1.3948826965196E+11
(PID.TID 0000.0001) %MON RA_sd                        =   4.9870522472902E+10
(PID.TID 0000.0001) %MON RAW_max                      =   1.9760627980089E+11
(PID.TID 0000.0001) %MON RAW_min                      =   4.1109698667290E+10
(PID.TID 0000.0001) %MON RAW_mean                     =   1.3948826965196E+11
(PID.TID 0000.0001) %MON RAW_sd                       =   4.9870522472902E+10
(PID.TID 0000.0001) %MON RAS_max                      =   1.9772672958215E+11
(PID.TID 0000.0001) %MON RAS_min                      =   3.4334886267983E+10
(PID.TID 0000.0001) %MON RAS_mean                     =   1.3940329716694E+11
(PID.TID 0000.0001) %MON RAS_sd                       =   5.0049278732353E+10
(PID.TID 0000.0001) %MON RAZ_max                      =   1.9772672958215E+11
(PID.TID 0000.0001) %MON RAZ_min                      =   3.4334886267983E+10
(PID.TID 0000.0001) %MON RAZ_mean                     =   1.3940329716694E+11
(PID.TID 0000.0001) %MON RAZ_sd                       =   5.0049278732353E+10
(PID.TID 0000.0001) %MON AngleCS_max                  =   1.0000000000000E+00
(PID.TID 0000.0001) %MON AngleCS_min                  =   1.0000000000000E+00
(PID.TID 0000.0001) %MON AngleCS_mean                 =   1.0000000000000E+00
(PID.TID 0000.0001) %MON AngleCS_sd                   =   0.0000000000000E+00
(PID.TID 0000.0001) %MON AngleSN_max                  =   0.0000000000000E+00
(PID.TID 0000.0001) %MON AngleSN_min                  =   0.0000000000000E+00
(PID.TID 0000.0001) %MON AngleSN_mean                 =   0.0000000000000E+00
(PID.TID 0000.0001) %MON AngleSN_sd                   =   0.0000000000000E+00
(PID.TID 0000.0001)  MDS_READ_FIELD: opening global file: Topog.bin
(PID.TID 0000.0001) // =======================================================
(PID.TID 0000.0001) // Field Model R_low (ini_masks_etc) at iteration          1
(PID.TID 0000.0001) // CMIN =         -5.200000000000000E+03
(PID.TID 0000.0001) // CMAX =         -5.000000000000000E+01
(PID.TID 0000.0001) // CINT =          1.907407407407407E+02
(PID.TID 0000.0001) // SYMBOLS (CMIN->CMAX): -abcdefghijklmnopqrstuvwxyz+
(PID.TID 0000.0001) //                  0.0: .
(PID.TID 0000.0001) // RANGE I (Lo:Hi:Step):(  -1:  92:   1)
(PID.TID 0000.0001) // RANGE J (Lo:Hi:Step):(  42:  -1:  -1)
(PID.TID 0000.0001) // RANGE K (Lo:Hi:Step):(   1:   1:   1)
(PID.TID 0000.0001) // =======================================================
(PID.TID 0000.0001) K =   1
(PID.TID 0000.0001) //                I=8       I=18      I=28      I=38      I=44      I=54      I=64      I=74      I=84
(PID.TID 0000.0001) // |--J--|101234567|901234567|901234567|901234567|901234567|567890123|567890123|567890123|567890123|56789012
(PID.TID 0000.0001) //     42 .............................................yywvyywvqnkk...........................wvss..........
(PID.TID 0000.0001) //     41 ..................................................................................................
(PID.TID 0000.0001) //     40 ..................................................................................................
(PID.TID 0000.0001) //     39 nkkknqxz.......................................................................qsv.........vqnnkkk
(PID.TID 0000.0001) //     38 kkkkkq..........................................................................uv........vvsqkkkk
(PID.TID 0000.0001) //     37 kknv............................................................................wqq...qnqu..sukknv
(PID.TID 0000.0001) //     36 wwz..........................................kknqkknqz..........................unkk.kknqqnnqswwz.
(PID.TID 0000.0001) //     35 ..++.................................yvwz.hdkkkkkkkkkkuq.ddhhkq..................nhhhhknkknqnq..++
(PID.TID 0000.0001) //     34 ......................................vvv--d-------------ddhhhkn..................wkhhhhhhhdkv....
(PID.TID 0000.0001) //     33 d.....................................kk-------------------ddhhnq...............zz.skhdhhhddddd...
(PID.TID 0000.0001) //     32 ......................................h---------------------dhhhn...............nhdhd-dhkkhd-d....
(PID.TID 0000.0001) //     31 ......................................------------------------ddd.............hd------dhnhd--.....
(PID.TID 0000.0001) //     30 .....................................---------d---d-------------d............d--------hkh-----....
(PID.TID 0000.0001) //     29 .................................zudh--------------------------dhhk.........n-------dhhdh--dhh....
(PID.TID 0000.0001) //     28 ................................yqdd-------------------------dddhhh......nk.d-------dd-----hk.....
(PID.TID 0000.0001) //     27 .................................---------------------ddd-----ddhhhhk...hhkqq-------hd----dh......
(PID.TID 0000.0001) //     26 .................hkk....s.....khd----d--------d---d-----d-------dhhhkh..k.hddh-----dhd----dk......
(PID.TID 0000.0001) //     25 ...............hhhhh..kknn...qhh.----d--------------------------ddhhhhh....hhhd----dh-----hh......
(PID.TID 0000.0001) //     24 ..............nhhhhhs.hhkn...hhh.----------dd------------------dddhhhhkhdh.khh.-nd--dd----dh......
(PID.TID 0000.0001) //     23 ...............-dhddknhhhh.++nnhh----hdd----h----------d-----dddddhhhhkhhhk......khddhh---ddd.....
(PID.TID 0000.0001) //     22 dddh..........--dhhhkhhhhh..++..----dd-dhhddhd---d------hd--ddhhhhhhhhkkhhkk.......khhdhhhd--ddddh
(PID.TID 0000.0001) //     21 --dh.........d--ddhhddddddd.....nnhhdhd-hnhhhd---d-------dddhhhhddhhhhhkkkkk........hhhhdhd-----dh
(PID.TID 0000.0001) //     20 -dddh.......h--dhdhdd--dd--.......-...qqkqhhh-------------ddddddddhhhhhhhhh............h----dd-ddd
(PID.TID 0000.0001) //     19 d---d.......hddhhhhk---------.hhhd-s...--hhh--d---d---dd----hhdddhhhhhhhhhh-...........d---dhhd---
(PID.TID 0000.0001) //     18 ----d.......khhhhhhh---d--------ku....khhk--hhhhdhhhd--h--dddhhhhhhhhhhhhhddd..........d---dhh----
(PID.TID 0000.0001) //     17 d---d.......k..dhhhdd--d--------s......ddhddhkkn-kkn----dddhhhhhhhhkhhhhhdddh..........d---dhhd---
(PID.TID 0000.0001) //     16 d---d......kn.--hhkhdd-d------h........vkkkd-hhn-hhn---ddddddhhhhhhkhhhhhdhhd-........hd---dhhd---
(PID.TID 0000.0001) //     15 ---hd......hh.---dhhhdddd----d..........ddnkddhq-dhq----dddddhhhhhkkhhhhhhhhdh.......nhd---dhd---h
(PID.TID 0000.0001) //     14 d---dh....qddh---ddhhhhddd----...........dnhhdh--dh------dddhhhhhhkkkhhhhhhhh-......khhd--dhhhd---
(PID.TID 0000.0001) //     13 dh---h...hk-dhddhddddhhhhhd---..........-dshhhh--hh------d--ddhhhhhkkhhhhhhhhd.....khhhddddhkhdh--
(PID.TID 0000.0001) //     12 hd---dhdhh---khdd-ddhkhhhhh----.----....---nqsk--sk----------ddddhhhkhhhhhhhhd....n----dhhhkhhhd--
(PID.TID 0000.0001) //     11 hd--dd--hd--dkhd--dhhkhhhhhdddd-------xhd--hv.kd-.kd-d--d------ddhhhhhhdhhhhh....n-------hhkkhhd--
(PID.TID 0000.0001) //     10 hhddd------hkkkd--hhhkkkkhhhhhddddddddhh---h.snk-snk----d------ddhhhhhhdddhhh...+d------ddhhkhhhdd
(PID.TID 0000.0001) //      9 hhhhd-----ddhhhhdhknkkhhhhkhkhhhhhhhdhhd--dhvsn--sn--------ddddddhhkhhhhdddhh...xd--------dhhkhhhh
(PID.TID 0000.0001) //      8 nkhhhhhh---dhhdddddhqnhdhhhhhhhhhhhhhhhhdddhvd---d--------ddhhhhhhkhhdd--dddh..zxqnkkhddddhhhhnkhh
(PID.TID 0000.0001) //      7 hhd----d---------dddhkd--hhhhhhddddhhhhhhhd------------dddhhhhhhkkhh-------ddhhhhhdhhhhd---dhhhhd-
(PID.TID 0000.0001) //      6 ------------------dddhnhddhhhhhdddddhhhhhk-----dd--dddddhkkhhdd--------------ddhhhhhhhhhh--d------
(PID.TID 0000.0001) //      5 -------------d--dhdhhkkkkhh.hhhhhhhhhhhhkknhhhhhhhhhhkkkhhhhhdd------d---ddddhhh.xnhhddddd--------
(PID.TID 0000.0001) //      4 dhhhhhdddh.h..............................qnkkkhhkkhhhhhhhhhhhhdddddddddhdhhhk...wkhhhhddddddddhhh
(PID.TID 0000.0001) //      3 .............................................nnkhnnkhhhhhhhhhhhhkknkkkk..........vnkhhhhhhhh......
(PID.TID 0000.0001) //      2 .............................................yywvyywvqnkk...........................wvss..........
(PID.TID 0000.0001) //      1 ..................................................................................................
(PID.TID 0000.0001) //      0 ..................................................................................................
(PID.TID 0000.0001) //     -1 nkkknqxz.......................................................................qsv.........vqnnkkk
(PID.TID 0000.0001) // =======================================================
(PID.TID 0000.0001) // END OF FIELD                                          =
(PID.TID 0000.0001) // =======================================================
(PID.TID 0000.0001) 
(PID.TID 0000.0001) // =======================================================
(PID.TID 0000.0001) // Field Model Ro_surf (ini_masks_etc) at iteration          1
(PID.TID 0000.0001) // CMIN =          1.000000000000000E+32
(PID.TID 0000.0001) // CMAX =         -1.000000000000000E+32
(PID.TID 0000.0001) // CINT =          0.000000000000000E+00
(PID.TID 0000.0001) // SYMBOLS (CMIN->CMAX): -abcdefghijklmnopqrstuvwxyz+
(PID.TID 0000.0001) //                  0.0: .
(PID.TID 0000.0001) // RANGE I (Lo:Hi:Step):(  -1:  92:   1)
(PID.TID 0000.0001) // RANGE J (Lo:Hi:Step):(  42:  -1:  -1)
(PID.TID 0000.0001) // RANGE K (Lo:Hi:Step):(   1:   1:   1)
(PID.TID 0000.0001) // =======================================================
(PID.TID 0000.0001) // =======================================================
(PID.TID 0000.0001) // END OF FIELD                                          =
(PID.TID 0000.0001) // =======================================================
(PID.TID 0000.0001) 
(PID.TID 0000.0001) // =======================================================
(PID.TID 0000.0001) // Field hFacC at iteration          1
(PID.TID 0000.0001) // CMIN =          1.000000000000000E+00
(PID.TID 0000.0001) // CMAX =          1.000000000000000E+00
(PID.TID 0000.0001) // CINT =          0.000000000000000E+00
(PID.TID 0000.0001) // SYMBOLS (CMIN->CMAX): -abcdefghijklmnopqrstuvwxyz+
(PID.TID 0000.0001) //                  0.0: .
(PID.TID 0000.0001) // RANGE I (Lo:Hi:Step):(  -1:  92:   1)
(PID.TID 0000.0001) // RANGE J (Lo:Hi:Step):(  42:  -1:  -1)
(PID.TID 0000.0001) // RANGE K (Lo:Hi:Step):(   1:   1:   1)
(PID.TID 0000.0001) // =======================================================
(PID.TID 0000.0001) // =======================================================
(PID.TID 0000.0001) // END OF FIELD                                          =
(PID.TID 0000.0001) // =======================================================
(PID.TID 0000.0001) 
(PID.TID 0000.0001) // =======================================================
(PID.TID 0000.0001) // Field hFacW at iteration          1
(PID.TID 0000.0001) // CMIN =          1.000000000000000E+00
(PID.TID 0000.0001) // CMAX =          1.000000000000000E+00
(PID.TID 0000.0001) // CINT =          0.000000000000000E+00
(PID.TID 0000.0001) // SYMBOLS (CMIN->CMAX): -abcdefghijklmnopqrstuvwxyz+
(PID.TID 0000.0001) //                  0.0: .
(PID.TID 0000.0001) // RANGE I (Lo:Hi:Step):(  -1:  92:   1)
(PID.TID 0000.0001) // RANGE J (Lo:Hi:Step):(  42:  -1:  -1)
(PID.TID 0000.0001) // RANGE K (Lo:Hi:Step):(   1:   1:   1)
(PID.TID 0000.0001) // =======================================================
(PID.TID 0000.0001) // =======================================================
(PID.TID 0000.0001) // END OF FIELD                                          =
(PID.TID 0000.0001) // =======================================================
(PID.TID 0000.0001) 
(PID.TID 0000.0001) // =======================================================
(PID.TID 0000.0001) // Field hFacS at iteration          1
(PID.TID 0000.0001) // CMIN =          1.000000000000000E+00
(PID.TID 0000.0001) // CMAX =          1.000000000000000E+00
(PID.TID 0000.0001) // CINT =          0.000000000000000E+00
(PID.TID 0000.0001) // SYMBOLS (CMIN->CMAX): -abcdefghijklmnopqrstuvwxyz+
(PID.TID 0000.0001) //                  0.0: .
(PID.TID 0000.0001) // RANGE I (Lo:Hi:Step):(  -1:  92:   1)
(PID.TID 0000.0001) // RANGE J (Lo:Hi:Step):(  42:  -1:  -1)
(PID.TID 0000.0001) // RANGE K (Lo:Hi:Step):(   1:   1:   1)
(PID.TID 0000.0001) // =======================================================
(PID.TID 0000.0001) // =======================================================
(PID.TID 0000.0001) // END OF FIELD                                          =
(PID.TID 0000.0001) // =======================================================
(PID.TID 0000.0001) 
(PID.TID 0000.0001) 
(PID.TID 0000.0001) // ===================================
(PID.TID 0000.0001) // GAD parameters :
(PID.TID 0000.0001) // ===================================
(PID.TID 0000.0001) tempAdvScheme =   /* Temp. Horiz.Advection scheme selector */
(PID.TID 0000.0001)                       2
(PID.TID 0000.0001)     ;
(PID.TID 0000.0001) tempVertAdvScheme =   /* Temp. Vert. Advection scheme selector */
(PID.TID 0000.0001)                       2
(PID.TID 0000.0001)     ;
(PID.TID 0000.0001) tempMultiDimAdvec =   /* use Muti-Dim Advec method for Temp */
(PID.TID 0000.0001)                   F
(PID.TID 0000.0001)     ;
(PID.TID 0000.0001) tempSOM_Advection = /* use 2nd Order Moment Advection for Temp */
(PID.TID 0000.0001)                   F
(PID.TID 0000.0001)     ;
(PID.TID 0000.0001) AdamsBashforthGt = /* apply Adams-Bashforth extrapolation on Gt */
(PID.TID 0000.0001)                   T
(PID.TID 0000.0001)     ;
(PID.TID 0000.0001) AdamsBashforth_T = /* apply Adams-Bashforth extrapolation on Temp */
(PID.TID 0000.0001)                   F
(PID.TID 0000.0001)     ;
(PID.TID 0000.0001) saltAdvScheme =   /* Salt. Horiz.advection scheme selector */
(PID.TID 0000.0001)                       2
(PID.TID 0000.0001)     ;
(PID.TID 0000.0001) saltVertAdvScheme =   /* Salt. Vert. Advection scheme selector */
(PID.TID 0000.0001)                       2
(PID.TID 0000.0001)     ;
(PID.TID 0000.0001) saltMultiDimAdvec =   /* use Muti-Dim Advec method for Salt */
(PID.TID 0000.0001)                   F
(PID.TID 0000.0001)     ;
(PID.TID 0000.0001) saltSOM_Advection = /* use 2nd Order Moment Advection for Salt */
(PID.TID 0000.0001)                   F
(PID.TID 0000.0001)     ;
(PID.TID 0000.0001) AdamsBashforthGs = /* apply Adams-Bashforth extrapolation on Gs */
(PID.TID 0000.0001)                   T
(PID.TID 0000.0001)     ;
(PID.TID 0000.0001) AdamsBashforth_S = /* apply Adams-Bashforth extrapolation on Salt */
(PID.TID 0000.0001)                   F
(PID.TID 0000.0001)     ;
(PID.TID 0000.0001) // ===================================
(PID.TID 0000.0001) GAD_CHECK: #define ALLOW_GENERIC_ADVDIFF
(PID.TID 0000.0001) GMREDI_CHECK: #define GMREDI
(PID.TID 0000.0001) GM_AdvForm =  /* if FALSE => use SkewFlux Form */
(PID.TID 0000.0001)                   F
(PID.TID 0000.0001)     ;
(PID.TID 0000.0001) GM_AdvSeparate = /* Calc Bolus & Euler Adv. separately */
(PID.TID 0000.0001)                   F
(PID.TID 0000.0001)     ;
(PID.TID 0000.0001) GM_ExtraDiag =  /* Tensor Extra Diag (line 1&2) non 0 */
(PID.TID 0000.0001)                   F
(PID.TID 0000.0001)     ;
(PID.TID 0000.0001) GM_isopycK =   /* Background Isopyc. Diffusivity ( m^2/s ) */
(PID.TID 0000.0001)                 1.000000000000000E+03
(PID.TID 0000.0001)     ;
(PID.TID 0000.0001)  GM_skewflx*K =   /* Background GM_SkewFlx Diffusivity ( m^2/s ) */
(PID.TID 0000.0001)                 1.000000000000000E+03
(PID.TID 0000.0001)     ;
(PID.TID 0000.0001)  GM_advec*K =   /* Backg. GM-Advec(=Bolus) Diffusivity ( m^2/s ) */
(PID.TID 0000.0001)                 0.000000000000000E+00
(PID.TID 0000.0001)     ;
(PID.TID 0000.0001)  GM_Visbeck_alpha =   /* Visbeck alpha coeff. ( ) */
(PID.TID 0000.0001)                 0.000000000000000E+00
(PID.TID 0000.0001)     ;
(PID.TID 0000.0001)  Tapering/Cliping : gkw91
(PID.TID 0000.0001)  GM_Small_Number =  /* epsilon used in slope calc */
(PID.TID 0000.0001)                 9.999999999999999E-21
(PID.TID 0000.0001)     ;
(PID.TID 0000.0001)  GM_slopeSqCutoff =  /* Slope^2 cut-off value */
(PID.TID 0000.0001)                 1.000000000000000E+48
(PID.TID 0000.0001)     ;
(PID.TID 0000.0001) %MON fCori_max                    =   1.4226580169407E-04
(PID.TID 0000.0001) %MON fCori_min                    =  -1.4226580169407E-04
(PID.TID 0000.0001) %MON fCori_mean                   =   1.5961865317148E-21
(PID.TID 0000.0001) %MON fCori_sd                     =   9.6335367303779E-05
(PID.TID 0000.0001) %MON fCoriG_max                   =   1.4112379284621E-04
(PID.TID 0000.0001) %MON fCoriG_min                   =  -1.4323448157692E-04
(PID.TID 0000.0001) %MON fCoriG_mean                  =  -3.6726790147928E-06
(PID.TID 0000.0001) %MON fCoriG_sd                    =   9.7510077443651E-05
(PID.TID 0000.0001) %MON fCoriCos_max                 =   1.4535550371427E-04
(PID.TID 0000.0001) %MON fCoriCos_min                 =   3.0239529651320E-05
(PID.TID 0000.0001) %MON fCoriCos_mean                =   1.0260497651149E-04
(PID.TID 0000.0001) %MON fCoriCos_sd                  =   3.6683828681187E-05
(PID.TID 0000.0001) INI_CG2D: CG2D normalisation factor =  9.0544177972206531E-05
(PID.TID 0000.0001) 
(PID.TID 0000.0001) CONFIG_CHECK: OK
(PID.TID 0000.0001) // =======================================================
(PID.TID 0000.0001) // Model configuration
(PID.TID 0000.0001) // =======================================================
(PID.TID 0000.0001) //
(PID.TID 0000.0001) // "Physical" paramters ( PARM01 in namelist )
(PID.TID 0000.0001) //
(PID.TID 0000.0001) buoyancyRelation = /* Type of relation to get Buoyancy */
(PID.TID 0000.0001)               'OCEANIC'
(PID.TID 0000.0001)     ;
(PID.TID 0000.0001) fluidIsAir  =  /* fluid major constituent is Air */
(PID.TID 0000.0001)                   F
(PID.TID 0000.0001)     ;
(PID.TID 0000.0001) fluidIsWater=  /* fluid major constituent is Water */
(PID.TID 0000.0001)                   T
(PID.TID 0000.0001)     ;
(PID.TID 0000.0001) usingPCoords =  /* use p (or p*) vertical coordinate */
(PID.TID 0000.0001)                   F
(PID.TID 0000.0001)     ;
(PID.TID 0000.0001) usingZCoords =  /* use z (or z*) vertical coordinate */
(PID.TID 0000.0001)                   T
(PID.TID 0000.0001)     ;
(PID.TID 0000.0001) tRef =   /* Reference temperature profile ( oC or K ) */
(PID.TID 0000.0001)    15 @  2.000000000000000E+01              /* K =  1: 15 */
(PID.TID 0000.0001)     ;
(PID.TID 0000.0001) sRef =   /* Reference salinity profile ( psu ) */
(PID.TID 0000.0001)    15 @  3.500000000000000E+01              /* K =  1: 15 */
(PID.TID 0000.0001)     ;
(PID.TID 0000.0001) viscAh =   /* Lateral eddy viscosity ( m^2/s ) */
(PID.TID 0000.0001)                 5.000000000000000E+05
(PID.TID 0000.0001)     ;
(PID.TID 0000.0001) viscAhMax =   /* Maximum lateral eddy viscosity ( m^2/s ) */
(PID.TID 0000.0001)                 1.000000000000000E+21
(PID.TID 0000.0001)     ;
(PID.TID 0000.0001) viscAhGrid =   /* Grid dependent lateral eddy viscosity ( non-dim. ) */
(PID.TID 0000.0001)                 0.000000000000000E+00
(PID.TID 0000.0001)     ;
(PID.TID 0000.0001) useFullLeith =   /* Use Full Form of Leith Viscosity on/off flag*/
(PID.TID 0000.0001)                   F
(PID.TID 0000.0001)     ;
(PID.TID 0000.0001) useStrainTensionVisc =   /* Use StrainTension Form of Viscous Operator on/off flag*/
(PID.TID 0000.0001)                   F
(PID.TID 0000.0001)     ;
(PID.TID 0000.0001) useAreaViscLength =   /* Use area for visc length instead of geom. mean*/
(PID.TID 0000.0001)                   F
(PID.TID 0000.0001)     ;
(PID.TID 0000.0001) viscC2leith = /* Leith harmonic visc. factor (on grad(vort),non-dim.) */
(PID.TID 0000.0001)                 0.000000000000000E+00
(PID.TID 0000.0001)     ;
(PID.TID 0000.0001) viscC2leithD = /* Leith harmonic viscosity factor (on grad(div),non-dim.) */
(PID.TID 0000.0001)                 0.000000000000000E+00
(PID.TID 0000.0001)     ;
(PID.TID 0000.0001) viscC2smag =   /* Smagorinsky harmonic viscosity factor (non-dim.) */
(PID.TID 0000.0001)                 0.000000000000000E+00
(PID.TID 0000.0001)     ;
(PID.TID 0000.0001) viscA4 =   /* Lateral biharmonic viscosity ( m^4/s ) */
(PID.TID 0000.0001)                 0.000000000000000E+00
(PID.TID 0000.0001)     ;
(PID.TID 0000.0001) viscA4Max =   /* Maximum biharmonic viscosity ( m^2/s ) */
(PID.TID 0000.0001)                 1.000000000000000E+21
(PID.TID 0000.0001)     ;
(PID.TID 0000.0001) viscA4Grid =   /* Grid dependent biharmonic viscosity ( non-dim. ) */
(PID.TID 0000.0001)                 0.000000000000000E+00
(PID.TID 0000.0001)     ;
(PID.TID 0000.0001) viscC4leith = /* Leith biharm viscosity factor (on grad(vort), non-dim.) */
(PID.TID 0000.0001)                 0.000000000000000E+00
(PID.TID 0000.0001)     ;
(PID.TID 0000.0001) viscC4leithD = /* Leith biharm viscosity factor (on grad(div), non-dim.) */
(PID.TID 0000.0001)                 0.000000000000000E+00
(PID.TID 0000.0001)     ;
(PID.TID 0000.0001) viscC4Smag = /* Smagorinsky biharm viscosity factor (non-dim) */
(PID.TID 0000.0001)                 0.000000000000000E+00
(PID.TID 0000.0001)     ;
(PID.TID 0000.0001) no_slip_sides =  /* Viscous BCs: No-slip sides */
(PID.TID 0000.0001)                   T
(PID.TID 0000.0001)     ;
(PID.TID 0000.0001) sideDragFactor = /* side-drag scaling factor (non-dim) */
(PID.TID 0000.0001)                 2.000000000000000E+00
(PID.TID 0000.0001)     ;
(PID.TID 0000.0001) viscAr =   /* Vertical eddy viscosity ( units of r^2/s ) */
(PID.TID 0000.0001)                 1.000000000000000E-03
(PID.TID 0000.0001)     ;
(PID.TID 0000.0001) no_slip_bottom =  /* Viscous BCs: No-slip bottom */
(PID.TID 0000.0001)                   T
(PID.TID 0000.0001)     ;
(PID.TID 0000.0001) bottomDragLinear = /* linear bottom-drag coefficient ( 1/s ) */
(PID.TID 0000.0001)                 0.000000000000000E+00
(PID.TID 0000.0001)     ;
(PID.TID 0000.0001) bottomDragQuadratic = /* quadratic bottom-drag coeff. ( 1/m ) */
(PID.TID 0000.0001)                 0.000000000000000E+00
(PID.TID 0000.0001)     ;
(PID.TID 0000.0001) diffKhT =   /* Laplacian diffusion of heat laterally ( m^2/s ) */
(PID.TID 0000.0001)                 0.000000000000000E+00
(PID.TID 0000.0001)     ;
(PID.TID 0000.0001) diffK4T =   /* Bihaarmonic diffusion of heat laterally ( m^4/s ) */
(PID.TID 0000.0001)                 0.000000000000000E+00
(PID.TID 0000.0001)     ;
(PID.TID 0000.0001) diffKhS =   /* Laplacian diffusion of salt laterally ( m^2/s ) */
(PID.TID 0000.0001)                 0.000000000000000E+00
(PID.TID 0000.0001)     ;
(PID.TID 0000.0001) diffK4S =   /* Bihaarmonic diffusion of salt laterally ( m^4/s ) */
(PID.TID 0000.0001)                 0.000000000000000E+00
(PID.TID 0000.0001)     ;
(PID.TID 0000.0001) diffKrNrT = /* vertical profile of vertical diffusion of Temp ( m^2/s )*/
(PID.TID 0000.0001)    15 @  3.000000000000000E-05              /* K =  1: 15 */
(PID.TID 0000.0001)     ;
(PID.TID 0000.0001) diffKrNrS = /* vertical profile of vertical diffusion of Salt ( m^2/s )*/
(PID.TID 0000.0001)    15 @  3.000000000000000E-05              /* K =  1: 15 */
(PID.TID 0000.0001)     ;
(PID.TID 0000.0001) diffKrBL79surf =   /* Surface diffusion for Bryan and Lewis 1979 ( m^2/s ) */
(PID.TID 0000.0001)                 0.000000000000000E+00
(PID.TID 0000.0001)     ;
(PID.TID 0000.0001) diffKrBL79deep =   /* Deep diffusion for Bryan and Lewis 1979 ( m^2/s ) */
(PID.TID 0000.0001)                 0.000000000000000E+00
(PID.TID 0000.0001)     ;
(PID.TID 0000.0001) diffKrBL79scl =   /* Depth scale for Bryan and Lewis 1979 ( m ) */
(PID.TID 0000.0001)                 2.000000000000000E+02
(PID.TID 0000.0001)     ;
(PID.TID 0000.0001) diffKrBL79Ho =   /* Turning depth for Bryan and Lewis 1979 ( m ) */
(PID.TID 0000.0001)                -2.000000000000000E+03
(PID.TID 0000.0001)     ;
(PID.TID 0000.0001) ivdc_kappa = /* Implicit Vertical Diffusivity for Convection ( m^2/s ) */
(PID.TID 0000.0001)                 1.000000000000000E+02
(PID.TID 0000.0001)     ;
(PID.TID 0000.0001) hMixCriteria=  /* Criteria for mixed-layer diagnostic */
(PID.TID 0000.0001)                -8.000000000000000E-01
(PID.TID 0000.0001)     ;
(PID.TID 0000.0001) eosType =  /* Type of Equation of State */
(PID.TID 0000.0001)               'POLY3 '
(PID.TID 0000.0001)     ;
(PID.TID 0000.0001) tAlpha =   /* Linear EOS thermal expansion coefficient ( 1/oC ) */
(PID.TID 0000.0001)                 1.234567000000000E+05
(PID.TID 0000.0001)     ;
(PID.TID 0000.0001) sBeta =   /* Linear EOS haline contraction coefficient ( 1/psu ) */
(PID.TID 0000.0001)                 1.234567000000000E+05
(PID.TID 0000.0001)     ;
(PID.TID 0000.0001)   1  13.497  32.600  24.548  -0.202   0.773  -0.005  -0.002   0.000   0.000   0.000   0.000   0.000
(PID.TID 0000.0001)   2  13.488  32.600  24.819  -0.204   0.773  -0.005  -0.002   0.000   0.000   0.000   0.000   0.000
(PID.TID 0000.0001)   3  13.476  32.600  25.201  -0.205   0.772  -0.005  -0.002   0.000   0.000   0.000   0.000   0.000
(PID.TID 0000.0001)   4   8.469  35.150  28.642  -0.163   0.784  -0.005  -0.002   0.000   0.000   0.000   0.000   0.000
(PID.TID 0000.0001)   5   8.451  35.150  29.393  -0.167   0.782  -0.005  -0.002   0.000   0.000   0.000   0.000   0.000
(PID.TID 0000.0001)   6   5.940  34.900  30.563  -0.144   0.786  -0.005  -0.002  -0.001   0.000   0.000   0.000   0.000
(PID.TID 0000.0001)   7   4.425  34.900  31.985  -0.134   0.788  -0.005  -0.003   0.000   0.000   0.000   0.000   0.000
(PID.TID 0000.0001)   8   2.911  34.750  33.505  -0.125   0.789  -0.006  -0.003   0.000   0.000   0.000   0.000   0.000
(PID.TID 0000.0001)   9   1.893  34.800  35.341  -0.123   0.789  -0.006  -0.003   0.000   0.000   0.000   0.000   0.000
(PID.TID 0000.0001)  10   1.367  34.800  37.299  -0.129   0.787  -0.006  -0.003   0.000   0.000   0.000   0.000   0.000
(PID.TID 0000.0001)  11   1.327  34.800  39.405  -0.141   0.783  -0.005  -0.003   0.000   0.000   0.000   0.000   0.000
(PID.TID 0000.0001)  12   0.791  34.800  41.788  -0.149   0.780  -0.005  -0.003   0.000   0.000   0.000   0.000   0.000
(PID.TID 0000.0001)  13   0.736  34.750  44.259  -0.164   0.776  -0.005  -0.002   0.000   0.000   0.000   0.000   0.000
(PID.TID 0000.0001)  14   0.186  34.750  47.044  -0.175   0.773  -0.005  -0.002   0.000   0.000   0.000   0.000   0.000
(PID.TID 0000.0001)  15   0.595  34.750  49.835  -0.196   0.767  -0.004  -0.002   0.000   0.000   0.000   0.000   0.000
(PID.TID 0000.0001) rhonil =   /* Reference density ( kg/m^3 ) */
(PID.TID 0000.0001)                 1.035000000000000E+03
(PID.TID 0000.0001)     ;
(PID.TID 0000.0001) rhoConst =   /* Reference density ( kg/m^3 ) */
(PID.TID 0000.0001)                 1.035000000000000E+03
(PID.TID 0000.0001)     ;
(PID.TID 0000.0001) rhoFacC = /* normalized Reference density @ cell-Center (-) */
(PID.TID 0000.0001)    15 @  1.000000000000000E+00              /* K =  1: 15 */
(PID.TID 0000.0001)     ;
(PID.TID 0000.0001) rhoFacF = /* normalized Reference density @ W-Interface (-) */
(PID.TID 0000.0001)    16 @  1.000000000000000E+00              /* K =  1: 16 */
(PID.TID 0000.0001)     ;
(PID.TID 0000.0001) rhoConstFresh =   /* Reference density ( kg/m^3 ) */
(PID.TID 0000.0001)                 1.035000000000000E+03
(PID.TID 0000.0001)     ;
(PID.TID 0000.0001) gravity =   /* Gravitational acceleration ( m/s^2 ) */
(PID.TID 0000.0001)                 9.810000000000000E+00
(PID.TID 0000.0001)     ;
(PID.TID 0000.0001) gBaro =   /* Barotropic gravity ( m/s^2 ) */
(PID.TID 0000.0001)                 9.810000000000000E+00
(PID.TID 0000.0001)     ;
(PID.TID 0000.0001) rotationPeriod =   /* Rotation Period ( s ) */
(PID.TID 0000.0001)                 8.640000000000000E+04
(PID.TID 0000.0001)     ;
(PID.TID 0000.0001) omega =   /* Angular velocity ( rad/s ) */
(PID.TID 0000.0001)                 7.272205216643040E-05
(PID.TID 0000.0001)     ;
(PID.TID 0000.0001) f0 =   /* Reference coriolis parameter ( 1/s ) */
(PID.TID 0000.0001)                 1.000000000000000E-04
(PID.TID 0000.0001)     ;
(PID.TID 0000.0001) beta =   /* Beta ( 1/(m.s) ) */
(PID.TID 0000.0001)                 9.999999999999999E-12
(PID.TID 0000.0001)     ;
(PID.TID 0000.0001) freeSurfFac =   /* Implicit free surface factor */
(PID.TID 0000.0001)                 1.000000000000000E+00
(PID.TID 0000.0001)     ;
(PID.TID 0000.0001) implicitFreeSurface =   /* Implicit free surface on/off flag */
(PID.TID 0000.0001)                   T
(PID.TID 0000.0001)     ;
(PID.TID 0000.0001) rigidLid =   /* Rigid lid on/off flag */
(PID.TID 0000.0001)                   F
(PID.TID 0000.0001)     ;
(PID.TID 0000.0001) implicSurfPress =   /* Surface Pressure implicit factor (0-1)*/
(PID.TID 0000.0001)                 1.000000000000000E+00
(PID.TID 0000.0001)     ;
(PID.TID 0000.0001) implicDiv2Dflow =   /* Barot. Flow Div. implicit factor (0-1)*/
(PID.TID 0000.0001)                 1.000000000000000E+00
(PID.TID 0000.0001)     ;
(PID.TID 0000.0001) exactConserv =   /* Exact Volume Conservation on/off flag*/
(PID.TID 0000.0001)                   F
(PID.TID 0000.0001)     ;
(PID.TID 0000.0001) linFSConserveTr =   /* Tracer correction for Lin Free Surface on/off flag*/
(PID.TID 0000.0001)                   F
(PID.TID 0000.0001)     ;
(PID.TID 0000.0001) uniformLin_PhiSurf =   /* use uniform Bo_surf on/off flag*/
(PID.TID 0000.0001)                   T
(PID.TID 0000.0001)     ;
(PID.TID 0000.0001) nonlinFreeSurf =   /* Non-linear Free Surf. options (-1,0,1,2,3)*/
(PID.TID 0000.0001)                       0
(PID.TID 0000.0001)     ;
(PID.TID 0000.0001)      -1,0= Off ; 1,2,3= On, 2=+rescale gU,gV, 3=+update cg2d solv.
(PID.TID 0000.0001) hFacInf =   /* lower threshold for hFac (nonlinFreeSurf only)*/
(PID.TID 0000.0001)                 2.000000000000000E-01
(PID.TID 0000.0001)     ;
(PID.TID 0000.0001) hFacSup =   /* upper threshold for hFac (nonlinFreeSurf only)*/
(PID.TID 0000.0001)                 2.000000000000000E+00
(PID.TID 0000.0001)     ;
(PID.TID 0000.0001) select_rStar =   /* r* Coordinate options (not yet implemented)*/
(PID.TID 0000.0001)                       0
(PID.TID 0000.0001)     ;
(PID.TID 0000.0001) useRealFreshWaterFlux =   /* Real Fresh Water Flux on/off flag*/
(PID.TID 0000.0001)                   T
(PID.TID 0000.0001)     ;
(PID.TID 0000.0001) convertFW2Salt = /* convert F.W. Flux to Salt Flux (-1=use local S)(ppt)*/
(PID.TID 0000.0001)                -1.000000000000000E+00
(PID.TID 0000.0001)     ;
(PID.TID 0000.0001) use3Dsolver = /* use 3-D pressure solver on/off flag */
(PID.TID 0000.0001)                   F
(PID.TID 0000.0001)     ;
(PID.TID 0000.0001) nonHydrostatic =  /* Non-Hydrostatic on/off flag */
(PID.TID 0000.0001)                   F
(PID.TID 0000.0001)     ;
(PID.TID 0000.0001) nh_Am2 = /* Non-Hydrostatic terms scaling factor */
(PID.TID 0000.0001)                 1.000000000000000E+00
(PID.TID 0000.0001)     ;
(PID.TID 0000.0001) quasiHydrostatic = /* Quasi-Hydrostatic on/off flag */
(PID.TID 0000.0001)                   F
(PID.TID 0000.0001)     ;
(PID.TID 0000.0001) momStepping =  /* Momentum equation on/off flag */
(PID.TID 0000.0001)                   T
(PID.TID 0000.0001)     ;
(PID.TID 0000.0001) vectorInvariantMomentum= /* Vector-Invariant Momentum on/off */
(PID.TID 0000.0001)                   F
(PID.TID 0000.0001)     ;
(PID.TID 0000.0001) momAdvection =  /* Momentum advection on/off flag */
(PID.TID 0000.0001)                   T
(PID.TID 0000.0001)     ;
(PID.TID 0000.0001) momViscosity =  /* Momentum viscosity on/off flag */
(PID.TID 0000.0001)                   T
(PID.TID 0000.0001)     ;
(PID.TID 0000.0001) momImplVertAdv =/* Momentum implicit vert. advection on/off*/
(PID.TID 0000.0001)                   F
(PID.TID 0000.0001)     ;
(PID.TID 0000.0001) implicitViscosity = /* Implicit viscosity on/off flag */
(PID.TID 0000.0001)                   F
(PID.TID 0000.0001)     ;
(PID.TID 0000.0001) metricTerms =  /* metric-Terms on/off flag */
(PID.TID 0000.0001)                   T
(PID.TID 0000.0001)     ;
(PID.TID 0000.0001) useNHMTerms = /* Non-Hydrostatic Metric-Terms on/off */
(PID.TID 0000.0001)                   T
(PID.TID 0000.0001)     ;
(PID.TID 0000.0001) useConstantF =  /* use Constant f0 Coriolis flag */
(PID.TID 0000.0001)                   F
(PID.TID 0000.0001)     ;
(PID.TID 0000.0001) useBetaPlaneF = /* use Beta-Plane Coriolis flag */
(PID.TID 0000.0001)                   F
(PID.TID 0000.0001)     ;
(PID.TID 0000.0001) useSphereF  =   /* use Spherical Coriolis flag */
(PID.TID 0000.0001)                   T
(PID.TID 0000.0001)     ;
(PID.TID 0000.0001) use3dCoriolis = /* 3-D Coriolis on/off flag */
(PID.TID 0000.0001)                   F
(PID.TID 0000.0001)     ;
(PID.TID 0000.0001) useCoriolis =  /* Coriolis on/off flag */
(PID.TID 0000.0001)                   T
(PID.TID 0000.0001)     ;
(PID.TID 0000.0001) useCDscheme =  /* CD scheme on/off flag */
(PID.TID 0000.0001)                   T
(PID.TID 0000.0001)     ;
(PID.TID 0000.0001) useJamartWetPoints= /* Coriolis WetPoints method flag */
(PID.TID 0000.0001)                   F
(PID.TID 0000.0001)     ;
(PID.TID 0000.0001) useJamartMomAdv= /* V.I. Non-linear terms Jamart flag */
(PID.TID 0000.0001)                   F
(PID.TID 0000.0001)     ;
(PID.TID 0000.0001) SadournyCoriolis= /* Sadourny Coriolis discr. flag */
(PID.TID 0000.0001)                   F
(PID.TID 0000.0001)     ;
(PID.TID 0000.0001) upwindVorticity= /* Upwind bias vorticity flag */
(PID.TID 0000.0001)                   F
(PID.TID 0000.0001)     ;
(PID.TID 0000.0001) useAbsVorticity= /* Work with f+zeta in Coriolis */
(PID.TID 0000.0001)                   F
(PID.TID 0000.0001)     ;
(PID.TID 0000.0001) highOrderVorticity= /* High order interp. of vort. flag */
(PID.TID 0000.0001)                   F
(PID.TID 0000.0001)     ;
(PID.TID 0000.0001) upwindShear= /* Upwind vertical Shear advection flag */
(PID.TID 0000.0001)                   F
(PID.TID 0000.0001)     ;
(PID.TID 0000.0001) selectKEscheme= /* Kinetic Energy scheme selector */
(PID.TID 0000.0001)                       0
(PID.TID 0000.0001)     ;
(PID.TID 0000.0001) momForcing =  /* Momentum forcing on/off flag */
(PID.TID 0000.0001)                   T
(PID.TID 0000.0001)     ;
(PID.TID 0000.0001) momPressureForcing =  /* Momentum pressure term on/off flag */
(PID.TID 0000.0001)                   T
(PID.TID 0000.0001)     ;
(PID.TID 0000.0001) implicitIntGravWave= /* Implicit Internal Gravity Wave flag */
(PID.TID 0000.0001)                   F
(PID.TID 0000.0001)     ;
(PID.TID 0000.0001) staggerTimeStep =   /* Stagger time stepping on/off flag */
(PID.TID 0000.0001)                   F
(PID.TID 0000.0001)     ;
(PID.TID 0000.0001) multiDimAdvection =   /* enable/disable Multi-Dim Advection */
(PID.TID 0000.0001)                   T
(PID.TID 0000.0001)     ;
(PID.TID 0000.0001) useMultiDimAdvec =   /* Multi-Dim Advection is/is-not used */
(PID.TID 0000.0001)                   F
(PID.TID 0000.0001)     ;
(PID.TID 0000.0001) implicitDiffusion =/* Implicit Diffusion on/off flag */
(PID.TID 0000.0001)                   T
(PID.TID 0000.0001)     ;
(PID.TID 0000.0001) tempStepping =  /* Temperature equation on/off flag */
(PID.TID 0000.0001)                   T
(PID.TID 0000.0001)     ;
(PID.TID 0000.0001) tempAdvection=  /* Temperature advection on/off flag */
(PID.TID 0000.0001)                   T
(PID.TID 0000.0001)     ;
(PID.TID 0000.0001) tempImplVertAdv =/* Temp. implicit vert. advection on/off */
(PID.TID 0000.0001)                   F
(PID.TID 0000.0001)     ;
(PID.TID 0000.0001) tempForcing  =  /* Temperature forcing on/off flag */
(PID.TID 0000.0001)                   T
(PID.TID 0000.0001)     ;
(PID.TID 0000.0001) saltStepping =  /* Salinity equation on/off flag */
(PID.TID 0000.0001)                   T
(PID.TID 0000.0001)     ;
(PID.TID 0000.0001) saltAdvection=  /* Salinity advection on/off flag */
(PID.TID 0000.0001)                   T
(PID.TID 0000.0001)     ;
(PID.TID 0000.0001) saltImplVertAdv =/* Sali. implicit vert. advection on/off */
(PID.TID 0000.0001)                   F
(PID.TID 0000.0001)     ;
(PID.TID 0000.0001) saltForcing  =  /* Salinity forcing on/off flag */
(PID.TID 0000.0001)                   T
(PID.TID 0000.0001)     ;
(PID.TID 0000.0001)  readBinaryPrec = /* Precision used for reading binary files */
(PID.TID 0000.0001)                      32
(PID.TID 0000.0001)     ;
(PID.TID 0000.0001) writeBinaryPrec = /* Precision used for writing binary files */
(PID.TID 0000.0001)                      32
(PID.TID 0000.0001)     ;
(PID.TID 0000.0001)  globalFiles = /* write "global" (=not per tile) files */
(PID.TID 0000.0001)                   F
(PID.TID 0000.0001)     ;
(PID.TID 0000.0001)  useSingleCpuIO = /* only master MPI process does I/O */
(PID.TID 0000.0001)                   F
(PID.TID 0000.0001)     ;
(PID.TID 0000.0001)  debugMode  =  /* Debug Mode on/off flag */
(PID.TID 0000.0001)                   F
(PID.TID 0000.0001)     ;
(PID.TID 0000.0001)    debLevA  =  /* 1rst level of debugging */
(PID.TID 0000.0001)                       1
(PID.TID 0000.0001)     ;
(PID.TID 0000.0001)    debLevB  =  /* 2nd  level of debugging */
(PID.TID 0000.0001)                       2
(PID.TID 0000.0001)     ;
(PID.TID 0000.0001)  debugLevel =  /* select debugging level */
(PID.TID 0000.0001)                       1
(PID.TID 0000.0001)     ;
(PID.TID 0000.0001) //
(PID.TID 0000.0001) // Elliptic solver(s) paramters ( PARM02 in namelist )
(PID.TID 0000.0001) //
(PID.TID 0000.0001) cg2dMaxIters =   /* Upper limit on 2d con. grad iterations  */
(PID.TID 0000.0001)                     500
(PID.TID 0000.0001)     ;
(PID.TID 0000.0001) cg2dChkResFreq =   /* 2d con. grad convergence test frequency */
(PID.TID 0000.0001)                       1
(PID.TID 0000.0001)     ;
(PID.TID 0000.0001) cg2dTargetResidual =   /* 2d con. grad target residual  */
(PID.TID 0000.0001)                 1.000000000000000E-13
(PID.TID 0000.0001)     ;
(PID.TID 0000.0001) cg2dTargetResWunit =   /* CG2d target residual [W units] */
(PID.TID 0000.0001)                -1.000000000000000E+00
(PID.TID 0000.0001)     ;
(PID.TID 0000.0001) cg2dPreCondFreq =   /* Freq. for updating cg2d preconditioner */
(PID.TID 0000.0001)                       1
(PID.TID 0000.0001)     ;
(PID.TID 0000.0001) //
(PID.TID 0000.0001) // Time stepping paramters ( PARM03 in namelist )
(PID.TID 0000.0001) //
(PID.TID 0000.0001) nIter0 =   /* Run starting timestep number  */
(PID.TID 0000.0001)                       0
(PID.TID 0000.0001)     ;
(PID.TID 0000.0001) nTimeSteps =   /* Number of timesteps */
(PID.TID 0000.0001)                      20
(PID.TID 0000.0001)     ;
(PID.TID 0000.0001) deltaTmom =   /* Momentum equation timestep ( s ) */
(PID.TID 0000.0001)                 1.200000000000000E+03
(PID.TID 0000.0001)     ;
(PID.TID 0000.0001) deltaTfreesurf =   /* FreeSurface equation timestep ( s ) */
(PID.TID 0000.0001)                 1.200000000000000E+03
(PID.TID 0000.0001)     ;
(PID.TID 0000.0001) dTtracerLev =   /* Tracer equation timestep ( s ) */
(PID.TID 0000.0001)    15 @  4.320000000000000E+04              /* K =  1: 15 */
(PID.TID 0000.0001)     ;
(PID.TID 0000.0001) deltaTClock  =   /* Model clock timestep ( s ) */
(PID.TID 0000.0001)                 4.320000000000000E+04
(PID.TID 0000.0001)     ;
(PID.TID 0000.0001) cAdjFreq =   /* Convective adjustment interval ( s ) */
(PID.TID 0000.0001)                 0.000000000000000E+00
(PID.TID 0000.0001)     ;
(PID.TID 0000.0001) momForcingOutAB = /* =1: take Momentum Forcing out of Adams-Bash. stepping */
(PID.TID 0000.0001)                       0
(PID.TID 0000.0001)     ;
(PID.TID 0000.0001) tracForcingOutAB = /* =1: take T,S,pTr Forcing out of Adams-Bash. stepping */
(PID.TID 0000.0001)                       0
(PID.TID 0000.0001)     ;
(PID.TID 0000.0001) momDissip_In_AB = /* put Dissipation Tendency in Adams-Bash. stepping */
(PID.TID 0000.0001)                   T
(PID.TID 0000.0001)     ;
(PID.TID 0000.0001) doAB_onGtGs = /* apply AB on Tendencies (rather than on T,S)*/
(PID.TID 0000.0001)                   T
(PID.TID 0000.0001)     ;
(PID.TID 0000.0001) abEps =   /* Adams-Bashforth-2 stabilizing weight */
(PID.TID 0000.0001)                 1.000000000000000E-01
(PID.TID 0000.0001)     ;
(PID.TID 0000.0001) tauCD =   /* CD coupling time-scale ( s ) */
(PID.TID 0000.0001)                 3.214280000000000E+05
(PID.TID 0000.0001)     ;
(PID.TID 0000.0001) rCD =   /* Normalised CD coupling parameter */
(PID.TID 0000.0001)                 9.962666600296178E-01
(PID.TID 0000.0001)     ;
(PID.TID 0000.0001) baseTime =   /* Model base time ( s ). */
(PID.TID 0000.0001)                 0.000000000000000E+00
(PID.TID 0000.0001)     ;
(PID.TID 0000.0001) startTime =   /* Run start time ( s ). */
(PID.TID 0000.0001)                 0.000000000000000E+00
(PID.TID 0000.0001)     ;
(PID.TID 0000.0001) endTime =   /* Integration ending time ( s ). */
(PID.TID 0000.0001)                 8.640000000000000E+05
(PID.TID 0000.0001)     ;
(PID.TID 0000.0001) pChkPtFreq =   /* Permanent restart/checkpoint file interval ( s ). */
(PID.TID 0000.0001)                 3.110400000000000E+08
(PID.TID 0000.0001)     ;
(PID.TID 0000.0001) chkPtFreq =   /* Rolling restart/checkpoint file interval ( s ). */
(PID.TID 0000.0001)                 0.000000000000000E+00
(PID.TID 0000.0001)     ;
(PID.TID 0000.0001) pickup_write_mdsio =   /* Model IO flag. */
(PID.TID 0000.0001)                   T
(PID.TID 0000.0001)     ;
(PID.TID 0000.0001) pickup_read_mdsio =   /* Model IO flag. */
(PID.TID 0000.0001)                   T
(PID.TID 0000.0001)     ;
(PID.TID 0000.0001) pickup_write_immed =   /* Model IO flag. */
(PID.TID 0000.0001)                   F
(PID.TID 0000.0001)     ;
(PID.TID 0000.0001) dumpFreq =   /* Model state write out interval ( s ). */
(PID.TID 0000.0001)                 8.640000000000000E+05
(PID.TID 0000.0001)     ;
(PID.TID 0000.0001) dumpInitAndLast= /* write out Initial & Last iter. model state */
(PID.TID 0000.0001)                   T
(PID.TID 0000.0001)     ;
(PID.TID 0000.0001) snapshot_mdsio =   /* Model IO flag. */
(PID.TID 0000.0001)                   T
(PID.TID 0000.0001)     ;
(PID.TID 0000.0001) monitorFreq =   /* Monitor output interval ( s ). */
(PID.TID 0000.0001)                 1.000000000000000E+00
(PID.TID 0000.0001)     ;
(PID.TID 0000.0001) monitor_stdio =   /* Model IO flag. */
(PID.TID 0000.0001)                   T
(PID.TID 0000.0001)     ;
(PID.TID 0000.0001) externForcingPeriod =   /* forcing period (s) */
(PID.TID 0000.0001)                 2.592000000000000E+06
(PID.TID 0000.0001)     ;
(PID.TID 0000.0001) externForcingCycle =   /* period of the cyle (s). */
(PID.TID 0000.0001)                 3.110400000000000E+07
(PID.TID 0000.0001)     ;
(PID.TID 0000.0001) tauThetaClimRelax =   /* relaxation time scale (s) */
(PID.TID 0000.0001)                 5.184000000000000E+06
(PID.TID 0000.0001)     ;
(PID.TID 0000.0001) tauSaltClimRelax =   /* relaxation time scale (s) */
(PID.TID 0000.0001)                 1.555200000000000E+07
(PID.TID 0000.0001)     ;
(PID.TID 0000.0001) latBandClimRelax =   /* max. Lat. where relaxation */
(PID.TID 0000.0001)                 1.800000000000000E+02
(PID.TID 0000.0001)     ;
(PID.TID 0000.0001) //
(PID.TID 0000.0001) // Gridding paramters ( PARM04 in namelist )
(PID.TID 0000.0001) //
(PID.TID 0000.0001) usingCartesianGrid = /* Cartesian coordinates flag ( True/False ) */
(PID.TID 0000.0001)                   F
(PID.TID 0000.0001)     ;
(PID.TID 0000.0001) usingCylindricalGrid = /* Cylindrical coordinates flag ( True/False ) */
(PID.TID 0000.0001)                   F
(PID.TID 0000.0001)     ;
(PID.TID 0000.0001) usingSphericalPolarGrid = /* Spherical coordinates flag ( True/False ) */
(PID.TID 0000.0001)                   T
(PID.TID 0000.0001)     ;
(PID.TID 0000.0001) usingCurvilinearGrid = /* Curvilinear coordinates flag ( True/False ) */
(PID.TID 0000.0001)                   F
(PID.TID 0000.0001)     ;
(PID.TID 0000.0001) Ro_SeaLevel = /* r(1) ( units of r ) */
(PID.TID 0000.0001)                 0.000000000000000E+00
(PID.TID 0000.0001)     ;
(PID.TID 0000.0001) rkSign =   /* index orientation relative to vertical coordinate */
(PID.TID 0000.0001)                -1.000000000000000E+00
(PID.TID 0000.0001)     ;
(PID.TID 0000.0001) gravitySign = /* gravity orientation relative to vertical coordinate */
(PID.TID 0000.0001)                -1.000000000000000E+00
(PID.TID 0000.0001)     ;
(PID.TID 0000.0001) horiVertRatio =   /* Ratio on units : Horiz - Vertical */
(PID.TID 0000.0001)                 1.000000000000000E+00
(PID.TID 0000.0001)     ;
(PID.TID 0000.0001) drC =   /* C spacing ( units of r ) */
(PID.TID 0000.0001)                 2.500000000000000E+01,      /* K =  1 */
(PID.TID 0000.0001)                 6.000000000000000E+01,      /* K =  2 */
(PID.TID 0000.0001)                 8.500000000000000E+01,      /* K =  3 */
(PID.TID 0000.0001)                 1.200000000000000E+02,      /* K =  4 */
(PID.TID 0000.0001)                 1.650000000000000E+02,      /* K =  5 */
(PID.TID 0000.0001)                 2.150000000000000E+02,      /* K =  6 */
(PID.TID 0000.0001)                 2.650000000000000E+02,      /* K =  7 */
(PID.TID 0000.0001)                 3.150000000000000E+02,      /* K =  8 */
(PID.TID 0000.0001)                 3.650000000000000E+02,      /* K =  9 */
(PID.TID 0000.0001)                 4.150000000000000E+02,      /* K = 10 */
(PID.TID 0000.0001)                 4.650000000000000E+02,      /* K = 11 */
(PID.TID 0000.0001)                 5.150000000000000E+02,      /* K = 12 */
(PID.TID 0000.0001)                 5.650000000000000E+02,      /* K = 13 */
(PID.TID 0000.0001)                 6.150000000000000E+02,      /* K = 14 */
(PID.TID 0000.0001)                 6.650000000000000E+02       /* K = 15 */
(PID.TID 0000.0001)     ;
(PID.TID 0000.0001) drF =   /* W spacing ( units of r ) */
(PID.TID 0000.0001)                 5.000000000000000E+01,      /* K =  1 */
(PID.TID 0000.0001)                 7.000000000000000E+01,      /* K =  2 */
(PID.TID 0000.0001)                 1.000000000000000E+02,      /* K =  3 */
(PID.TID 0000.0001)                 1.400000000000000E+02,      /* K =  4 */
(PID.TID 0000.0001)                 1.900000000000000E+02,      /* K =  5 */
(PID.TID 0000.0001)                 2.400000000000000E+02,      /* K =  6 */
(PID.TID 0000.0001)                 2.900000000000000E+02,      /* K =  7 */
(PID.TID 0000.0001)                 3.400000000000000E+02,      /* K =  8 */
(PID.TID 0000.0001)                 3.900000000000000E+02,      /* K =  9 */
(PID.TID 0000.0001)                 4.400000000000000E+02,      /* K = 10 */
(PID.TID 0000.0001)                 4.900000000000000E+02,      /* K = 11 */
(PID.TID 0000.0001)                 5.400000000000000E+02,      /* K = 12 */
(PID.TID 0000.0001)                 5.900000000000000E+02,      /* K = 13 */
(PID.TID 0000.0001)                 6.400000000000000E+02,      /* K = 14 */
(PID.TID 0000.0001)                 6.900000000000000E+02       /* K = 15 */
(PID.TID 0000.0001)     ;
(PID.TID 0000.0001) delX =   /* U spacing ( m - cartesian, degrees - spherical ) */
(PID.TID 0000.0001)    90 @  4.000000000000000E+00              /* I =  1: 90 */
(PID.TID 0000.0001)     ;
(PID.TID 0000.0001) delY =   /* V spacing ( m - cartesian, degrees - spherical ) */
(PID.TID 0000.0001)    40 @  4.000000000000000E+00              /* J =  1: 40 */
(PID.TID 0000.0001)     ;
(PID.TID 0000.0001) phiMin =    /* South edge (ignored - cartesian, degrees - spherical ) */
(PID.TID 0000.0001)                -8.000000000000000E+01
(PID.TID 0000.0001)     ;
(PID.TID 0000.0001) thetaMin =    /* West edge ( ignored - cartesian, degrees - spherical ) */
(PID.TID 0000.0001)                 0.000000000000000E+00
(PID.TID 0000.0001)     ;
(PID.TID 0000.0001) rSphere =  /* Radius ( ignored - cartesian, m - spherical ) */
(PID.TID 0000.0001)                 6.370000000000000E+06
(PID.TID 0000.0001)     ;
(PID.TID 0000.0001) deepAtmosphere = /* Deep/Shallow Atmosphere flag (True/False) */
(PID.TID 0000.0001)                   F
(PID.TID 0000.0001)     ;
(PID.TID 0000.0001) xcoord =   /* P-point X coord ( m - cartesian, degrees - spherical ) */
(PID.TID 0000.0001)                 2.000000000000000E+00,      /* I =  1 */
(PID.TID 0000.0001)                 6.000000000000000E+00,      /* I =  2 */
(PID.TID 0000.0001)                 1.000000000000000E+01,      /* I =  3 */
(PID.TID 0000.0001)                 1.400000000000000E+01,      /* I =  4 */
(PID.TID 0000.0001)                 1.800000000000000E+01,      /* I =  5 */
(PID.TID 0000.0001)                 2.200000000000000E+01,      /* I =  6 */
(PID.TID 0000.0001)                 2.600000000000000E+01,      /* I =  7 */
(PID.TID 0000.0001)                 3.000000000000000E+01,      /* I =  8 */
(PID.TID 0000.0001)                 3.400000000000000E+01,      /* I =  9 */
(PID.TID 0000.0001)                 3.800000000000000E+01,      /* I = 10 */
(PID.TID 0000.0001)                 4.200000000000000E+01,      /* I = 11 */
(PID.TID 0000.0001)                 4.600000000000000E+01,      /* I = 12 */
(PID.TID 0000.0001)                 5.000000000000000E+01,      /* I = 13 */
(PID.TID 0000.0001)                 5.400000000000000E+01,      /* I = 14 */
(PID.TID 0000.0001)                 5.800000000000000E+01,      /* I = 15 */
(PID.TID 0000.0001)                 6.200000000000000E+01,      /* I = 16 */
(PID.TID 0000.0001)                 6.600000000000000E+01,      /* I = 17 */
(PID.TID 0000.0001)                 7.000000000000000E+01,      /* I = 18 */
(PID.TID 0000.0001)                 7.400000000000000E+01,      /* I = 19 */
(PID.TID 0000.0001)                 7.800000000000000E+01,      /* I = 20 */
(PID.TID 0000.0001)                 8.200000000000000E+01,      /* I = 21 */
(PID.TID 0000.0001)                 8.600000000000000E+01,      /* I = 22 */
(PID.TID 0000.0001)                 9.000000000000000E+01,      /* I = 23 */
(PID.TID 0000.0001)                 9.400000000000000E+01,      /* I = 24 */
(PID.TID 0000.0001)                 9.800000000000000E+01,      /* I = 25 */
(PID.TID 0000.0001)                 1.020000000000000E+02,      /* I = 26 */
(PID.TID 0000.0001)                 1.060000000000000E+02,      /* I = 27 */
(PID.TID 0000.0001)                 1.100000000000000E+02,      /* I = 28 */
(PID.TID 0000.0001)                 1.140000000000000E+02,      /* I = 29 */
(PID.TID 0000.0001)                 1.180000000000000E+02,      /* I = 30 */
(PID.TID 0000.0001)                 1.220000000000000E+02,      /* I = 31 */
(PID.TID 0000.0001)                 1.260000000000000E+02,      /* I = 32 */
(PID.TID 0000.0001)                 1.300000000000000E+02,      /* I = 33 */
(PID.TID 0000.0001)                 1.340000000000000E+02,      /* I = 34 */
(PID.TID 0000.0001)                 1.380000000000000E+02,      /* I = 35 */
(PID.TID 0000.0001)                 1.420000000000000E+02,      /* I = 36 */
(PID.TID 0000.0001)                 1.460000000000000E+02,      /* I = 37 */
(PID.TID 0000.0001)                 1.500000000000000E+02,      /* I = 38 */
(PID.TID 0000.0001)                 1.540000000000000E+02,      /* I = 39 */
(PID.TID 0000.0001)                 1.580000000000000E+02,      /* I = 40 */
(PID.TID 0000.0001)                 1.620000000000000E+02,      /* I = 41 */
(PID.TID 0000.0001)                 1.660000000000000E+02,      /* I = 42 */
(PID.TID 0000.0001)                 1.700000000000000E+02,      /* I = 43 */
(PID.TID 0000.0001)                 1.740000000000000E+02,      /* I = 44 */
(PID.TID 0000.0001)                 1.780000000000000E+02,      /* I = 45 */
(PID.TID 0000.0001)                 1.820000000000000E+02,      /* I = 46 */
(PID.TID 0000.0001)                 1.860000000000000E+02,      /* I = 47 */
(PID.TID 0000.0001)                 1.900000000000000E+02,      /* I = 48 */
(PID.TID 0000.0001)                 1.940000000000000E+02,      /* I = 49 */
(PID.TID 0000.0001)                 1.980000000000000E+02,      /* I = 50 */
(PID.TID 0000.0001)                 2.020000000000000E+02,      /* I = 51 */
(PID.TID 0000.0001)                 2.060000000000000E+02,      /* I = 52 */
(PID.TID 0000.0001)                 2.100000000000000E+02,      /* I = 53 */
(PID.TID 0000.0001)                 2.140000000000000E+02,      /* I = 54 */
(PID.TID 0000.0001)                 2.180000000000000E+02,      /* I = 55 */
(PID.TID 0000.0001)                 2.220000000000000E+02,      /* I = 56 */
(PID.TID 0000.0001)                 2.260000000000000E+02,      /* I = 57 */
(PID.TID 0000.0001)                 2.300000000000000E+02,      /* I = 58 */
(PID.TID 0000.0001)                 2.340000000000000E+02,      /* I = 59 */
(PID.TID 0000.0001)                 2.380000000000000E+02,      /* I = 60 */
(PID.TID 0000.0001)                 2.420000000000000E+02,      /* I = 61 */
(PID.TID 0000.0001)                 2.460000000000000E+02,      /* I = 62 */
(PID.TID 0000.0001)                 2.500000000000000E+02,      /* I = 63 */
(PID.TID 0000.0001)                 2.540000000000000E+02,      /* I = 64 */
(PID.TID 0000.0001)                 2.580000000000000E+02,      /* I = 65 */
(PID.TID 0000.0001)                 2.620000000000000E+02,      /* I = 66 */
(PID.TID 0000.0001)                 2.660000000000000E+02,      /* I = 67 */
(PID.TID 0000.0001)                 2.700000000000000E+02,      /* I = 68 */
(PID.TID 0000.0001)                 2.740000000000000E+02,      /* I = 69 */
(PID.TID 0000.0001)                 2.780000000000000E+02,      /* I = 70 */
(PID.TID 0000.0001)                 2.820000000000000E+02,      /* I = 71 */
(PID.TID 0000.0001)                 2.860000000000000E+02,      /* I = 72 */
(PID.TID 0000.0001)                 2.900000000000000E+02,      /* I = 73 */
(PID.TID 0000.0001)                 2.940000000000000E+02,      /* I = 74 */
(PID.TID 0000.0001)                 2.980000000000000E+02,      /* I = 75 */
(PID.TID 0000.0001)                 3.020000000000000E+02,      /* I = 76 */
(PID.TID 0000.0001)                 3.060000000000000E+02,      /* I = 77 */
(PID.TID 0000.0001)                 3.100000000000000E+02,      /* I = 78 */
(PID.TID 0000.0001)                 3.140000000000000E+02,      /* I = 79 */
(PID.TID 0000.0001)                 3.180000000000000E+02,      /* I = 80 */
(PID.TID 0000.0001)                 3.220000000000000E+02,      /* I = 81 */
(PID.TID 0000.0001)                 3.260000000000000E+02,      /* I = 82 */
(PID.TID 0000.0001)                 3.300000000000000E+02,      /* I = 83 */
(PID.TID 0000.0001)                 3.340000000000000E+02,      /* I = 84 */
(PID.TID 0000.0001)                 3.380000000000000E+02,      /* I = 85 */
(PID.TID 0000.0001)                 3.420000000000000E+02,      /* I = 86 */
(PID.TID 0000.0001)                 3.460000000000000E+02,      /* I = 87 */
(PID.TID 0000.0001)                 3.500000000000000E+02,      /* I = 88 */
(PID.TID 0000.0001)                 3.540000000000000E+02,      /* I = 89 */
(PID.TID 0000.0001)                 3.580000000000000E+02       /* I = 90 */
(PID.TID 0000.0001)     ;
(PID.TID 0000.0001) ycoord =   /* P-point Y coord ( m - cartesian, degrees - spherical ) */
(PID.TID 0000.0001)                -7.800000000000000E+01,      /* J =  1 */
(PID.TID 0000.0001)                -7.400000000000000E+01,      /* J =  2 */
(PID.TID 0000.0001)                -7.000000000000000E+01,      /* J =  3 */
(PID.TID 0000.0001)                -6.600000000000000E+01,      /* J =  4 */
(PID.TID 0000.0001)                -6.200000000000000E+01,      /* J =  5 */
(PID.TID 0000.0001)                -5.800000000000000E+01,      /* J =  6 */
(PID.TID 0000.0001)                -5.400000000000000E+01,      /* J =  7 */
(PID.TID 0000.0001)                -5.000000000000000E+01,      /* J =  8 */
(PID.TID 0000.0001)                -4.600000000000000E+01,      /* J =  9 */
(PID.TID 0000.0001)                -4.200000000000000E+01,      /* J = 10 */
(PID.TID 0000.0001)                -3.800000000000000E+01,      /* J = 11 */
(PID.TID 0000.0001)                -3.400000000000000E+01,      /* J = 12 */
(PID.TID 0000.0001)                -3.000000000000000E+01,      /* J = 13 */
(PID.TID 0000.0001)                -2.600000000000000E+01,      /* J = 14 */
(PID.TID 0000.0001)                -2.200000000000000E+01,      /* J = 15 */
(PID.TID 0000.0001)                -1.800000000000000E+01,      /* J = 16 */
(PID.TID 0000.0001)                -1.400000000000000E+01,      /* J = 17 */
(PID.TID 0000.0001)                -1.000000000000000E+01,      /* J = 18 */
(PID.TID 0000.0001)                -6.000000000000000E+00,      /* J = 19 */
(PID.TID 0000.0001)                -2.000000000000000E+00,      /* J = 20 */
(PID.TID 0000.0001)                 2.000000000000000E+00,      /* J = 21 */
(PID.TID 0000.0001)                 6.000000000000000E+00,      /* J = 22 */
(PID.TID 0000.0001)                 1.000000000000000E+01,      /* J = 23 */
(PID.TID 0000.0001)                 1.400000000000000E+01,      /* J = 24 */
(PID.TID 0000.0001)                 1.800000000000000E+01,      /* J = 25 */
(PID.TID 0000.0001)                 2.200000000000000E+01,      /* J = 26 */
(PID.TID 0000.0001)                 2.600000000000000E+01,      /* J = 27 */
(PID.TID 0000.0001)                 3.000000000000000E+01,      /* J = 28 */
(PID.TID 0000.0001)                 3.400000000000000E+01,      /* J = 29 */
(PID.TID 0000.0001)                 3.800000000000000E+01,      /* J = 30 */
(PID.TID 0000.0001)                 4.200000000000000E+01,      /* J = 31 */
(PID.TID 0000.0001)                 4.600000000000000E+01,      /* J = 32 */
(PID.TID 0000.0001)                 5.000000000000000E+01,      /* J = 33 */
(PID.TID 0000.0001)                 5.400000000000000E+01,      /* J = 34 */
(PID.TID 0000.0001)                 5.800000000000000E+01,      /* J = 35 */
(PID.TID 0000.0001)                 6.200000000000000E+01,      /* J = 36 */
(PID.TID 0000.0001)                 6.600000000000000E+01,      /* J = 37 */
(PID.TID 0000.0001)                 7.000000000000000E+01,      /* J = 38 */
(PID.TID 0000.0001)                 7.400000000000000E+01,      /* J = 39 */
(PID.TID 0000.0001)                 7.800000000000000E+01       /* J = 40 */
(PID.TID 0000.0001)     ;
(PID.TID 0000.0001) rcoord =   /* P-point R coordinate (  units of r ) */
(PID.TID 0000.0001)                -2.500000000000000E+01,      /* K =  1 */
(PID.TID 0000.0001)                -8.500000000000000E+01,      /* K =  2 */
(PID.TID 0000.0001)                -1.700000000000000E+02,      /* K =  3 */
(PID.TID 0000.0001)                -2.900000000000000E+02,      /* K =  4 */
(PID.TID 0000.0001)                -4.550000000000000E+02,      /* K =  5 */
(PID.TID 0000.0001)                -6.700000000000000E+02,      /* K =  6 */
(PID.TID 0000.0001)                -9.350000000000000E+02,      /* K =  7 */
(PID.TID 0000.0001)                -1.250000000000000E+03,      /* K =  8 */
(PID.TID 0000.0001)                -1.615000000000000E+03,      /* K =  9 */
(PID.TID 0000.0001)                -2.030000000000000E+03,      /* K = 10 */
(PID.TID 0000.0001)                -2.495000000000000E+03,      /* K = 11 */
(PID.TID 0000.0001)                -3.010000000000000E+03,      /* K = 12 */
(PID.TID 0000.0001)                -3.575000000000000E+03,      /* K = 13 */
(PID.TID 0000.0001)                -4.190000000000000E+03,      /* K = 14 */
(PID.TID 0000.0001)                -4.855000000000000E+03       /* K = 15 */
(PID.TID 0000.0001)     ;
(PID.TID 0000.0001) rF =   /* W-Interf. R coordinate (  units of r ) */
(PID.TID 0000.0001)                 0.000000000000000E+00,      /* K =  1 */
(PID.TID 0000.0001)                -5.000000000000000E+01,      /* K =  2 */
(PID.TID 0000.0001)                -1.200000000000000E+02,      /* K =  3 */
(PID.TID 0000.0001)                -2.200000000000000E+02,      /* K =  4 */
(PID.TID 0000.0001)                -3.600000000000000E+02,      /* K =  5 */
(PID.TID 0000.0001)                -5.500000000000000E+02,      /* K =  6 */
(PID.TID 0000.0001)                -7.900000000000000E+02,      /* K =  7 */
(PID.TID 0000.0001)                -1.080000000000000E+03,      /* K =  8 */
(PID.TID 0000.0001)                -1.420000000000000E+03,      /* K =  9 */
(PID.TID 0000.0001)                -1.810000000000000E+03,      /* K = 10 */
(PID.TID 0000.0001)                -2.250000000000000E+03,      /* K = 11 */
(PID.TID 0000.0001)                -2.740000000000000E+03,      /* K = 12 */
(PID.TID 0000.0001)                -3.280000000000000E+03,      /* K = 13 */
(PID.TID 0000.0001)                -3.870000000000000E+03,      /* K = 14 */
(PID.TID 0000.0001)                -4.510000000000000E+03,      /* K = 15 */
(PID.TID 0000.0001)                -5.200000000000000E+03       /* K = 16 */
(PID.TID 0000.0001)     ;
(PID.TID 0000.0001) deepFacC = /* deep-model grid factor @ cell-Center (-) */
(PID.TID 0000.0001)    15 @  1.000000000000000E+00              /* K =  1: 15 */
(PID.TID 0000.0001)     ;
(PID.TID 0000.0001) deepFacF = /* deep-model grid factor @ W-Interface (-) */
(PID.TID 0000.0001)    16 @  1.000000000000000E+00              /* K =  1: 16 */
(PID.TID 0000.0001)     ;
(PID.TID 0000.0001) rVel2wUnit = /* convert units: rVel -> wSpeed (=1 if z-coord)*/
(PID.TID 0000.0001)    16 @  1.000000000000000E+00              /* K =  1: 16 */
(PID.TID 0000.0001)     ;
(PID.TID 0000.0001) wUnit2rVel = /* convert units: wSpeed -> rVel (=1 if z-coord)*/
(PID.TID 0000.0001)    16 @  1.000000000000000E+00              /* K =  1: 16 */
(PID.TID 0000.0001)     ;
(PID.TID 0000.0001) dBdrRef = /* Vertical gradient of reference boyancy [(m/s/r)^2)] */
(PID.TID 0000.0001)    15 @  0.000000000000000E+00              /* K =  1: 15 */
(PID.TID 0000.0001)     ;
(PID.TID 0000.0001) dxF =  /* dxF(:,1,:,1) ( units: m ) */
(PID.TID 0000.0001)    90 @  9.246038586187513E+04              /* I =  1: 90 */
(PID.TID 0000.0001)     ;
(PID.TID 0000.0001) dxF =  /* dxF(1,:,1,:) ( units: m ) */
(PID.TID 0000.0001)                 9.246038586187513E+04,      /* J =  1 */
(PID.TID 0000.0001)                 1.225786591246834E+05,      /* J =  2 */
(PID.TID 0000.0001)                 1.520997414818001E+05,      /* J =  3 */
(PID.TID 0000.0001)                 1.808798091874300E+05,      /* J =  4 */
(PID.TID 0000.0001)                 2.087786486446736E+05,      /* J =  5 */
(PID.TID 0000.0001)                 2.356603395120765E+05,      /* J =  6 */
(PID.TID 0000.0001)                 2.613939168938713E+05,      /* J =  7 */
(PID.TID 0000.0001)                 2.858540093877838E+05,      /* J =  8 */
(PID.TID 0000.0001)                 3.089214498819034E+05,      /* J =  9 */
(PID.TID 0000.0001)                 3.304838561248741E+05,      /* J = 10 */
(PID.TID 0000.0001)                 3.504361782409254E+05,      /* J = 11 */
(PID.TID 0000.0001)                 3.686812105223082E+05,      /* J = 12 */
(PID.TID 0000.0001)                 3.851300650057323E+05,      /* J = 13 */
(PID.TID 0000.0001)                 3.997026045255871E+05,      /* J = 14 */
(PID.TID 0000.0001)                 4.123278331341585E+05,      /* J = 15 */
(PID.TID 0000.0001)                 4.229442419867491E+05,      /* J = 16 */
(PID.TID 0000.0001)                 4.315001090065870E+05,      /* J = 17 */
(PID.TID 0000.0001)                 4.379537508695838E+05,      /* J = 18 */
(PID.TID 0000.0001)                 4.422737260813012E+05,      /* J = 19 */
(PID.TID 0000.0001)     2 @  4.444389881567502E+05,             /* J = 20: 21 */
(PID.TID 0000.0001)                 4.422737260813012E+05,      /* J = 22 */
(PID.TID 0000.0001)                 4.379537508695838E+05,      /* J = 23 */
(PID.TID 0000.0001)                 4.315001090065870E+05,      /* J = 24 */
(PID.TID 0000.0001)                 4.229442419867491E+05,      /* J = 25 */
(PID.TID 0000.0001)                 4.123278331341585E+05,      /* J = 26 */
(PID.TID 0000.0001)                 3.997026045255871E+05,      /* J = 27 */
(PID.TID 0000.0001)                 3.851300650057323E+05,      /* J = 28 */
(PID.TID 0000.0001)                 3.686812105223082E+05,      /* J = 29 */
(PID.TID 0000.0001)                 3.504361782409254E+05,      /* J = 30 */
(PID.TID 0000.0001)                 3.304838561248741E+05,      /* J = 31 */
(PID.TID 0000.0001)                 3.089214498819034E+05,      /* J = 32 */
(PID.TID 0000.0001)                 2.858540093877838E+05,      /* J = 33 */
(PID.TID 0000.0001)                 2.613939168938713E+05,      /* J = 34 */
(PID.TID 0000.0001)                 2.356603395120765E+05,      /* J = 35 */
(PID.TID 0000.0001)                 2.087786486446736E+05,      /* J = 36 */
(PID.TID 0000.0001)                 1.808798091874300E+05,      /* J = 37 */
(PID.TID 0000.0001)                 1.520997414818001E+05,      /* J = 38 */
(PID.TID 0000.0001)                 1.225786591246834E+05,      /* J = 39 */
(PID.TID 0000.0001)                 9.246038586187513E+04       /* J = 40 */
(PID.TID 0000.0001)     ;
(PID.TID 0000.0001) dyF =  /* dyF(:,1,:,1) ( units: m ) */
(PID.TID 0000.0001)    90 @  4.447098934081552E+05              /* I =  1: 90 */
(PID.TID 0000.0001)     ;
(PID.TID 0000.0001) dyF =  /* dyF(1,:,1,:) ( units: m ) */
(PID.TID 0000.0001)    40 @  4.447098934081552E+05              /* J =  1: 40 */
(PID.TID 0000.0001)     ;
(PID.TID 0000.0001) dxG =  /* dxG(:,1,:,1) ( units: m ) */
(PID.TID 0000.0001)    90 @  7.722306258078101E+04              /* I =  1: 90 */
(PID.TID 0000.0001)     ;
(PID.TID 0000.0001) dxG =  /* dxG(1,:,1,:) ( units: m ) */
(PID.TID 0000.0001)                 7.722306258078101E+04,      /* J =  1 */
(PID.TID 0000.0001)                 1.075850604052271E+05,      /* J =  2 */
(PID.TID 0000.0001)                 1.374229146297914E+05,      /* J =  3 */
(PID.TID 0000.0001)                 1.665912582279823E+05,      /* J =  4 */
(PID.TID 0000.0001)                 1.949479859617814E+05,      /* J =  5 */
(PID.TID 0000.0001)                 2.223549467040777E+05,      /* J =  6 */
(PID.TID 0000.0001)                 2.486786164970726E+05,      /* J =  7 */
(PID.TID 0000.0001)                 2.737907490675810E+05,      /* J =  8 */
(PID.TID 0000.0001)                 2.975690006299821E+05,      /* J =  9 */
(PID.TID 0000.0001)                 3.198975259328452E+05,      /* J = 10 */
(PID.TID 0000.0001)                 3.406675426453503E+05,      /* J = 11 */
(PID.TID 0000.0001)                 3.597778613338690E+05,      /* J = 12 */
(PID.TID 0000.0001)                 3.771353784467131E+05,      /* J = 13 */
(PID.TID 0000.0001)                 3.926555299052806E+05,      /* J = 14 */
(PID.TID 0000.0001)                 4.062627030917454E+05,      /* J = 15 */
(PID.TID 0000.0001)                 4.178906052261313E+05,      /* J = 16 */
(PID.TID 0000.0001)                 4.274825863380723E+05,      /* J = 17 */
(PID.TID 0000.0001)                 4.349919152597734E+05,      /* J = 18 */
(PID.TID 0000.0001)                 4.403820072955634E+05,      /* J = 19 */
(PID.TID 0000.0001)                 4.436266024588540E+05,      /* J = 20 */
(PID.TID 0000.0001)                 4.447098934081552E+05,      /* J = 21 */
(PID.TID 0000.0001)                 4.436266024588540E+05,      /* J = 22 */
(PID.TID 0000.0001)                 4.403820072955634E+05,      /* J = 23 */
(PID.TID 0000.0001)                 4.349919152597734E+05,      /* J = 24 */
(PID.TID 0000.0001)                 4.274825863380723E+05,      /* J = 25 */
(PID.TID 0000.0001)                 4.178906052261313E+05,      /* J = 26 */
(PID.TID 0000.0001)                 4.062627030917454E+05,      /* J = 27 */
(PID.TID 0000.0001)                 3.926555299052806E+05,      /* J = 28 */
(PID.TID 0000.0001)                 3.771353784467131E+05,      /* J = 29 */
(PID.TID 0000.0001)                 3.597778613338690E+05,      /* J = 30 */
(PID.TID 0000.0001)                 3.406675426453503E+05,      /* J = 31 */
(PID.TID 0000.0001)                 3.198975259328452E+05,      /* J = 32 */
(PID.TID 0000.0001)                 2.975690006299821E+05,      /* J = 33 */
(PID.TID 0000.0001)                 2.737907490675810E+05,      /* J = 34 */
(PID.TID 0000.0001)                 2.486786164970726E+05,      /* J = 35 */
(PID.TID 0000.0001)                 2.223549467040777E+05,      /* J = 36 */
(PID.TID 0000.0001)                 1.949479859617814E+05,      /* J = 37 */
(PID.TID 0000.0001)                 1.665912582279823E+05,      /* J = 38 */
(PID.TID 0000.0001)                 1.374229146297914E+05,      /* J = 39 */
(PID.TID 0000.0001)                 1.075850604052271E+05       /* J = 40 */
(PID.TID 0000.0001)     ;
(PID.TID 0000.0001) dyG =  /* dyG(:,1,:,1) ( units: m ) */
(PID.TID 0000.0001)    90 @  4.447098934081552E+05              /* I =  1: 90 */
(PID.TID 0000.0001)     ;
(PID.TID 0000.0001) dyG =  /* dyG(1,:,1,:) ( units: m ) */
(PID.TID 0000.0001)    40 @  4.447098934081552E+05              /* J =  1: 40 */
(PID.TID 0000.0001)     ;
(PID.TID 0000.0001) dxC =  /* dxC(:,1,:,1) ( units: m ) */
(PID.TID 0000.0001)    90 @  9.246038586187513E+04              /* I =  1: 90 */
(PID.TID 0000.0001)     ;
(PID.TID 0000.0001) dxC =  /* dxC(1,:,1,:) ( units: m ) */
(PID.TID 0000.0001)                 9.246038586187513E+04,      /* J =  1 */
(PID.TID 0000.0001)                 1.225786591246834E+05,      /* J =  2 */
(PID.TID 0000.0001)                 1.520997414818001E+05,      /* J =  3 */
(PID.TID 0000.0001)                 1.808798091874300E+05,      /* J =  4 */
(PID.TID 0000.0001)                 2.087786486446736E+05,      /* J =  5 */
(PID.TID 0000.0001)                 2.356603395120765E+05,      /* J =  6 */
(PID.TID 0000.0001)                 2.613939168938713E+05,      /* J =  7 */
(PID.TID 0000.0001)                 2.858540093877838E+05,      /* J =  8 */
(PID.TID 0000.0001)                 3.089214498819034E+05,      /* J =  9 */
(PID.TID 0000.0001)                 3.304838561248741E+05,      /* J = 10 */
(PID.TID 0000.0001)                 3.504361782409254E+05,      /* J = 11 */
(PID.TID 0000.0001)                 3.686812105223082E+05,      /* J = 12 */
(PID.TID 0000.0001)                 3.851300650057323E+05,      /* J = 13 */
(PID.TID 0000.0001)                 3.997026045255871E+05,      /* J = 14 */
(PID.TID 0000.0001)                 4.123278331341585E+05,      /* J = 15 */
(PID.TID 0000.0001)                 4.229442419867491E+05,      /* J = 16 */
(PID.TID 0000.0001)                 4.315001090065870E+05,      /* J = 17 */
(PID.TID 0000.0001)                 4.379537508695838E+05,      /* J = 18 */
(PID.TID 0000.0001)                 4.422737260813012E+05,      /* J = 19 */
(PID.TID 0000.0001)     2 @  4.444389881567502E+05,             /* J = 20: 21 */
(PID.TID 0000.0001)                 4.422737260813012E+05,      /* J = 22 */
(PID.TID 0000.0001)                 4.379537508695838E+05,      /* J = 23 */
(PID.TID 0000.0001)                 4.315001090065870E+05,      /* J = 24 */
(PID.TID 0000.0001)                 4.229442419867491E+05,      /* J = 25 */
(PID.TID 0000.0001)                 4.123278331341585E+05,      /* J = 26 */
(PID.TID 0000.0001)                 3.997026045255871E+05,      /* J = 27 */
(PID.TID 0000.0001)                 3.851300650057323E+05,      /* J = 28 */
(PID.TID 0000.0001)                 3.686812105223082E+05,      /* J = 29 */
(PID.TID 0000.0001)                 3.504361782409254E+05,      /* J = 30 */
(PID.TID 0000.0001)                 3.304838561248741E+05,      /* J = 31 */
(PID.TID 0000.0001)                 3.089214498819034E+05,      /* J = 32 */
(PID.TID 0000.0001)                 2.858540093877838E+05,      /* J = 33 */
(PID.TID 0000.0001)                 2.613939168938713E+05,      /* J = 34 */
(PID.TID 0000.0001)                 2.356603395120765E+05,      /* J = 35 */
(PID.TID 0000.0001)                 2.087786486446736E+05,      /* J = 36 */
(PID.TID 0000.0001)                 1.808798091874300E+05,      /* J = 37 */
(PID.TID 0000.0001)                 1.520997414818001E+05,      /* J = 38 */
(PID.TID 0000.0001)                 1.225786591246834E+05,      /* J = 39 */
(PID.TID 0000.0001)                 9.246038586187513E+04       /* J = 40 */
(PID.TID 0000.0001)     ;
(PID.TID 0000.0001) dyC =  /* dyC(:,1,:,1) ( units: m ) */
(PID.TID 0000.0001)    90 @  4.447098934081552E+05              /* I =  1: 90 */
(PID.TID 0000.0001)     ;
(PID.TID 0000.0001) dyC =  /* dyC(1,:,1,:) ( units: m ) */
(PID.TID 0000.0001)    40 @  4.447098934081552E+05              /* J =  1: 40 */
(PID.TID 0000.0001)     ;
(PID.TID 0000.0001) dxV =  /* dxV(:,1,:,1) ( units: m ) */
(PID.TID 0000.0001)    90 @  7.722306258078101E+04              /* I =  1: 90 */
(PID.TID 0000.0001)     ;
(PID.TID 0000.0001) dxV =  /* dxV(1,:,1,:) ( units: m ) */
(PID.TID 0000.0001)                 7.722306258078101E+04,      /* J =  1 */
(PID.TID 0000.0001)                 1.075850604052271E+05,      /* J =  2 */
(PID.TID 0000.0001)                 1.374229146297914E+05,      /* J =  3 */
(PID.TID 0000.0001)                 1.665912582279823E+05,      /* J =  4 */
(PID.TID 0000.0001)                 1.949479859617814E+05,      /* J =  5 */
(PID.TID 0000.0001)                 2.223549467040777E+05,      /* J =  6 */
(PID.TID 0000.0001)                 2.486786164970726E+05,      /* J =  7 */
(PID.TID 0000.0001)                 2.737907490675810E+05,      /* J =  8 */
(PID.TID 0000.0001)                 2.975690006299821E+05,      /* J =  9 */
(PID.TID 0000.0001)                 3.198975259328452E+05,      /* J = 10 */
(PID.TID 0000.0001)                 3.406675426453503E+05,      /* J = 11 */
(PID.TID 0000.0001)                 3.597778613338690E+05,      /* J = 12 */
(PID.TID 0000.0001)                 3.771353784467131E+05,      /* J = 13 */
(PID.TID 0000.0001)                 3.926555299052806E+05,      /* J = 14 */
(PID.TID 0000.0001)                 4.062627030917454E+05,      /* J = 15 */
(PID.TID 0000.0001)                 4.178906052261313E+05,      /* J = 16 */
(PID.TID 0000.0001)                 4.274825863380723E+05,      /* J = 17 */
(PID.TID 0000.0001)                 4.349919152597734E+05,      /* J = 18 */
(PID.TID 0000.0001)                 4.403820072955634E+05,      /* J = 19 */
(PID.TID 0000.0001)                 4.436266024588540E+05,      /* J = 20 */
(PID.TID 0000.0001)                 4.447098934081552E+05,      /* J = 21 */
(PID.TID 0000.0001)                 4.436266024588540E+05,      /* J = 22 */
(PID.TID 0000.0001)                 4.403820072955634E+05,      /* J = 23 */
(PID.TID 0000.0001)                 4.349919152597734E+05,      /* J = 24 */
(PID.TID 0000.0001)                 4.274825863380723E+05,      /* J = 25 */
(PID.TID 0000.0001)                 4.178906052261313E+05,      /* J = 26 */
(PID.TID 0000.0001)                 4.062627030917454E+05,      /* J = 27 */
(PID.TID 0000.0001)                 3.926555299052806E+05,      /* J = 28 */
(PID.TID 0000.0001)                 3.771353784467131E+05,      /* J = 29 */
(PID.TID 0000.0001)                 3.597778613338690E+05,      /* J = 30 */
(PID.TID 0000.0001)                 3.406675426453503E+05,      /* J = 31 */
(PID.TID 0000.0001)                 3.198975259328452E+05,      /* J = 32 */
(PID.TID 0000.0001)                 2.975690006299821E+05,      /* J = 33 */
(PID.TID 0000.0001)                 2.737907490675810E+05,      /* J = 34 */
(PID.TID 0000.0001)                 2.486786164970726E+05,      /* J = 35 */
(PID.TID 0000.0001)                 2.223549467040777E+05,      /* J = 36 */
(PID.TID 0000.0001)                 1.949479859617814E+05,      /* J = 37 */
(PID.TID 0000.0001)                 1.665912582279823E+05,      /* J = 38 */
(PID.TID 0000.0001)                 1.374229146297914E+05,      /* J = 39 */
(PID.TID 0000.0001)                 1.075850604052271E+05       /* J = 40 */
(PID.TID 0000.0001)     ;
(PID.TID 0000.0001) dyU =  /* dyU(:,1,:,1) ( units: m ) */
(PID.TID 0000.0001)    90 @  4.447098934081552E+05              /* I =  1: 90 */
(PID.TID 0000.0001)     ;
(PID.TID 0000.0001) dyU =  /* dyU(1,:,1,:) ( units: m ) */
(PID.TID 0000.0001)    40 @  4.447098934081552E+05              /* J =  1: 40 */
(PID.TID 0000.0001)     ;
(PID.TID 0000.0001) rA  =  /* rA (:,1,:,1) ( units: m^2 ) */
(PID.TID 0000.0001)    90 @  4.110969866729047E+10              /* I =  1: 90 */
(PID.TID 0000.0001)     ;
(PID.TID 0000.0001) rA  =  /* rA (1,:,1,:) ( units: m^2 ) */
(PID.TID 0000.0001)                 4.110969866729047E+10,      /* J =  1 */
(PID.TID 0000.0001)                 5.450087291636665E+10,      /* J =  2 */
(PID.TID 0000.0001)                 6.762652439100235E+10,      /* J =  3 */
(PID.TID 0000.0001)                 8.042270623659998E+10,      /* J =  4 */
(PID.TID 0000.0001)                 9.282707674147523E+10,      /* J =  5 */
(PID.TID 0000.0001)                 1.047792030594103E+11,      /* J =  6 */
(PID.TID 0000.0001)                 1.162208556324093E+11,      /* J =  7 */
(PID.TID 0000.0001)                 1.270962918792468E+11,      /* J =  8 */
(PID.TID 0000.0001)                 1.373525277677229E+11,      /* J =  9 */
(PID.TID 0000.0001)                 1.469395959475426E+11,      /* J = 10 */
(PID.TID 0000.0001)                 1.558107891862220E+11,      /* J = 11 */
(PID.TID 0000.0001)                 1.639228879220326E+11,      /* J = 12 */
(PID.TID 0000.0001)                 1.712363708253573E+11,      /* J = 13 */
(PID.TID 0000.0001)                 1.777156073426415E+11,      /* J = 14 */
(PID.TID 0000.0001)                 1.833290312848623E+11,      /* J = 15 */
(PID.TID 0000.0001)                 1.880492946148330E+11,      /* J = 16 */
(PID.TID 0000.0001)                 1.918534006840893E+11,      /* J = 17 */
(PID.TID 0000.0001)                 1.947228162702492E+11,      /* J = 18 */
(PID.TID 0000.0001)                 1.966435618690094E+11,      /* J = 19 */
(PID.TID 0000.0001)     2 @  1.976062798008856E+11,             /* J = 20: 21 */
(PID.TID 0000.0001)                 1.966435618690094E+11,      /* J = 22 */
(PID.TID 0000.0001)                 1.947228162702492E+11,      /* J = 23 */
(PID.TID 0000.0001)                 1.918534006840893E+11,      /* J = 24 */
(PID.TID 0000.0001)                 1.880492946148330E+11,      /* J = 25 */
(PID.TID 0000.0001)                 1.833290312848623E+11,      /* J = 26 */
(PID.TID 0000.0001)                 1.777156073426415E+11,      /* J = 27 */
(PID.TID 0000.0001)                 1.712363708253573E+11,      /* J = 28 */
(PID.TID 0000.0001)                 1.639228879220326E+11,      /* J = 29 */
(PID.TID 0000.0001)                 1.558107891862220E+11,      /* J = 30 */
(PID.TID 0000.0001)                 1.469395959475426E+11,      /* J = 31 */
(PID.TID 0000.0001)                 1.373525277677229E+11,      /* J = 32 */
(PID.TID 0000.0001)                 1.270962918792468E+11,      /* J = 33 */
(PID.TID 0000.0001)                 1.162208556324093E+11,      /* J = 34 */
(PID.TID 0000.0001)                 1.047792030594103E+11,      /* J = 35 */
(PID.TID 0000.0001)                 9.282707674147523E+10,      /* J = 36 */
(PID.TID 0000.0001)                 8.042270623659998E+10,      /* J = 37 */
(PID.TID 0000.0001)                 6.762652439100235E+10,      /* J = 38 */
(PID.TID 0000.0001)                 5.450087291636665E+10,      /* J = 39 */
(PID.TID 0000.0001)                 4.110969866729047E+10       /* J = 40 */
(PID.TID 0000.0001)     ;
(PID.TID 0000.0001) rAw =  /* rAw(:,1,:,1) ( units: m^2 ) */
(PID.TID 0000.0001)    90 @  4.110969866729047E+10              /* I =  1: 90 */
(PID.TID 0000.0001)     ;
(PID.TID 0000.0001) rAw =  /* rAw(1,:,1,:) ( units: m^2 ) */
(PID.TID 0000.0001)                 4.110969866729047E+10,      /* J =  1 */
(PID.TID 0000.0001)                 5.450087291636665E+10,      /* J =  2 */
(PID.TID 0000.0001)                 6.762652439100235E+10,      /* J =  3 */
(PID.TID 0000.0001)                 8.042270623659998E+10,      /* J =  4 */
(PID.TID 0000.0001)                 9.282707674147523E+10,      /* J =  5 */
(PID.TID 0000.0001)                 1.047792030594103E+11,      /* J =  6 */
(PID.TID 0000.0001)                 1.162208556324093E+11,      /* J =  7 */
(PID.TID 0000.0001)                 1.270962918792468E+11,      /* J =  8 */
(PID.TID 0000.0001)                 1.373525277677229E+11,      /* J =  9 */
(PID.TID 0000.0001)                 1.469395959475426E+11,      /* J = 10 */
(PID.TID 0000.0001)                 1.558107891862220E+11,      /* J = 11 */
(PID.TID 0000.0001)                 1.639228879220326E+11,      /* J = 12 */
(PID.TID 0000.0001)                 1.712363708253573E+11,      /* J = 13 */
(PID.TID 0000.0001)                 1.777156073426415E+11,      /* J = 14 */
(PID.TID 0000.0001)                 1.833290312848623E+11,      /* J = 15 */
(PID.TID 0000.0001)                 1.880492946148330E+11,      /* J = 16 */
(PID.TID 0000.0001)                 1.918534006840893E+11,      /* J = 17 */
(PID.TID 0000.0001)                 1.947228162702492E+11,      /* J = 18 */
(PID.TID 0000.0001)                 1.966435618690094E+11,      /* J = 19 */
(PID.TID 0000.0001)     2 @  1.976062798008856E+11,             /* J = 20: 21 */
(PID.TID 0000.0001)                 1.966435618690094E+11,      /* J = 22 */
(PID.TID 0000.0001)                 1.947228162702492E+11,      /* J = 23 */
(PID.TID 0000.0001)                 1.918534006840893E+11,      /* J = 24 */
(PID.TID 0000.0001)                 1.880492946148330E+11,      /* J = 25 */
(PID.TID 0000.0001)                 1.833290312848623E+11,      /* J = 26 */
(PID.TID 0000.0001)                 1.777156073426415E+11,      /* J = 27 */
(PID.TID 0000.0001)                 1.712363708253573E+11,      /* J = 28 */
(PID.TID 0000.0001)                 1.639228879220326E+11,      /* J = 29 */
(PID.TID 0000.0001)                 1.558107891862220E+11,      /* J = 30 */
(PID.TID 0000.0001)                 1.469395959475426E+11,      /* J = 31 */
(PID.TID 0000.0001)                 1.373525277677229E+11,      /* J = 32 */
(PID.TID 0000.0001)                 1.270962918792468E+11,      /* J = 33 */
(PID.TID 0000.0001)                 1.162208556324093E+11,      /* J = 34 */
(PID.TID 0000.0001)                 1.047792030594103E+11,      /* J = 35 */
(PID.TID 0000.0001)                 9.282707674147523E+10,      /* J = 36 */
(PID.TID 0000.0001)                 8.042270623659998E+10,      /* J = 37 */
(PID.TID 0000.0001)                 6.762652439100235E+10,      /* J = 38 */
(PID.TID 0000.0001)                 5.450087291636665E+10,      /* J = 39 */
(PID.TID 0000.0001)                 4.110969866729047E+10       /* J = 40 */
(PID.TID 0000.0001)     ;
(PID.TID 0000.0001) rAs =  /* rAs(:,1,:,1) ( units: m^2 ) */
(PID.TID 0000.0001)    90 @  3.433488626798250E+10              /* I =  1: 90 */
(PID.TID 0000.0001)     ;
(PID.TID 0000.0001) rAs =  /* rAs(1,:,1,:) ( units: m^2 ) */
(PID.TID 0000.0001)                 3.433488626798250E+10,      /* J =  1 */
(PID.TID 0000.0001)                 4.783442523123625E+10,      /* J =  2 */
(PID.TID 0000.0001)                 6.110091968306414E+10,      /* J =  3 */
(PID.TID 0000.0001)                 7.406973659603818E+10,      /* J =  4 */
(PID.TID 0000.0001)                 8.667769319778079E+10,      /* J =  5 */
(PID.TID 0000.0001)                 9.886336479107463E+10,      /* J =  6 */
(PID.TID 0000.0001)                 1.105673840088173E+11,      /* J =  7 */
(PID.TID 0000.0001)                 1.217327300458638E+11,      /* J =  8 */
(PID.TID 0000.0001)                 1.323050064586578E+11,      /* J =  9 */
(PID.TID 0000.0001)                 1.422327061792377E+11,      /* J = 10 */
(PID.TID 0000.0001)                 1.514674624524945E+11,      /* J = 11 */
(PID.TID 0000.0001)                 1.599642844741385E+11,      /* J = 12 */
(PID.TID 0000.0001)                 1.676817765813788E+11,      /* J = 13 */
(PID.TID 0000.0001)                 1.745823399284268E+11,      /* J = 14 */
(PID.TID 0000.0001)                 1.806323556642996E+11,      /* J = 15 */
(PID.TID 0000.0001)                 1.858023487204767E+11,      /* J = 16 */
(PID.TID 0000.0001)                 1.900671314104743E+11,      /* J = 17 */
(PID.TID 0000.0001)                 1.934059261417216E+11,      /* J = 18 */
(PID.TID 0000.0001)                 1.958024666419019E+11,      /* J = 19 */
(PID.TID 0000.0001)                 1.972450772065981E+11,      /* J = 20 */
(PID.TID 0000.0001)                 1.977267295821495E+11,      /* J = 21 */
(PID.TID 0000.0001)                 1.972450772065981E+11,      /* J = 22 */
(PID.TID 0000.0001)                 1.958024666419019E+11,      /* J = 23 */
(PID.TID 0000.0001)                 1.934059261417216E+11,      /* J = 24 */
(PID.TID 0000.0001)                 1.900671314104743E+11,      /* J = 25 */
(PID.TID 0000.0001)                 1.858023487204767E+11,      /* J = 26 */
(PID.TID 0000.0001)                 1.806323556642996E+11,      /* J = 27 */
(PID.TID 0000.0001)                 1.745823399284268E+11,      /* J = 28 */
(PID.TID 0000.0001)                 1.676817765813788E+11,      /* J = 29 */
(PID.TID 0000.0001)                 1.599642844741385E+11,      /* J = 30 */
(PID.TID 0000.0001)                 1.514674624524945E+11,      /* J = 31 */
(PID.TID 0000.0001)                 1.422327061792377E+11,      /* J = 32 */
(PID.TID 0000.0001)                 1.323050064586578E+11,      /* J = 33 */
(PID.TID 0000.0001)                 1.217327300458638E+11,      /* J = 34 */
(PID.TID 0000.0001)                 1.105673840088173E+11,      /* J = 35 */
(PID.TID 0000.0001)                 9.886336479107463E+10,      /* J = 36 */
(PID.TID 0000.0001)                 8.667769319778079E+10,      /* J = 37 */
(PID.TID 0000.0001)                 7.406973659603818E+10,      /* J = 38 */
(PID.TID 0000.0001)                 6.110091968306414E+10,      /* J = 39 */
(PID.TID 0000.0001)                 4.783442523123625E+10       /* J = 40 */
(PID.TID 0000.0001)     ;
(PID.TID 0000.0001) globalArea = /* Integrated horizontal Area (m^2) */
(PID.TID 0000.0001)                 3.335490855875292E+14
(PID.TID 0000.0001)     ;
(PID.TID 0000.0001) // =======================================================
(PID.TID 0000.0001) // End of Model config. summary
(PID.TID 0000.0001) // =======================================================
(PID.TID 0000.0001) 
(PID.TID 0000.0001)  MDS_READ_FIELD: opening global file: Lev_clim_theta.bin
(PID.TID 0000.0001) // =======================================================
(PID.TID 0000.0001) // Field Initial Temperature at iteration          1
(PID.TID 0000.0001) // CMIN =         -1.668560028076172E+00
(PID.TID 0000.0001) // CMAX =          2.932958030700684E+01
(PID.TID 0000.0001) // CINT =          1.148079271669741E+00
(PID.TID 0000.0001) // SYMBOLS (CMIN->CMAX): -abcdefghijklmnopqrstuvwxyz+
(PID.TID 0000.0001) //                  0.0: .
(PID.TID 0000.0001) // RANGE I (Lo:Hi:Step):(   1:  90:   1)
(PID.TID 0000.0001) // RANGE J (Lo:Hi:Step):(  40:   1:  -1)
(PID.TID 0000.0001) // RANGE K (Lo:Hi:Step):(   1:   1:   1)
(PID.TID 0000.0001) // =======================================================
(PID.TID 0000.0001) K =   1
(PID.TID 0000.0001)                I=10      I=20      I=30      I=40      I=50      I=60      I=70      I=80      I=90
(PID.TID 0000.0001) |--J--|123456789|123456789|123456789|123456789|123456789|123456789|123456789|123456789|123456789|
(PID.TID 0000.0001)     40 ..........................................................................................
(PID.TID 0000.0001)     39 efffgf...................................................................bbb.........bbccd
(PID.TID 0000.0001)     38 hhhh......................................................................bc........dddefg
(PID.TID 0000.0001)     37 ij........................................................................ccc...ffgg..hhii
(PID.TID 0000.0001)     36 i..........................................efeed..........................deee.fhhijjkkjji
(PID.TID 0000.0001)     35 jj.................................dddd.ffffffffff.ghhiii..................defgghijkllll..
(PID.TID 0000.0001)     34 ....................................deeefffgggggghhhhiijjj..................dfhijklmmmml..
(PID.TID 0000.0001)     33 ....................................eeeffgggghhhhiiiiijjkkk...............ee.egkmmnnnnnmm.
(PID.TID 0000.0001)     32 ....................................hhhiiiijjjjjkkkkklllmml...............iiihkopppoooon..
(PID.TID 0000.0001)     31 ....................................mnnnnnnnnnnnnnnnnnooonm.............oprrrqrsrrrqqqp...
(PID.TID 0000.0001)     30 ...................................rrrrrqqqqqqqpppppqqqqpon............suuuuutttsssrrrrq..
(PID.TID 0000.0001)     29 ...............................ruuuuttttttttsssssssssssrrqpoo.........vvuuuuuutttttsssrr..
(PID.TID 0000.0001)     28 ..............................uvvvvvvvvvvvvvvvvuuuuuuutssrrqq......wv.wwvvvvvvvuuutttss...
(PID.TID 0000.0001)     27 ...............................xxxxwxxxxwxwwwwwwwwwvvuutttsssst...wxxxxxxxxxxwwwvvvuus....
(PID.TID 0000.0001)     26 ...............xyy....y.....xxyyyyyyyyyyyyyxxxxxxxxwwvvvvuuuuvvw..w.yyyyyyyxxxxwwvvuts....
(PID.TID 0000.0001)     25 .............xxyyz..yzzy...xyy.zzzzzzzzzzyyyyyyyxxxxwwwwwwwwxxxyy....zzyyyyyyxxxwwwvut....
(PID.TID 0000.0001)     24 ............xxyzzzz.zzzz...yyz.zzzzzzzzzzzzyyyyyyyxxxxxxxxxxxyyyyxww.yyy.yyyyyxxxwwwvu....
(PID.TID 0000.0001)     23 .............xyzzzzzzzzz.zyyzzzzzz++++zzzzzzzzzzzyyyyyyyyyyyyyyyxxwvw......yyyyyyxxxxww...
(PID.TID 0000.0001)     22 xx..........yyzz+zzzzzzz..zz..zzz++++++++++zzzzzzzzzzyyyyyxxxxxxxxxwww.......yyyyyyyyyyxww
(PID.TID 0000.0001)     21 ww.........yyyzzzzzzzz+++.....zzzz++++++++zzzzzzyyyyyyxxxwwwvvvvuuutut........yyyyyxxxxwww
(PID.TID 0000.0001)     20 vvu.......yyyyyyzzzzzzzzz.......y...++++++++++zzzzzzzyyyyxxxwwwvvuuut............yyyxxxwvv
(PID.TID 0000.0001)     19 vut.......yxyxxyyyyyyyzzzzz.zzzzzy...zz++++++++++++zzzzyyyyyxxxwwvvvus...........yyyxxxwww
(PID.TID 0000.0001)     18 uut.......yyyyxyyyyyyyyyyyyyzzzz....yyyzzzzzz++z++zzzzzzyyyxxxwwvvuutsr..........yyxxxwvvv
(PID.TID 0000.0001)     17 tts.......y..xxxxxxxxxxxxxxxyyy......xyyyyyyyyzzzzzzzzyyyyxxxwwvvuuutsr..........xxxwwvuut
(PID.TID 0000.0001)     16 tsq......xx.xxwwwwwwwvvvvwwww........wwwxxxxxxxxxxxxxxxxxxxxxwvvvuuttssr........xxxxwvvuut
(PID.TID 0000.0001)     15 srq......ww.wwwvvvvvuuuuuuuv..........vvvvvvvvvvvvvvvvvwwwwwwvvvuuttsrrq.......vwwwwvvuutt
(PID.TID 0000.0001)     14 ssrp....vvvvvvuuuuuttstttstt...........uuuttutttttttuuuuuuuuuvuuuttssrqp......uvvvuuuuuuts
(PID.TID 0000.0001)     13 rrrq...ttsssssrrrrrrqrqqqqqr..........uttsssssrrrrsrrsssssssssrrrrrrrqpo.....tttttsttttssr
(PID.TID 0000.0001)     12 ppqqrssssrrqqqqpppooooooopppq.qppp....ssrqqqqqpppppppppppppoooopooppppon....orrrrrqqqqqqqp
(PID.TID 0000.0001)     11 mlmopqpppppoooononnmmmlmmmmmnnnnnnnoopppppp.pooonnnnnnnnnmmmmmmmmmmnnnn....lmpoooooonnnnmm
(PID.TID 0000.0001)     10 iiijkkkkkjjiijkkkkkkkkjjjjjjkkkkllllmnnnnn.lmmmnmmlllllmllllllkkkjkllll...kjlmlkkkkkjjjjii
(PID.TID 0000.0001)      9 ffffffffffffefffeefgggggfggghhiiiiijjkllllkkkkkkkkkkkkjjjjjjiiiiiiijjjk...ihiiihggggfffeee
(PID.TID 0000.0001)      8 ccccccddddddddeedddddddedeeeefffgfggghhhiiiiiiiihhhhhhhhhgggggghggggghi..hhhgffedddddddccc
(PID.TID 0000.0001)      7 aaabbbccccccccccccccbccccccccddddddddeeffghhgggggfeedddeeffffffffggfggggggffeddccbbbbbbbbb
(PID.TID 0000.0001)      6 aaaabbbbbbbbbbbbbbbbbbbbbbbbbcccccccccccdeeeeeeedcbbbbbccccdddddeeeeeeeeddcccbbbaaaaaaaaaa
(PID.TID 0000.0001)      5 aaabbbbbbbbaaaaabbbaaaaaa.aaabbbbbbbbbbbbbbbbbbbbbaaaaaaaabbbbcccccccbbbbb.aaaaaaaaaaaaaaa
(PID.TID 0000.0001)      4 aaaaaaaa.a..............................aaaaaaaaaaaaaaaaaaaaaaaaaaaaaaaa...aa--aaaaaaaaaaa
(PID.TID 0000.0001)      3 ...........................................aaaaaa------------aaaa..........------aaaaa....
(PID.TID 0000.0001)      2 ...........................................aaaaaa--...........................----........
(PID.TID 0000.0001)      1 ..........................................................................................
(PID.TID 0000.0001) // =======================================================
(PID.TID 0000.0001) // END OF FIELD                                          =
(PID.TID 0000.0001) // =======================================================
(PID.TID 0000.0001) 
(PID.TID 0000.0001)  MDS_READ_FIELD: opening global file: Lev_clim_salt.bin
(PID.TID 0000.0001) // =======================================================
(PID.TID 0000.0001) // Field Initial Salinity at iteration          1
(PID.TID 0000.0001) // CMIN =          3.102835273742676E+01
(PID.TID 0000.0001) // CMAX =          3.743946075439453E+01
(PID.TID 0000.0001) // CINT =          2.374484450728805E-01
(PID.TID 0000.0001) // SYMBOLS (CMIN->CMAX): -abcdefghijklmnopqrstuvwxyz+
(PID.TID 0000.0001) //                  0.0: .
(PID.TID 0000.0001) // RANGE I (Lo:Hi:Step):(   1:  90:   1)
(PID.TID 0000.0001) // RANGE J (Lo:Hi:Step):(  40:   1:  -1)
(PID.TID 0000.0001) // RANGE K (Lo:Hi:Step):(   1:   1:   1)
(PID.TID 0000.0001) // =======================================================
(PID.TID 0000.0001) K =   1
(PID.TID 0000.0001)                I=10      I=20      I=30      I=40      I=50      I=60      I=70      I=80      I=90
(PID.TID 0000.0001) |--J--|123456789|123456789|123456789|123456789|123456789|123456789|123456789|123456789|123456789|
(PID.TID 0000.0001)     40 ..........................................................................................
(PID.TID 0000.0001)     39 qqqqpp...................................................................ghi.........kmnpp
(PID.TID 0000.0001)     38 rqpn......................................................................gh........mnoppq
(PID.TID 0000.0001)     37 qo........................................................................hjj...noqq..pqqq
(PID.TID 0000.0001)     36 p..........................................hhgeb..........................jmom.npqqrrrrrrq
(PID.TID 0000.0001)     35 po.................................gghh.ghiiiihfdb.egggec..................gloppppqqrrrr..
(PID.TID 0000.0001)     34 ....................................fghghhhhhhhhgfgggggfed..................flopppqrrsrr..
(PID.TID 0000.0001)     33 ....................................gghhhhhhhhgghhgggggggfe...............-b.glprsrrssssr.
(PID.TID 0000.0001)     32 ....................................hhijjjjjkjjjjiihhhhhggf...............cghiosttttssts..
(PID.TID 0000.0001)     31 ....................................llmmmmmmmmmmmllkjkjihgh.............mpsttsuvuuuuuut...
(PID.TID 0000.0001)     30 ...................................nooooooooonnnnnmmmmlkjih............qvwwwwwvvvvvvvvvv..
(PID.TID 0000.0001)     29 ...............................knooooooopppppppppppppppomkjjj.........vwwwwwwwwxxxxxxwww..
(PID.TID 0000.0001)     28 ..............................lnopoppppqqqqqqrrrrrrrrrrqpnlkk......tu.vwwxxxyyyzzzzyyxw...
(PID.TID 0000.0001)     27 ...............................pppppqqqqqrrrrrrrrrqqqqqqponmmmp...wwvuwwwwxxyz++++zzyx....
(PID.TID 0000.0001)     26 ...............vwu....h.....mmnooppppqqqqqrqqqqqqpppoppoooonnnoo..v.uuvvvuuuwyzzyyyxwu....
(PID.TID 0000.0001)     25 .............uuvwv..gihf...llk.nnooopppppppppppoooonnoonnnnnmmmmm....uttsssstwwwwwwvut....
(PID.TID 0000.0001)     24 ............utuvvuq.kkig...kjk.nnnnnoooooooooooonnnnnnnmmmmmlllllmmm.vuu.vsrrtuvuuuuts....
(PID.TID 0000.0001)     23 .............stttspommki.eijjkmnmmmnnnnnnnnnnnnoonnnnnnnnmmmmmllklmml......srstttuttssp...
(PID.TID 0000.0001)     22 qm..........ssrrrrqponml..jj..mnnnnoonnonopopppqqppppppppooonnnmlllkjj.......outtttssrrqrr
(PID.TID 0000.0001)     21 qp.........rrrrrqqqpppnml.....mmnoooooppppqqrrrrrrrqqqqqqppppppppooonm........tuuuuutttsrr
(PID.TID 0000.0001)     20 ssq.......rrrrqqqqppponmm.......n...noppppqqrssssssrssrrrrqqqqqqppppp............uuuutttts
(PID.TID 0000.0001)     19 usr.......qqrqppppooonnmmml.kklmmm...nppoppppqrrssssssssssrrrrrrqqrqqq...........wvvuuuuuu
(PID.TID 0000.0001)     18 vut.......qqqppoooonnnnnnnnnnnno....qqpppppppqrrsttttttuutttttttssssrrq..........xxxxxwwww
(PID.TID 0000.0001)     17 uut.......q..qpppoooooooooooooo......rqqpqqqqrsrsttuuuvvvvvvvvvuuttssrq..........yzzyyxwwv
(PID.TID 0000.0001)     16 tts......qq.qqqppqpqpppqqqqqq........rrrrrrrqrsssstttuuvvvwwwwvvvutsrrqq........yyzzyxxwvu
(PID.TID 0000.0001)     15 tsr......rr.qqrrrrssrssssssr..........sssssssssssssssssstuvwvvuuvtsrqppp.......wxxxxxxwwvu
(PID.TID 0000.0001)     14 ttsr....rrrrrrssstttttttttts...........sttttsssssssssrrrssttttttssrqpoon......vwwuuvvvvuuu
(PID.TID 0000.0001)     13 tsss...rssssssssstttsttttttt..........sssssttssssrrssrrqqqqrrqqppppooonm.....svuuttttstttt
(PID.TID 0000.0001)     12 rrrsrrrssssssrrssrrrrrrqrssss.srrs....ssssssssrrqqqqqqpqpoooonnnnnnnnmml....ksutsssrrrrrqr
(PID.TID 0000.0001)     11 oooqrrrrrqqqppprrrqqpppppqqqqqpppqqrrsrrrrr.rrrqppponnnnnmmmmmmmllmmlml....korqppqrqqpppoo
(PID.TID 0000.0001)     10 mmmnnooonmllkklnnnoonnonooooooopooppqqqppp.ooppppoonnnnnnmmmmmmmllmlllk...kmoponoonnnnnnnn
(PID.TID 0000.0001)      9 lllllllllllkkklkkklllmmmmmmmnnnnnnnooooooonnnnoooooooonnnnnnnnmmmmmmmmk...kmnnnnmmmlllllll
(PID.TID 0000.0001)      8 lllmmmmlllllllllllllllllllllllllllmmmmmmnnnnnnnnnnnnnnnnnnnnnnmnnmmmmml..ikmmmllllllllllll
(PID.TID 0000.0001)      7 mmmmmmmllllllllllllllllllllllllllllllllllmmmmmmmmlllmmmmmmmmmmmmmmmmmmmlkllmmlllllllllllll
(PID.TID 0000.0001)      6 mmmlllllllllllllllllllllllllllllllllllllllllllllllmmmmmmmmmmmmmmmmmmmmmmmlllmmmmmllllllmmm
(PID.TID 0000.0001)      5 nnmmmllllllllllllllllllll.lllmmllllllllmmmmmmmmmmmmmmlllllllllllllllllllll.mmmmmmmmmmmmmmn
(PID.TID 0000.0001)      4 nmmmllll.l..............................mmmmmmlmmmllkkkkkkkkkkkkkkkkkkkk...mnnnnnnnnnnmmnn
(PID.TID 0000.0001)      3 ...........................................nmmmlllllkkkkklmmmmllk..........nnnnnmmmmmm....
(PID.TID 0000.0001)      2 ...........................................nnnmmmmm...........................nnnm........
(PID.TID 0000.0001)      1 ..........................................................................................
(PID.TID 0000.0001) // =======================================================
(PID.TID 0000.0001) // END OF FIELD                                          =
(PID.TID 0000.0001) // =======================================================
(PID.TID 0000.0001) 
(PID.TID 0000.0001) Start initial hydrostatic pressure computation
(PID.TID 0000.0001) Pressure is predetermined for buoyancyRelation OCEANIC
(PID.TID 0000.0001) 
(PID.TID 0000.0001)  MDS_READ_FIELD: opening global file: Taux.bin
(PID.TID 0000.0001)  MDS_READ_FIELD: opening global file: Tauy.bin
(PID.TID 0000.0001)  MDS_READ_FIELD: opening global file: SST.bin
(PID.TID 0000.0001)  MDS_READ_FIELD: opening global file: SSS.bin
(PID.TID 0000.0001)  MDS_READ_FIELD: opening global file: SSS.bin
(PID.TID 0000.0001)  MDS_READ_FIELD: opening global file: SST.bin
(PID.TID 0000.0001)  MDS_READ_FIELD: opening global file: Runoff.bin
(PID.TID 0000.0001)  MDS_READ_FIELD: opening global file: Taux.bin
(PID.TID 0000.0001)  MDS_READ_FIELD: opening global file: Tauy.bin
(PID.TID 0000.0001) // =======================================================
(PID.TID 0000.0001) // Field Theta Climatology at iteration          1
(PID.TID 0000.0001) // CMIN =         -1.668560028076172E+00
(PID.TID 0000.0001) // CMAX =          2.932958030700684E+01
(PID.TID 0000.0001) // CINT =          1.148079271669741E+00
(PID.TID 0000.0001) // SYMBOLS (CMIN->CMAX): -abcdefghijklmnopqrstuvwxyz+
(PID.TID 0000.0001) //                  0.0: .
(PID.TID 0000.0001) // RANGE I (Lo:Hi:Step):(  -1:  92:   1)
(PID.TID 0000.0001) // RANGE J (Lo:Hi:Step):(  42:  -1:  -1)
(PID.TID 0000.0001) // RANGE K (Lo:Hi:Step):(   1:   1:   1)
(PID.TID 0000.0001) // =======================================================
(PID.TID 0000.0001) K =   1
(PID.TID 0000.0001) //                I=8       I=18      I=28      I=38      I=44      I=54      I=64      I=74      I=84
(PID.TID 0000.0001) // |--J--|101234567|901234567|901234567|901234567|901234567|567890123|567890123|567890123|567890123|56789012
(PID.TID 0000.0001) //     42 .............................................aaaaaaaaaa--...........................----..........
(PID.TID 0000.0001) //     41 ..................................................................................................
(PID.TID 0000.0001) //     40 ..................................................................................................
(PID.TID 0000.0001) //     39 cdefffgf.......................................................................bbb.........bbccdef
(PID.TID 0000.0001) //     38 fghhhh..........................................................................bc........dddefghh
(PID.TID 0000.0001) //     37 iiij............................................................................ccc...ffgg..hhiiij
(PID.TID 0000.0001) //     36 jii..........................................efeeefeed..........................deee.fhhijjkkjjii.
(PID.TID 0000.0001) //     35 ..jj.................................dddd.ffffffffffffff.ghhiii..................defgghijkllll..jj
(PID.TID 0000.0001) //     34 ......................................deeefffgggggggggghhhhiijjj..................dfhijklmmmml....
(PID.TID 0000.0001) //     33 m.....................................eeeffgggghhgghhhhiiiiijjkkk...............ee.egkmmnnnnnmm...
(PID.TID 0000.0001) //     32 ......................................hhhiiiijjjjjjjjjkkkkklllmml...............iiihkopppoooon....
(PID.TID 0000.0001) //     31 ......................................mnnnnnnnnnnnnnnnnnnnnnooonm.............oprrrqrsrrrqqqp.....
(PID.TID 0000.0001) //     30 .....................................rrrrrqqqqqqqqqqqpppppqqqqpon............suuuuutttsssrrrrq....
(PID.TID 0000.0001) //     29 .................................ruuuuttttttttssstsssssssssssrrqpoo.........vvuuuuuutttttsssrr....
(PID.TID 0000.0001) //     28 ................................uvvvvvvvvvvvvvvvvvvvvuuuuuuutssrrqq......wv.wwvvvvvvvuuutttss.....
(PID.TID 0000.0001) //     27 .................................xxxxwxxxxwxwwwwwwwwwwwwwvvuutttsssst...wxxxxxxxxxxwwwvvvuus......
(PID.TID 0000.0001) //     26 .................xyy....y.....xxyyyyyyyyyyyyyxxxxxxxxxxxxwwvvvvuuuuvvw..w.yyyyyyyxxxxwwvvuts......
(PID.TID 0000.0001) //     25 ...............xxyyz..yzzy...xyy.zzzzzzzzzzyyyyyyyyyyyxxxxwwwwwwwwxxxyy....zzyyyyyyxxxwwwvut......
(PID.TID 0000.0001) //     24 ..............xxyzzzz.zzzz...yyz.zzzzzzzzzzzzyyyyyyyyyyyxxxxxxxxxxxyyyyxww.yyy.yyyyyxxxwwwvu......
(PID.TID 0000.0001) //     23 ...............xyzzzzzzzzz.zyyzzzzzz++++zzzzzzzzzzzzzzzyyyyyyyyyyyyyyyxxwvw......yyyyyyxxxxww.....
(PID.TID 0000.0001) //     22 wwxx..........yyzz+zzzzzzz..zz..zzz++++++++++zzzzzzzzzzzzzzyyyyyxxxxxxxxxwww.......yyyyyyyyyyxwwxx
(PID.TID 0000.0001) //     21 wwww.........yyyzzzzzzzz+++.....zzzz++++++++zzzzzzzzzzyyyyyyxxxwwwvvvvuuutut........yyyyyxxxxwwwww
(PID.TID 0000.0001) //     20 vvvvu.......yyyyyyzzzzzzzzz.......y...++++++++++z+++zzzzzzzyyyyxxxwwwvvuuut............yyyxxxwvvvv
(PID.TID 0000.0001) //     19 wwvut.......yxyxxyyyyyyyzzzzz.zzzzzy...zz++++++++++++++++zzzzyyyyyxxxwwvvvus...........yyyxxxwwwvu
(PID.TID 0000.0001) //     18 vvuut.......yyyyxyyyyyyyyyyyyyzzzz....yyyzzzzzz++zz++z++zzzzzzyyyxxxwwvvuutsr..........yyxxxwvvvuu
(PID.TID 0000.0001) //     17 uttts.......y..xxxxxxxxxxxxxxxyyy......xyyyyyyyyzyyyzzzzzzzzyyyyxxxwwvvuuutsr..........xxxwwvuuttt
(PID.TID 0000.0001) //     16 uttsq......xx.xxwwwwwwwvvvvwwww........wwwxxxxxxxxxxxxxxxxxxxxxxxxxwvvvuuttssr........xxxxwvvuutts
(PID.TID 0000.0001) //     15 ttsrq......ww.wwwvvvvvuuuuuuuv..........vvvvvvvvvvvvvvvvvvvvvwwwwwwvvvuuttsrrq.......vwwwwvvuuttsr
(PID.TID 0000.0001) //     14 tsssrp....vvvvvvuuuuuttstttstt...........uuuttutttutttttttuuuuuuuuuvuuuttssrqp......uvvvuuuuuutsss
(PID.TID 0000.0001) //     13 srrrrq...ttsssssrrrrrrqrqqqqqr..........uttsssssrsssrrrrsrrsssssssssrrrrrrrqpo.....tttttsttttssrrr
(PID.TID 0000.0001) //     12 qpppqqrssssrrqqqqpppooooooopppq.qppp....ssrqqqqqpqqqpppppppppppppoooopooppppon....orrrrrqqqqqqqppp
(PID.TID 0000.0001) //     11 mmmlmopqpppppoooononnmmmlmmmmmnnnnnnnoopppppp.poo.pooonnnnnnnnnmmmmmmmmmmnnnn....lmpoooooonnnnmmml
(PID.TID 0000.0001) //     10 iiiiijkkkkkjjiijkkkkkkkkjjjjjjkkkkllllmnnnnn.lmmmlmmmnmmlllllmllllllkkkjkllll...kjlmlkkkkkjjjjiiii
(PID.TID 0000.0001) //      9 eeffffffffffffefffeefgggggfggghhiiiiijjkllllkkkkkkkkkkkkkkkkjjjjjjiiiiiiijjjk...ihiiihggggfffeeeff
(PID.TID 0000.0001) //      8 ccccccccddddddddeedddddddedeeeefffgfggghhhiiiiiiiiiiiihhhhhhhhhgggggghggggghi..hhhgffedddddddccccc
(PID.TID 0000.0001) //      7 bbaaabbbccccccccccccccbccccccccddddddddeeffghhggghgggggfeedddeeffffffffggfggggggffeddccbbbbbbbbbaa
(PID.TID 0000.0001) //      6 aaaaaabbbbbbbbbbbbbbbbbbbbbbbbbcccccccccccdeeeeeeeeeeedcbbbbbccccdddddeeeeeeeeddcccbbbaaaaaaaaaaaa
(PID.TID 0000.0001) //      5 aaaaabbbbbbbbaaaaabbbaaaaaa.aaabbbbbbbbbbbbbbbbbbbbbbbbbaaaaaaaabbbbcccccccbbbbb.aaaaaaaaaaaaaaaaa
(PID.TID 0000.0001) //      4 aaaaaaaaaa.a..............................aaaaaaaaaaaaaaaaaaaaaaaaaaaaaaaaaaaa...aa--aaaaaaaaaaaaa
(PID.TID 0000.0001) //      3 .............................................aaaaaaaaaa------------aaaa..........------aaaaa......
(PID.TID 0000.0001) //      2 .............................................aaaaaaaaaa--...........................----..........
(PID.TID 0000.0001) //      1 ..................................................................................................
(PID.TID 0000.0001) //      0 ..................................................................................................
(PID.TID 0000.0001) //     -1 cdefffgf.......................................................................bbb.........bbccdef
(PID.TID 0000.0001) // =======================================================
(PID.TID 0000.0001) // END OF FIELD                                          =
(PID.TID 0000.0001) // =======================================================
(PID.TID 0000.0001) 
(PID.TID 0000.0001) // =======================================================
(PID.TID 0000.0001) // Field Salt  Climatology at iteration          1
(PID.TID 0000.0001) // CMIN =          3.102835273742676E+01
(PID.TID 0000.0001) // CMAX =          3.743946075439453E+01
(PID.TID 0000.0001) // CINT =          2.374484450728805E-01
(PID.TID 0000.0001) // SYMBOLS (CMIN->CMAX): -abcdefghijklmnopqrstuvwxyz+
(PID.TID 0000.0001) //                  0.0: .
(PID.TID 0000.0001) // RANGE I (Lo:Hi:Step):(  -1:  92:   1)
(PID.TID 0000.0001) // RANGE J (Lo:Hi:Step):(  42:  -1:  -1)
(PID.TID 0000.0001) // RANGE K (Lo:Hi:Step):(   1:   1:   1)
(PID.TID 0000.0001) // =======================================================
(PID.TID 0000.0001) K =   1
(PID.TID 0000.0001) //                I=8       I=18      I=28      I=38      I=44      I=54      I=64      I=74      I=84
(PID.TID 0000.0001) // |--J--|101234567|901234567|901234567|901234567|901234567|567890123|567890123|567890123|567890123|56789012
(PID.TID 0000.0001) //     42 .............................................nnnmnnnmmmmm...........................nnnm..........
(PID.TID 0000.0001) //     41 ..................................................................................................
(PID.TID 0000.0001) //     40 ..................................................................................................
(PID.TID 0000.0001) //     39 ppqqqqpp.......................................................................ghi.........kmnppqq
(PID.TID 0000.0001) //     38 pqrqpn..........................................................................gh........mnoppqrq
(PID.TID 0000.0001) //     37 qqqo............................................................................hjj...noqq..pqqqqo
(PID.TID 0000.0001) //     36 rqp..........................................hhgehhgeb..........................jmom.npqqrrrrrrqp.
(PID.TID 0000.0001) //     35 ..po.................................gghh.ghiiiihiiihfdb.egggec..................gloppppqqrrrr..po
(PID.TID 0000.0001) //     34 ......................................fghghhhhhhhhhhhhgfgggggfed..................flopppqrrsrr....
(PID.TID 0000.0001) //     33 r.....................................gghhhhhhhhghhhgghhgggggggfe...............-b.glprsrrssssr...
(PID.TID 0000.0001) //     32 ......................................hhijjjjjkjjjkjjjjiihhhhhggf...............cghiosttttssts....
(PID.TID 0000.0001) //     31 ......................................llmmmmmmmmmmmmmmmllkjkjihgh.............mpsttsuvuuuuuut.....
(PID.TID 0000.0001) //     30 .....................................nooooooooonnoonnnnnmmmmlkjih............qvwwwwwvvvvvvvvvv....
(PID.TID 0000.0001) //     29 .................................knooooooopppppppppppppppppppomkjjj.........vwwwwwwwwxxxxxxwww....
(PID.TID 0000.0001) //     28 ................................lnopoppppqqqqqqrrqqrrrrrrrrrrqpnlkk......tu.vwwxxxyyyzzzzyyxw.....
(PID.TID 0000.0001) //     27 .................................pppppqqqqqrrrrrrrrrrrrrqqqqqqponmmmp...wwvuwwwwxxyz++++zzyx......
(PID.TID 0000.0001) //     26 .................vwu....h.....mmnooppppqqqqqrqqqqqqqqqqpppoppoooonnnoo..v.uuvvvuuuwyzzyyyxwu......
(PID.TID 0000.0001) //     25 ...............uuvwv..gihf...llk.nnooopppppppppppppppoooonnoonnnnnmmmmm....uttsssstwwwwwwvut......
(PID.TID 0000.0001) //     24 ..............utuvvuq.kkig...kjk.nnnnnoooooooooooooooonnnnnnnmmmmmlllllmmm.vuu.vsrrtuvuuuuts......
(PID.TID 0000.0001) //     23 ...............stttspommki.eijjkmnmmmnnnnnnnnnnnnnnnnoonnnnnnnnmmmmmllklmml......srstttuttssp.....
(PID.TID 0000.0001) //     22 rrqm..........ssrrrrqponml..jj..mnnnnoonnonopopppopppqqppppppppooonnnmlllkjj.......outtttssrrqrrqm
(PID.TID 0000.0001) //     21 rrqp.........rrrrrqqqpppnml.....mmnoooooppppqqrrrqrrrrrrrqqqqqqppppppppooonm........tuuuuutttsrrqp
(PID.TID 0000.0001) //     20 tsssq.......rrrrqqqqppponmm.......n...noppppqqrssqrssssssrssrrrrqqqqqqppppp............uuuuttttsss
(PID.TID 0000.0001) //     19 uuusr.......qqrqppppooonnmmml.kklmmm...nppoppppqrppqrrssssssssssrrrrrrqqrqqq...........wvvuuuuuuus
(PID.TID 0000.0001) //     18 wwvut.......qqqppoooonnnnnnnnnnnno....qqpppppppqrppqrrsttttttuutttttttssssrrq..........xxxxxwwwwvu
(PID.TID 0000.0001) //     17 wvuut.......q..qpppoooooooooooooo......rqqpqqqqrsqqrsrsttuuuvvvvvvvvvuuttssrq..........yzzyyxwwvuu
(PID.TID 0000.0001) //     16 vutts......qq.qqqppqpqpppqqqqqq........rrrrrrrqrsrqrsssstttuuvvvwwwwvvvutsrrqq........yyzzyxxwvutt
(PID.TID 0000.0001) //     15 vutsr......rr.qqrrrrssrssssssr..........sssssssssssssssssssssstuvwvvuuvtsrqppp.......wxxxxxxwwvuts
(PID.TID 0000.0001) //     14 uuttsr....rrrrrrssstttttttttts...........sttttssstsssssssssrrrssttttttssrqpoon......vwwuuvvvvuuutt
(PID.TID 0000.0001) //     13 tttsss...rssssssssstttsttttttt..........sssssttssttssssrrssrrqqqqrrqqppppooonm.....svuuttttsttttts
(PID.TID 0000.0001) //     12 qrrrrsrrrssssssrrssrrrrrrqrssss.srrs....ssssssssrsssrrqqqqqqpqpoooonnnnnnnnmml....ksutsssrrrrrqrrr
(PID.TID 0000.0001) //     11 oooooqrrrrrqqqppprrrqqpppppqqqqqpppqqrrsrrrrr.rrr.rrrqppponnnnnmmmmmmmllmmlml....korqppqrqqpppoooo
(PID.TID 0000.0001) //     10 nnmmmnnooonmllkklnnnoonnonooooooopooppqqqppp.ooppooppppoonnnnnnmmmmmmmllmlllk...kmoponoonnnnnnnnmm
(PID.TID 0000.0001) //      9 lllllllllllllkkklkkklllmmmmmmmnnnnnnnooooooonnnnonnnoooooooonnnnnnnnmmmmmmmmk...kmnnnnmmmlllllllll
(PID.TID 0000.0001) //      8 lllllmmmmlllllllllllllllllllllllllllmmmmmmnnnnnnnnnnnnnnnnnnnnnnnnnnmnnmmmmml..ikmmmllllllllllllll
(PID.TID 0000.0001) //      7 llmmmmmmmllllllllllllllllllllllllllllllllllmmmmmmmmmmmmlllmmmmmmmmmmmmmmmmmmmlkllmmlllllllllllllmm
(PID.TID 0000.0001) //      6 mmmmmlllllllllllllllllllllllllllllllllllllllllllllllllllmmmmmmmmmmmmmmmmmmmmmmmlllmmmmmllllllmmmmm
(PID.TID 0000.0001) //      5 mnnnmmmllllllllllllllllllll.lllmmllllllllmmmmmmmmmmmmmmmmmmlllllllllllllllllllll.mmmmmmmmmmmmmmnnn
(PID.TID 0000.0001) //      4 nnnmmmllll.l..............................mmmmmmlmmmlmmmllkkkkkkkkkkkkkkkkkkkk...mnnnnnnnnnnmmnnnm
(PID.TID 0000.0001) //      3 .............................................nmmmnmmmlllllkkkkklmmmmllk..........nnnnnmmmmmm......
(PID.TID 0000.0001) //      2 .............................................nnnmnnnmmmmm...........................nnnm..........
(PID.TID 0000.0001) //      1 ..................................................................................................
(PID.TID 0000.0001) //      0 ..................................................................................................
(PID.TID 0000.0001) //     -1 ppqqqqpp.......................................................................ghi.........kmnppqq
(PID.TID 0000.0001) // =======================================================
(PID.TID 0000.0001) // END OF FIELD                                          =
(PID.TID 0000.0001) // =======================================================
(PID.TID 0000.0001) 
(PID.TID 0000.0001) // =======================================================
(PID.TID 0000.0001) // Field Runoff Climatology at iteration          1
(PID.TID 0000.0001) // CMIN =          1.421085439756465E-16
(PID.TID 0000.0001) // CMAX =          9.460258178710938E+02
(PID.TID 0000.0001) // CINT =          3.503799325448495E+01
(PID.TID 0000.0001) // SYMBOLS (CMIN->CMAX): -abcdefghijklmnopqrstuvwxyz+
(PID.TID 0000.0001) //                  0.0: .
(PID.TID 0000.0001) // RANGE I (Lo:Hi:Step):(  -1:  92:   1)
(PID.TID 0000.0001) // RANGE J (Lo:Hi:Step):(  42:  -1:  -1)
(PID.TID 0000.0001) // RANGE K (Lo:Hi:Step):(   1:   1:   1)
(PID.TID 0000.0001) // =======================================================
(PID.TID 0000.0001) K =   1
(PID.TID 0000.0001) //                I=8       I=18      I=28      I=38      I=44      I=54      I=64      I=74      I=84
(PID.TID 0000.0001) // |--J--|101234567|901234567|901234567|901234567|901234567|567890123|567890123|567890123|567890123|56789012
(PID.TID 0000.0001) //     42 ..................................................................................................
(PID.TID 0000.0001) //     41 ..................................................................................................
(PID.TID 0000.0001) //     40 ..................................................................................................
(PID.TID 0000.0001) //     39 .......-..........................................................................................
(PID.TID 0000.0001) //     38 ..................................................................................................
(PID.TID 0000.0001) //     37 ..................................................................................................
(PID.TID 0000.0001) //     36 .............................................--....--a............................................
(PID.TID 0000.0001) //     35 .....................................a---.----......-abb.------..................--...............
(PID.TID 0000.0001) //     34 ......................................ba--..........------....--..................---.............
(PID.TID 0000.0001) //     33 ......................................ba--...........---......--b...............--.---............
(PID.TID 0000.0001) //     32 ......................................---.....................--c...............-aba--............
(PID.TID 0000.0001) //     31 ......................................-.......................--b.............--------............
(PID.TID 0000.0001) //     30 .....................................--.......................---...............-----.............
(PID.TID 0000.0001) //     29 .................................da---.........................----.........-.....................
(PID.TID 0000.0001) //     28 ................................gca---...................................cb.--....................
(PID.TID 0000.0001) //     27 .................................a---...............................-...aaa---....................
(PID.TID 0000.0001) //     26 ........................k.....cb----................................--..-.---.------..............
(PID.TID 0000.0001) //     25 ......................-adc...---.-....................................-.....------------..........
(PID.TID 0000.0001) //     24 ....................-.-abc...---.-.........................................-ab.bba--------........
(PID.TID 0000.0001) //     23 ....................-----a.bcb---.........................................-......gdba------.......
(PID.TID 0000.0001) //     22 ..--..................----..--..-.........................................--.......ngba-----......
(PID.TID 0000.0001) //     21 ..-a...................----.....-..........................................-........+ngb----...-..
(PID.TID 0000.0001) //     20 ..-bh...................-.-............................................................b----...-..
(PID.TID 0000.0001) //     19 ..-bg......................................................................-...........b----...-..
(PID.TID 0000.0001) //     18 ..--c......................................................................--..........a---....-..
(PID.TID 0000.0001) //     17 ..--a.......................................................................-..........---........
(PID.TID 0000.0001) //     16 ...--.......................................................................--........a-..........
(PID.TID 0000.0001) //     15 ....-........................................................................-.......--...........
(PID.TID 0000.0001) //     14 ....--.......................................................................-......--............
(PID.TID 0000.0001) //     13 .............................................................................-.....---............
(PID.TID 0000.0001) //     12 .............................................................................-....da--............
(PID.TID 0000.0001) //     11 .................................................................................cb---............
(PID.TID 0000.0001) //     10 ................................................................................-----.............
(PID.TID 0000.0001) //      9 ................................................................................----..............
(PID.TID 0000.0001) //      8 ..................................................................................................
(PID.TID 0000.0001) //      7 ..................................................................................................
(PID.TID 0000.0001) //      6 ..................................................................................................
(PID.TID 0000.0001) //      5 ..................................................................................................
(PID.TID 0000.0001) //      4 ..................................................................................................
(PID.TID 0000.0001) //      3 ..................................................................................................
(PID.TID 0000.0001) //      2 ..................................................................................................
(PID.TID 0000.0001) //      1 ..................................................................................................
(PID.TID 0000.0001) //      0 ..................................................................................................
(PID.TID 0000.0001) //     -1 ..................................................................................................
(PID.TID 0000.0001) // =======================================================
(PID.TID 0000.0001) // END OF FIELD                                          =
(PID.TID 0000.0001) // =======================================================
(PID.TID 0000.0001) 
(PID.TID 0000.0001) // =======================================================
(PID.TID 0000.0001) // Field WIND_STRESS_CLIMATOLOGY FU at iteration          1
(PID.TID 0000.0001) // CMIN =         -1.032922118902206E-01
(PID.TID 0000.0001) // CMAX =          1.600433439016342E-01
(PID.TID 0000.0001) // CINT =          9.753168733031661E-03
(PID.TID 0000.0001) // SYMBOLS (CMIN->CMAX): -abcdefghijklmnopqrstuvwxyz+
(PID.TID 0000.0001) //                  0.0: .
(PID.TID 0000.0001) // RANGE I (Lo:Hi:Step):(  -1:  92:   1)
(PID.TID 0000.0001) // RANGE J (Lo:Hi:Step):(  42:  -1:  -1)
(PID.TID 0000.0001) // RANGE K (Lo:Hi:Step):(   1:   1:   1)
(PID.TID 0000.0001) // =======================================================
(PID.TID 0000.0001) K =   1
(PID.TID 0000.0001) //                I=8       I=18      I=28      I=38      I=44      I=54      I=64      I=74      I=84
(PID.TID 0000.0001) // |--J--|101234567|901234567|901234567|901234567|901234567|567890123|567890123|567890123|567890123|56789012
(PID.TID 0000.0001) //     42 ..............................................kkl.kkllllm............................jjj..........
(PID.TID 0000.0001) //     41 ..................................................................................................
(PID.TID 0000.0001) //     40 ..................................................................................................
(PID.TID 0000.0001) //     39 jjjjjiii........................................................................lk..........jjjjjj
(PID.TID 0000.0001) //     38 jkllmm...........................................................................l.........hijjkll
(PID.TID 0000.0001) //     37 llmn.............................................................................ll....dde...jllmn
(PID.TID 0000.0001) //     36 nmm...........................................fff.fffg...........................mml..nopponnnnmm.
(PID.TID 0000.0001) //     35 ...m..................................kjj..iihhiihhiijkk..mmlki...................ooopstuttsrp...m
(PID.TID 0000.0001) //     34 .......................................mmlmmmmmmnmmmnnnoppqqqpnl...................qstuuuuttrq....
(PID.TID 0000.0001) //     33 o......................................nopqqqpppppppppppqqqqqqpom................n..svvutsrrqpo...
(PID.TID 0000.0001) //     32 .......................................opqrqqrrqqrrqqqqqqqqqqqqpn................pppqtusrqppon....
(PID.TID 0000.0001) //     31 .......................................oppqqrrqqqrqqqqpppppoooonn..............oqrrpqrqpoonnm.....
(PID.TID 0000.0001) //     30 ......................................nopppqqqqppqqppooonnnnmmmmm.............oqrrrqponnmmllkk....
(PID.TID 0000.0001) //     29 ..................................kkmmnnoonnnnmmmnmmmmllllkjjjjjkno..........lmnnnmmlllkkjjjjj....
(PID.TID 0000.0001) //     28 .................................ijjkkkkkkkkjjjjijjjiiiiihggggghikm.......i..jjjjjjjiiiiihhhh.....
(PID.TID 0000.0001) //     27 ..................................hhhhhhhgggggggfgggffeeedddddefghjll....ggghgfggggggggffffg......
(PID.TID 0000.0001) //     26 ..................nn...........ddfgffffffeeeeddddddddddddccbbbcdefhjkl.....ffgheeeeeeddddeeg......
(PID.TID 0000.0001) //     25 ................mooo...lll....gg..gffeeedddcccccccccccccbabbbbbcdeghjkk.....dbbcddccccccdefi......
(PID.TID 0000.0001) //     24 ...............lnoonn..lll....ii..hggfeedddcccccbcccbbbbaabbbccdefhiijjiii..d-..edcccccdeghj......
(PID.TID 0000.0001) //     23 ................nmmmmmlmll..jjjijjjiihggffeeeedddeddddccccdcdeefghhiijjijjk.......ddddefghikl.....
(PID.TID 0000.0001) //     22 kkll...........mmlllmmnnml...j...kkkjjiihhggggffegffeeeeeeeeefffgghhiiijklll........eeefghijkkkkll
(PID.TID 0000.0001) //     21 jjkk..........jkkklllmmmmll......kkkkkjjjjihhhggfhggffeeeeeeeefffggghiiijjjk.........eefggghiijjkk
(PID.TID 0000.0001) //     20 hijjk........hijjjjkkkllkkk............jjjjiiihggihggffeeeeedeeeeeffggghhhh.............feffgghijj
(PID.TID 0000.0001) //     19 fghik........hghhhhhhhhihhhhh..jjjii....iiiiiihhgihhggffeeeeddddddddddeeefgh............edddeffghi
(PID.TID 0000.0001) //     18 efghj........igfffeeeedddddefhiijj.....gggggggggggggggfffffeeeddddccccccdeefh...........eddcddefgh
(PID.TID 0000.0001) //     17 eefgi...........dcccccbaaabcegijk.......eeeffffffffffffffffffeeeeddccccccddeg...........eeedddeefg
(PID.TID 0000.0001) //     16 eeeeg.......i..fdcccbaaabbcdegj.........eeeeeeeeeeeeeeffffffffffeeeedddddddefh.........ggfffeeeeee
(PID.TID 0000.0001) //     15 feeef.......g..feddccccdddeefg...........ffffffffffffffffggghggggggfffggffffgi........hhhhhgggfeee
(PID.TID 0000.0001) //     14 ihhggg.....hgeefffffggggghhihh............hhhhhhhhhhhhhhiiiiiiiihhiiihiihhhhhj.......hhiijjjjiihhg
(PID.TID 0000.0001) //     13 mllkji....jiihhiijjjkkkklllmml...........kjjjjjkkjjkkkkkkkkjjjjjjjkkjjkkkkjkjk......jkkkkllllmmllk
(PID.TID 0000.0001) //     12 onnonnmmnmllllllmmnnnoooppppppo..nnn.....llllllmlllmlllllmmmlllkllmmllmmmmmmml.....lmmmnnnnnnoonno
(PID.TID 0000.0001) //     11 qqrrrrrrpooopppprssssttsstttssrqppppppooonmmm..mm..mmmmmmmnnnmmmnopppooooooon.....moooopqqqqqqqqrr
(PID.TID 0000.0001) //     10 tuvvvvutssstttttvvwwwwxxxxwwvvuutsrrrqqqqppo..mmn.mmnnnnnooooooppqqrrqrrrrqqp....npqrrrrsssssttuvv
(PID.TID 0000.0001) //      9 vwwxxxwvwwwxxxxxyyyzzzz+++zyxwwwwvutsssssrrqpooppoopppqqqqpppqqrsttttsstttssr....pqrssssstttuvvwwx
(PID.TID 0000.0001) //      8 vvvvwvvwyyzzzyyyzzzzzyzz+zywvvwwwvuttssttttttssttssttuuttssrsstuvwwvuttttuuuu...rqrrrrrsssttuuvvvv
(PID.TID 0000.0001) //      7 sttsstvxyxxwvvwwwwwwvvvvvvuttttttssrrrrstuuvvvvvvvvvvvvuutttttuuvvvusrrrstuvvvvrssrqqqqqqrrrssstts
(PID.TID 0000.0001) //      6 oooooqrsrrqpoppppppppooooooooooonnmmmnopqsttuuuttuutttsssssssssrrrqpooopqrssssrrqppoonnnnoooopoooo
(PID.TID 0000.0001) //      5 kkkkllllkkjiiiiiijjjjjiiiii..iihhggghijlmnopppppopppoonoooqqqponmmlkklmmnnnnmmmm..lllkkkkkkkkkkkkk
(PID.TID 0000.0001) //      4 hhhgggggff.................................llllmmllmmmnnnnnooonmlkjjkkkkkkkkjj....jkjjjjjjiiiihhhg
(PID.TID 0000.0001) //      3 ..............................................llm.llmmnnnnnnnmmmmllllll...........kkkkjjjjii......
(PID.TID 0000.0001) //      2 ..............................................kkl.kkllllm............................jjj..........
(PID.TID 0000.0001) //      1 ..................................................................................................
(PID.TID 0000.0001) //      0 ..................................................................................................
(PID.TID 0000.0001) //     -1 jjjjjiii........................................................................lk..........jjjjjj
(PID.TID 0000.0001) // =======================================================
(PID.TID 0000.0001) // END OF FIELD                                          =
(PID.TID 0000.0001) // =======================================================
(PID.TID 0000.0001) 
(PID.TID 0000.0001) // =======================================================
(PID.TID 0000.0001) // Field WIND_STRESS_CLIMATOLOGY FV at iteration          1
(PID.TID 0000.0001) // CMIN =         -7.049009948968887E-02
(PID.TID 0000.0001) // CMAX =          8.463316410779953E-02
(PID.TID 0000.0001) // CINT =          5.745306059166237E-03
(PID.TID 0000.0001) // SYMBOLS (CMIN->CMAX): -abcdefghijklmnopqrstuvwxyz+
(PID.TID 0000.0001) //                  0.0: .
(PID.TID 0000.0001) // RANGE I (Lo:Hi:Step):(  -1:  92:   1)
(PID.TID 0000.0001) // RANGE J (Lo:Hi:Step):(  42:  -1:  -1)
(PID.TID 0000.0001) // RANGE K (Lo:Hi:Step):(   1:   1:   1)
(PID.TID 0000.0001) // =======================================================
(PID.TID 0000.0001) K =   1
(PID.TID 0000.0001) //                I=8       I=18      I=28      I=38      I=44      I=54      I=64      I=74      I=84
(PID.TID 0000.0001) // |--J--|101234567|901234567|901234567|901234567|901234567|567890123|567890123|567890123|567890123|56789012
(PID.TID 0000.0001) //     42 ..................................................................................................
(PID.TID 0000.0001) //     41 ..................................................................................................
(PID.TID 0000.0001) //     40 ..................................................................................................
(PID.TID 0000.0001) //     39 hiijkl..........................................................................ii.........gghhiij
(PID.TID 0000.0001) //     38 klmo............................................................................if..........jjklmo
(PID.TID 0000.0001) //     37 noq.............................................................................ihg...-fjm..mmnoq.
(PID.TID 0000.0001) //     36 ..p..........................................ggghggghi...........................hhf.cinpqqqqq..p.
(PID.TID 0000.0001) //     35 ......................................ghi.hikklllkllllkk.mprssr...................ijijlnoppqqo....
(PID.TID 0000.0001) //     34 ......................................hhiiklmnnnonnnonnnoppqqqqp...................lmnoooooonn....
(PID.TID 0000.0001) //     33 ......................................iiijkmmnnnnnnnnnnoooooonmmn...............lk.llmoponmlll....
(PID.TID 0000.0001) //     32 ......................................ihhijkklmmnlmmnnnnnooonmkih...............iijkkmnonmljh.....
(PID.TID 0000.0001) //     31 ......................................gghijkllmmmlmmmmnnnnnnmkida.............hijlmnnnnnmljhe.....
(PID.TID 0000.0001) //     30 .....................................iijllmmmmmllmmlllllmmmmljgc-............kllmnnnnmmmljhfef....
(PID.TID 0000.0001) //     29 .................................dfijkllmmmmlllkkllkkkkkllllkigebbe.........lmmmmmmllllkjigec.....
(PID.TID 0000.0001) //     28 .................................eijkkkkllkkkjjjjjjjjjjjkkkkjigedcc......kk.llmllllllkkjigec......
(PID.TID 0000.0001) //     27 .................................hijjkkkkkkkjjiiijiiiiiijjjihgfedddeh...k.kkkklllkkkkjihgebb......
(PID.TID 0000.0001) //     26 .................plk....o.....ge.iijjjkkkkjjiiiiiiiiiiiiihhgfeedccdfgi.....jkklkkkjjiigfdcab......
(PID.TID 0000.0001) //     25 ...............rsplj..ooon...jhi.jjjjjjkjjiiiiihhiihhhhggfffedddddeghjk....ihi.kkjiihgfedccg......
(PID.TID 0000.0001) //     24 ...............trnkjj.noon...hjk.jkkkjjjjihhhhggghggggffgggffggghijkllljjj.......iihggffffgj......
(PID.TID 0000.0001) //     23 ...............qnlkkkknoon..kj..kllkkkkkjjjjjiijjiijjjjkkllmmnnopqqrrqqpooo........hhiiijklno.....
(PID.TID 0000.0001) //     22 rrrq..........onmlllllnnnm......lmmlkllllkkllllmmllmmmmnnoopqqqqqrrrrsstttsq........jlnnopqqrsrrrq
(PID.TID 0000.0001) //     21 sssr.........poonmmmmmnnnmm.......m...lmllkkkkkkkkkkkklllmmnoonoopppqqqqqqr............qqqrrrssssr
(PID.TID 0000.0001) //     20 ttsrp.......qqrppoooooooonn.......o....nnmllkkkkjkkkjjjjkllmmnnopqqrrsssrrs............pqrssssttsr
(PID.TID 0000.0001) //     19 tttsq.......pqtsrqqqqrrrrqqqp.onmm.....oqponnllllllllkkkkklllmnnopqqrssssttt...........ppqrsstttts
(PID.TID 0000.0001) //     18 stuus.......o..tssssrstuuuutsrpon......ssrqqpoooooooonmmmmmmlmmmnnoopqqrstuut..........nnopqrsstuu
(PID.TID 0000.0001) //     17 stvww.......o..rrrrrsttuvvvvutr........rssrrrqpppqpppppoonnmmmmmmmmnnnopqrsuu..........lllmopqstvw
(PID.TID 0000.0001) //     16 qsvxy......rq.noppqqrrrstuuvwx..........srrrrrqqqrqqqqqqpponmmmmlllllmmopqsuvt........jkkllmnpqsvx
(PID.TID 0000.0001) //     15 pqtx+......qr.lmnoppqppqrrsuxz...........qqqqqpppqppppppppoonnmlllkkklmmopqsvv.......jjkllllmopqtx
(PID.TID 0000.0001) //     14 noqtyz....mopnmnnnopppppqqrsvx...........pppppopppopppppppoonmmllkkkllmmnoprvy......llkkklkklmnoqt
(PID.TID 0000.0001) //     13 lmopsu...mlmmmmmnnnnooopppqrst..........qpppoooooooooopppoonmmmllkjklmnmmopruw.....mmllkkkkkkklmop
(PID.TID 0000.0001) //     12 jkklnqqonmlllllllmlmmnnoooooopp.mlmn....qqppp.nnn.nnnnooooonmmmmljjjllkklmnpq.....mmlllmlllkjijkkl
(PID.TID 0000.0001) //     11 jjjjlmmmllkjjjjkklkkllmmmmmlllkkkkjklllnopoo..onn.onnmmlllllkllmllkkkkkllllmm....klllmmmmllkjijjjj
(PID.TID 0000.0001) //     10 hiiiiijiiiihgghiijjjklllkkjjjjjjiiiiijklmmnm.nnnmnnnmmlllkkkkkllllkkkkllllkji...kkllmmnmllkkiihiii
(PID.TID 0000.0001) //      9 ghhhhhgggggffffggghijkkjihhhhhiihhhgghiijjkkkklllkllllkkklllkkkkkklmmlkkkjhge...llllmmmmlllkihghhh
(PID.TID 0000.0001) //      8 hhhhhhhgggggggggggghijkjjihhhiiihgfffggghhhhhhijkhijkkjjjklllkjjjkmnnlkjihgee..klmmmmllllllkjihhhh
(PID.TID 0000.0001) //      7 kllkkkkjjihhghhiijjkllmmnmlmllkjhhghhiihhhhhhiijkiijkkkjjklmmmllllnoonmkjiihgghjlmnnnmmmmmmmlkkllk
(PID.TID 0000.0001) //      6 mmnnooonmljkkkklmnooppppqqp.nnlkkklllllkkjjkkkllmkllmmmmmlllmmllmmnooonnmlkjiiij.mnnnnnnnnnnnmmmnn
(PID.TID 0000.0001) //      5 ooopqqqpon.m..............................nnooonnoonnmmlllkkkllmnnooopponmlkkj...lmmnnnnoonoooooop
(PID.TID 0000.0001) //      4 .............................................srqosrqonnmllllmmnnooooooo..........kkklllllmno......
(PID.TID 0000.0001) //      3 .............................................wvutwvutssrr...........................mmmm..........
(PID.TID 0000.0001) //      2 ..................................................................................................
(PID.TID 0000.0001) //      1 ..................................................................................................
(PID.TID 0000.0001) //      0 ..................................................................................................
(PID.TID 0000.0001) //     -1 hiijkl..........................................................................ii.........gghhiij
(PID.TID 0000.0001) // =======================================================
(PID.TID 0000.0001) // END OF FIELD                                          =
(PID.TID 0000.0001) // =======================================================
(PID.TID 0000.0001) 
 SH  5.22138922  23.2965364
 NH  10.4779825  25.5643986
 SH  5.22138922  23.2965364
 NH  10.4779825  25.5643986
  5.22138922  23.2965364
  10.4779825  25.5643986
(PID.TID 0000.0001) // =======================================================
(PID.TID 0000.0001) // Model current state
(PID.TID 0000.0001) // =======================================================
(PID.TID 0000.0001) 
(PID.TID 0000.0001) // =======================================================
(PID.TID 0000.0001) // Begin MONITOR dynamic field statistics
(PID.TID 0000.0001) // =======================================================
(PID.TID 0000.0001) %MON time_tsnumber                =                     0
(PID.TID 0000.0001) %MON time_secondsf                =   0.0000000000000E+00
(PID.TID 0000.0001) %MON dynstat_eta_max              =   0.0000000000000E+00
(PID.TID 0000.0001) %MON dynstat_eta_min              =   0.0000000000000E+00
(PID.TID 0000.0001) %MON dynstat_eta_mean             =   0.0000000000000E+00
(PID.TID 0000.0001) %MON dynstat_eta_sd               =   0.0000000000000E+00
(PID.TID 0000.0001) %MON dynstat_eta_del2             =   0.0000000000000E+00
(PID.TID 0000.0001) %MON dynstat_uvel_max             =   0.0000000000000E+00
(PID.TID 0000.0001) %MON dynstat_uvel_min             =   0.0000000000000E+00
(PID.TID 0000.0001) %MON dynstat_uvel_mean            =   0.0000000000000E+00
(PID.TID 0000.0001) %MON dynstat_uvel_sd              =   0.0000000000000E+00
(PID.TID 0000.0001) %MON dynstat_uvel_del2            =   0.0000000000000E+00
(PID.TID 0000.0001) %MON dynstat_vvel_max             =   0.0000000000000E+00
(PID.TID 0000.0001) %MON dynstat_vvel_min             =   0.0000000000000E+00
(PID.TID 0000.0001) %MON dynstat_vvel_mean            =   0.0000000000000E+00
(PID.TID 0000.0001) %MON dynstat_vvel_sd              =   0.0000000000000E+00
(PID.TID 0000.0001) %MON dynstat_vvel_del2            =   0.0000000000000E+00
(PID.TID 0000.0001) %MON dynstat_wvel_max             =   0.0000000000000E+00
(PID.TID 0000.0001) %MON dynstat_wvel_min             =   0.0000000000000E+00
(PID.TID 0000.0001) %MON dynstat_wvel_mean            =   0.0000000000000E+00
(PID.TID 0000.0001) %MON dynstat_wvel_sd              =   0.0000000000000E+00
(PID.TID 0000.0001) %MON dynstat_wvel_del2            =   0.0000000000000E+00
(PID.TID 0000.0001) %MON dynstat_theta_max            =   2.9329580307007E+01
(PID.TID 0000.0001) %MON dynstat_theta_min            =  -1.8507585525513E+00
(PID.TID 0000.0001) %MON dynstat_theta_mean           =   3.4385862740247E+00
(PID.TID 0000.0001) %MON dynstat_theta_sd             =   4.1126810597649E+00
(PID.TID 0000.0001) %MON dynstat_theta_del2           =   1.3650057162091E-01
(PID.TID 0000.0001) %MON dynstat_salt_max             =   3.7439460754395E+01
(PID.TID 0000.0001) %MON dynstat_salt_min             =   3.1028352737427E+01
(PID.TID 0000.0001) %MON dynstat_salt_mean            =   3.4715046474651E+01
(PID.TID 0000.0001) %MON dynstat_salt_sd              =   2.7634376761930E-01
(PID.TID 0000.0001) %MON dynstat_salt_del2            =   2.2114221965762E-02
(PID.TID 0000.0001) %MON extforcing_qnet_max          =   1.3199699378074E+02
(PID.TID 0000.0001) %MON extforcing_qnet_min          =  -3.5049632626826E+01
(PID.TID 0000.0001) %MON extforcing_qnet_mean         =  -6.8984597587585E-01
(PID.TID 0000.0001) %MON extforcing_qnet_sd           =   2.2692319455199E+01
(PID.TID 0000.0001) %MON extforcing_qnet_del2         =   7.3170735557021E-01
(PID.TID 0000.0001) %MON extforcing_qsw_max           =   0.0000000000000E+00
(PID.TID 0000.0001) %MON extforcing_qsw_min           =   0.0000000000000E+00
(PID.TID 0000.0001) %MON extforcing_qsw_mean          =   0.0000000000000E+00
(PID.TID 0000.0001) %MON extforcing_qsw_sd            =   0.0000000000000E+00
(PID.TID 0000.0001) %MON extforcing_qsw_del2          =   0.0000000000000E+00
(PID.TID 0000.0001) %MON extforcing_empmr_max         =   3.7600376873116E-08
(PID.TID 0000.0001) %MON extforcing_empmr_min         =  -1.7559555290034E-08
(PID.TID 0000.0001) %MON extforcing_empmr_mean        =   1.5643227351799E-09
(PID.TID 0000.0001) %MON extforcing_empmr_sd          =   1.1909003157175E-08
(PID.TID 0000.0001) %MON extforcing_empmr_del2        =   7.5296825504468E-10
(PID.TID 0000.0001) %MON extforcing_fu_max            =   1.6004334390163E-01
(PID.TID 0000.0001) %MON extforcing_fu_min            =  -9.4522543251514E-02
(PID.TID 0000.0001) %MON extforcing_fu_mean           =   8.5992284308032E-03
(PID.TID 0000.0001) %MON extforcing_fu_sd             =   5.4886212407859E-02
(PID.TID 0000.0001) %MON extforcing_fu_del2           =   4.0584634930923E-03
(PID.TID 0000.0001) %MON extforcing_fv_max            =   8.4633164107800E-02
(PID.TID 0000.0001) %MON extforcing_fv_min            =  -6.4357943832874E-02
(PID.TID 0000.0001) %MON extforcing_fv_mean           =   4.7509436927857E-03
(PID.TID 0000.0001) %MON extforcing_fv_sd             =   2.1727465082870E-02
(PID.TID 0000.0001) %MON extforcing_fv_del2           =   2.4257951826325E-03
(PID.TID 0000.0001) %MON advcfl_uvel_max              =   0.0000000000000E+00
(PID.TID 0000.0001) %MON advcfl_vvel_max              =   0.0000000000000E+00
(PID.TID 0000.0001) %MON advcfl_wvel_max              =   0.0000000000000E+00
(PID.TID 0000.0001) %MON advcfl_W_hf_max              =   0.0000000000000E+00
(PID.TID 0000.0001) %MON pe_b_mean                    =   0.0000000000000E+00
(PID.TID 0000.0001) %MON ke_max                       =   0.0000000000000E+00
(PID.TID 0000.0001) %MON ke_mean                      =   0.0000000000000E+00
(PID.TID 0000.0001) %MON ke_vol                       =   1.4101703507225E+18
(PID.TID 0000.0001) %MON vort_r_min                   =   0.0000000000000E+00
(PID.TID 0000.0001) %MON vort_r_max                   =   0.0000000000000E+00
(PID.TID 0000.0001) %MON vort_a_mean                  =  -1.9922043059714E-05
(PID.TID 0000.0001) %MON vort_a_sd                    =   7.3517359474083E-05
(PID.TID 0000.0001) %MON vort_p_mean                  =  -2.3665444248068E-05
(PID.TID 0000.0001) %MON vort_p_sd                    =   1.0341451660816E-04
(PID.TID 0000.0001) %MON surfExpan_theta_mean         =   0.0000000000000E+00
(PID.TID 0000.0001) %MON surfExpan_salt_mean          =   0.0000000000000E+00
(PID.TID 0000.0001) // =======================================================
(PID.TID 0000.0001) // End MONITOR dynamic field statistics
(PID.TID 0000.0001) // =======================================================
 SH  5.22138922  23.2965364
 NH  10.4779825  25.5643986
 SH  5.22138922  23.2965364
 NH  10.4779825  25.5643986
 cg2d: Sum(rhs),rhsMax =   5.20177798892619E-03  7.56856566341524E+00
(PID.TID 0000.0001)                    cg2d_init_res =    2.96826516558781E+00
(PID.TID 0000.0001)                       cg2d_iters =    22
(PID.TID 0000.0001)                         cg2d_res =    7.97954301827856E-14
(PID.TID 0000.0001) // =======================================================
(PID.TID 0000.0001) // Begin MONITOR dynamic field statistics
(PID.TID 0000.0001) // =======================================================
(PID.TID 0000.0001) %MON time_tsnumber                =                     1
(PID.TID 0000.0001) %MON time_secondsf                =   4.3200000000000E+04
(PID.TID 0000.0001) %MON dynstat_eta_max              =   3.7649399131779E-01
(PID.TID 0000.0001) %MON dynstat_eta_min              =  -1.7612323135071E-01
(PID.TID 0000.0001) %MON dynstat_eta_mean             =  -1.8771872821500E-06
(PID.TID 0000.0001) %MON dynstat_eta_sd               =   2.7747059256376E-02
(PID.TID 0000.0001) %MON dynstat_eta_del2             =   1.0070951810222E-02
(PID.TID 0000.0001) %MON dynstat_uvel_max             =   4.1046482620899E-02
(PID.TID 0000.0001) %MON dynstat_uvel_min             =  -6.9949891341308E-02
(PID.TID 0000.0001) %MON dynstat_uvel_mean            =  -3.6664390112758E-04
(PID.TID 0000.0001) %MON dynstat_uvel_sd              =   1.3806802673502E-03
(PID.TID 0000.0001) %MON dynstat_uvel_del2            =   2.9854432841346E-04
(PID.TID 0000.0001) %MON dynstat_vvel_max             =   6.0208692355544E-02
(PID.TID 0000.0001) %MON dynstat_vvel_min             =  -9.0703836573081E-02
(PID.TID 0000.0001) %MON dynstat_vvel_mean            =   9.8155253965385E-04
(PID.TID 0000.0001) %MON dynstat_vvel_sd              =   3.5442114345614E-03
(PID.TID 0000.0001) %MON dynstat_vvel_del2            =   4.6566338862922E-04
(PID.TID 0000.0001) %MON dynstat_wvel_max             =   3.6127898973961E-04
(PID.TID 0000.0001) %MON dynstat_wvel_min             =  -2.0231725322387E-04
(PID.TID 0000.0001) %MON dynstat_wvel_mean            =  -8.3101895240328E-23
(PID.TID 0000.0001) %MON dynstat_wvel_sd              =   1.8907694040013E-05
(PID.TID 0000.0001) %MON dynstat_wvel_del2            =   7.8361568107037E-06
(PID.TID 0000.0001) %MON dynstat_theta_max            =   2.9312844901513E+01
(PID.TID 0000.0001) %MON dynstat_theta_min            =  -1.8502991122761E+00
(PID.TID 0000.0001) %MON dynstat_theta_mean           =   3.4385879792259E+00
(PID.TID 0000.0001) %MON dynstat_theta_sd             =   4.1125408863837E+00
(PID.TID 0000.0001) %MON dynstat_theta_del2           =   1.3649855432881E-01
(PID.TID 0000.0001) %MON dynstat_salt_max             =   3.7439172827326E+01
(PID.TID 0000.0001) %MON dynstat_salt_min             =   3.1029390096134E+01
(PID.TID 0000.0001) %MON dynstat_salt_mean            =   3.4715046457201E+01
(PID.TID 0000.0001) %MON dynstat_salt_sd              =   2.7632925832756E-01
(PID.TID 0000.0001) %MON dynstat_salt_del2            =   2.2120641418748E-02
(PID.TID 0000.0001) %MON extforcing_qnet_max          =   1.3199699378074E+02
(PID.TID 0000.0001) %MON extforcing_qnet_min          =  -3.5049632626826E+01
(PID.TID 0000.0001) %MON extforcing_qnet_mean         =  -6.8984597587585E-01
(PID.TID 0000.0001) %MON extforcing_qnet_sd           =   2.2692319455199E+01
(PID.TID 0000.0001) %MON extforcing_qnet_del2         =   7.3170735557021E-01
(PID.TID 0000.0001) %MON extforcing_qsw_max           =   0.0000000000000E+00
(PID.TID 0000.0001) %MON extforcing_qsw_min           =   0.0000000000000E+00
(PID.TID 0000.0001) %MON extforcing_qsw_mean          =   0.0000000000000E+00
(PID.TID 0000.0001) %MON extforcing_qsw_sd            =   0.0000000000000E+00
(PID.TID 0000.0001) %MON extforcing_qsw_del2          =   0.0000000000000E+00
(PID.TID 0000.0001) %MON extforcing_empmr_max         =   3.7600376873116E-08
(PID.TID 0000.0001) %MON extforcing_empmr_min         =  -1.7559555290034E-08
(PID.TID 0000.0001) %MON extforcing_empmr_mean        =   1.5643227351799E-09
(PID.TID 0000.0001) %MON extforcing_empmr_sd          =   1.1909003157175E-08
(PID.TID 0000.0001) %MON extforcing_empmr_del2        =   7.5296825504468E-10
(PID.TID 0000.0001) %MON extforcing_fu_max            =   1.6004334390163E-01
(PID.TID 0000.0001) %MON extforcing_fu_min            =  -9.4522543251514E-02
(PID.TID 0000.0001) %MON extforcing_fu_mean           =   8.5992284308032E-03
(PID.TID 0000.0001) %MON extforcing_fu_sd             =   5.4886212407859E-02
(PID.TID 0000.0001) %MON extforcing_fu_del2           =   4.0584634930923E-03
(PID.TID 0000.0001) %MON extforcing_fv_max            =   8.4633164107800E-02
(PID.TID 0000.0001) %MON extforcing_fv_min            =  -6.4357943832874E-02
(PID.TID 0000.0001) %MON extforcing_fv_mean           =   4.7509436927857E-03
(PID.TID 0000.0001) %MON extforcing_fv_sd             =   2.1727465082870E-02
(PID.TID 0000.0001) %MON extforcing_fv_del2           =   2.4257951826325E-03
(PID.TID 0000.0001) %MON advcfl_uvel_max              =   6.8998959363733E-03
(PID.TID 0000.0001) %MON advcfl_vvel_max              =   8.8111503657527E-03
(PID.TID 0000.0001) %MON advcfl_wvel_max              =   5.4212557788622E-01
(PID.TID 0000.0001) %MON advcfl_W_hf_max              =   5.4753777541052E-01
(PID.TID 0000.0001) %MON pe_b_mean                    =   8.9322549836776E-07
(PID.TID 0000.0001) %MON ke_max                       =   2.3546783249348E-03
(PID.TID 0000.0001) %MON ke_mean                      =   7.0957135008122E-06
(PID.TID 0000.0001) %MON ke_vol                       =   1.4101703507225E+18
(PID.TID 0000.0001) %MON vort_r_min                   =  -2.1402960237431E-07
(PID.TID 0000.0001) %MON vort_r_max                   =   2.0304683894478E-07
(PID.TID 0000.0001) %MON vort_a_mean                  =  -1.9922043059714E-05
(PID.TID 0000.0001) %MON vort_a_sd                    =   7.3517273567136E-05
(PID.TID 0000.0001) %MON vort_p_mean                  =  -2.3665444248068E-05
(PID.TID 0000.0001) %MON vort_p_sd                    =   1.0341438339718E-04
(PID.TID 0000.0001) %MON surfExpan_theta_mean         =   4.7431412020306E-05
(PID.TID 0000.0001) %MON surfExpan_salt_mean          =   3.9477470768745E-06
(PID.TID 0000.0001) // =======================================================
(PID.TID 0000.0001) // End MONITOR dynamic field statistics
(PID.TID 0000.0001) // =======================================================
 SH  5.22011963  23.2974981
 NH  10.4665383  25.56524
 SH  5.22011963  23.2974981
 NH  10.4665383  25.56524
 cg2d: Sum(rhs),rhsMax =   4.54546561421047E-03  1.73227570579398E+01
(PID.TID 0000.0001)                    cg2d_init_res =    1.45696829291935E+00
(PID.TID 0000.0001)                       cg2d_iters =    22
(PID.TID 0000.0001)                         cg2d_res =    5.26460585019746E-14
(PID.TID 0000.0001) // =======================================================
(PID.TID 0000.0001) // Begin MONITOR dynamic field statistics
(PID.TID 0000.0001) // =======================================================
(PID.TID 0000.0001) %MON time_tsnumber                =                     2
(PID.TID 0000.0001) %MON time_secondsf                =   8.6400000000000E+04
(PID.TID 0000.0001) %MON dynstat_eta_max              =   8.7733773844499E-01
(PID.TID 0000.0001) %MON dynstat_eta_min              =  -3.2136324984882E-01
(PID.TID 0000.0001) %MON dynstat_eta_mean             =  -3.7543745642721E-06
(PID.TID 0000.0001) %MON dynstat_eta_sd               =   6.4693937676242E-02
(PID.TID 0000.0001) %MON dynstat_eta_del2             =   1.9648719329089E-02
(PID.TID 0000.0001) %MON dynstat_uvel_max             =   7.4464784402096E-02
(PID.TID 0000.0001) %MON dynstat_uvel_min             =  -1.2538541692017E-01
(PID.TID 0000.0001) %MON dynstat_uvel_mean            =  -9.0949657801444E-04
(PID.TID 0000.0001) %MON dynstat_uvel_sd              =   2.5466390454774E-03
(PID.TID 0000.0001) %MON dynstat_uvel_del2            =   5.9982325827934E-04
(PID.TID 0000.0001) %MON dynstat_vvel_max             =   1.0851720143368E-01
(PID.TID 0000.0001) %MON dynstat_vvel_min             =  -1.5985414112728E-01
(PID.TID 0000.0001) %MON dynstat_vvel_mean            =   1.9084209878150E-03
(PID.TID 0000.0001) %MON dynstat_vvel_sd              =   6.5125282719118E-03
(PID.TID 0000.0001) %MON dynstat_vvel_del2            =   8.6737920140186E-04
(PID.TID 0000.0001) %MON dynstat_wvel_max             =   6.0866456878919E-04
(PID.TID 0000.0001) %MON dynstat_wvel_min             =  -3.1503886672113E-04
(PID.TID 0000.0001) %MON dynstat_wvel_mean            =  -1.6762433569844E-22
(PID.TID 0000.0001) %MON dynstat_wvel_sd              =   2.8674550838824E-05
(PID.TID 0000.0001) %MON dynstat_wvel_del2            =   9.4391752082843E-06
(PID.TID 0000.0001) %MON dynstat_theta_max            =   2.9287834256929E+01
(PID.TID 0000.0001) %MON dynstat_theta_min            =  -1.8502283440935E+00
(PID.TID 0000.0001) %MON dynstat_theta_mean           =   3.4378142601212E+00
(PID.TID 0000.0001) %MON dynstat_theta_sd             =   4.1109605953031E+00
(PID.TID 0000.0001) %MON dynstat_theta_del2           =   1.3449063556438E-01
(PID.TID 0000.0001) %MON dynstat_salt_max             =   3.7438783217680E+01
(PID.TID 0000.0001) %MON dynstat_salt_min             =   3.1030465732783E+01
(PID.TID 0000.0001) %MON dynstat_salt_mean            =   3.4714981893309E+01
(PID.TID 0000.0001) %MON dynstat_salt_sd              =   2.7634723066698E-01
(PID.TID 0000.0001) %MON dynstat_salt_del2            =   2.2038728038162E-02
(PID.TID 0000.0001) %MON extforcing_qnet_max          =   1.3078330892275E+02
(PID.TID 0000.0001) %MON extforcing_qnet_min          =  -3.5027312074403E+01
(PID.TID 0000.0001) %MON extforcing_qnet_mean         =  -6.9821980646693E-01
(PID.TID 0000.0001) %MON extforcing_qnet_sd           =   2.2554399938713E+01
(PID.TID 0000.0001) %MON extforcing_qnet_del2         =   7.3047786801464E-01
(PID.TID 0000.0001) %MON extforcing_qsw_max           =   0.0000000000000E+00
(PID.TID 0000.0001) %MON extforcing_qsw_min           =   0.0000000000000E+00
(PID.TID 0000.0001) %MON extforcing_qsw_mean          =   0.0000000000000E+00
(PID.TID 0000.0001) %MON extforcing_qsw_sd            =   0.0000000000000E+00
(PID.TID 0000.0001) %MON extforcing_qsw_del2          =   0.0000000000000E+00
(PID.TID 0000.0001) %MON extforcing_empmr_max         =   3.7600376873116E-08
(PID.TID 0000.0001) %MON extforcing_empmr_min         =  -1.7559555290034E-08
(PID.TID 0000.0001) %MON extforcing_empmr_mean        =   1.5643227351799E-09
(PID.TID 0000.0001) %MON extforcing_empmr_sd          =   1.1909003157175E-08
(PID.TID 0000.0001) %MON extforcing_empmr_del2        =   7.5296825504468E-10
(PID.TID 0000.0001) %MON extforcing_fu_max            =   1.6004334390163E-01
(PID.TID 0000.0001) %MON extforcing_fu_min            =  -9.4522543251514E-02
(PID.TID 0000.0001) %MON extforcing_fu_mean           =   8.5992284308032E-03
(PID.TID 0000.0001) %MON extforcing_fu_sd             =   5.4886212407859E-02
(PID.TID 0000.0001) %MON extforcing_fu_del2           =   4.0584634930923E-03
(PID.TID 0000.0001) %MON extforcing_fv_max            =   8.4633164107800E-02
(PID.TID 0000.0001) %MON extforcing_fv_min            =  -6.4357943832874E-02
(PID.TID 0000.0001) %MON extforcing_fv_mean           =   4.7509436927857E-03
(PID.TID 0000.0001) %MON extforcing_fv_sd             =   2.1727465082870E-02
(PID.TID 0000.0001) %MON extforcing_fv_del2           =   2.4257951826325E-03
(PID.TID 0000.0001) %MON advcfl_uvel_max              =   1.2368086813268E-02
(PID.TID 0000.0001) %MON advcfl_vvel_max              =   1.5528547934418E-02
(PID.TID 0000.0001) %MON advcfl_wvel_max              =   7.2118922625178E-01
(PID.TID 0000.0001) %MON advcfl_W_hf_max              =   7.3852209639778E-01
(PID.TID 0000.0001) %MON pe_b_mean                    =   4.8557280979983E-06
(PID.TID 0000.0001) %MON ke_max                       =   7.5949771932408E-03
(PID.TID 0000.0001) %MON ke_mean                      =   2.4330223196956E-05
(PID.TID 0000.0001) %MON ke_vol                       =   1.4101703507225E+18
(PID.TID 0000.0001) %MON vort_r_min                   =  -3.8214083539244E-07
(PID.TID 0000.0001) %MON vort_r_max                   =   3.6505323575259E-07
(PID.TID 0000.0001) %MON vort_a_mean                  =  -1.9922043059714E-05
(PID.TID 0000.0001) %MON vort_a_sd                    =   7.3517156732908E-05
(PID.TID 0000.0001) %MON vort_p_mean                  =  -2.3665444248068E-05
(PID.TID 0000.0001) %MON vort_p_sd                    =   1.0341417962218E-04
(PID.TID 0000.0001) %MON surfExpan_theta_mean         =   8.6222863604621E-05
(PID.TID 0000.0001) %MON surfExpan_salt_mean          =   7.5148473984285E-06
(PID.TID 0000.0001) // =======================================================
(PID.TID 0000.0001) // End MONITOR dynamic field statistics
(PID.TID 0000.0001) // =======================================================
 SH  5.221881  23.2969161
 NH  10.469728  25.5649376
 SH  5.221881  23.2969161
 NH  10.469728  25.5649376
 cg2d: Sum(rhs),rhsMax =   4.96514940539286E-03  2.37878027790246E+01
(PID.TID 0000.0001)                    cg2d_init_res =    8.53472688568431E-01
(PID.TID 0000.0001)                       cg2d_iters =    22
(PID.TID 0000.0001)                         cg2d_res =    4.20341767522625E-14
(PID.TID 0000.0001) // =======================================================
(PID.TID 0000.0001) // Begin MONITOR dynamic field statistics
(PID.TID 0000.0001) // =======================================================
(PID.TID 0000.0001) %MON time_tsnumber                =                     3
(PID.TID 0000.0001) %MON time_secondsf                =   1.2960000000000E+05
(PID.TID 0000.0001) %MON dynstat_eta_max              =   1.2382457214000E+00
(PID.TID 0000.0001) %MON dynstat_eta_min              =  -4.0269259005932E-01
(PID.TID 0000.0001) %MON dynstat_eta_mean             =  -5.6315618463980E-06
(PID.TID 0000.0001) %MON dynstat_eta_sd               =   9.9598500846818E-02
(PID.TID 0000.0001) %MON dynstat_eta_del2             =   2.3897222605185E-02
(PID.TID 0000.0001) %MON dynstat_uvel_max             =   9.4190440377632E-02
(PID.TID 0000.0001) %MON dynstat_uvel_min             =  -1.6623380237143E-01
(PID.TID 0000.0001) %MON dynstat_uvel_mean            =  -1.6002858424891E-03
(PID.TID 0000.0001) %MON dynstat_uvel_sd              =   3.6803832519852E-03
(PID.TID 0000.0001) %MON dynstat_uvel_del2            =   9.0870411965800E-04
(PID.TID 0000.0001) %MON dynstat_vvel_max             =   1.4472464400687E-01
(PID.TID 0000.0001) %MON dynstat_vvel_min             =  -2.1167876235957E-01
(PID.TID 0000.0001) %MON dynstat_vvel_mean            =   2.7551455620560E-03
(PID.TID 0000.0001) %MON dynstat_vvel_sd              =   8.9778346682345E-03
(PID.TID 0000.0001) %MON dynstat_vvel_del2            =   1.2552940819404E-03
(PID.TID 0000.0001) %MON dynstat_wvel_max             =   7.4163235545163E-04
(PID.TID 0000.0001) %MON dynstat_wvel_min             =  -3.6473106429459E-04
(PID.TID 0000.0001) %MON dynstat_wvel_mean            =   4.0911702272161E-22
(PID.TID 0000.0001) %MON dynstat_wvel_sd              =   3.2676902756660E-05
(PID.TID 0000.0001) %MON dynstat_wvel_del2            =   8.3081955935132E-06
(PID.TID 0000.0001) %MON dynstat_theta_max            =   2.9265158204186E+01
(PID.TID 0000.0001) %MON dynstat_theta_min            =  -1.8518203806376E+00
(PID.TID 0000.0001) %MON dynstat_theta_mean           =   3.4366971170594E+00
(PID.TID 0000.0001) %MON dynstat_theta_sd             =   4.1087591314108E+00
(PID.TID 0000.0001) %MON dynstat_theta_del2           =   1.3295634549820E-01
(PID.TID 0000.0001) %MON dynstat_salt_max             =   3.7438190635865E+01
(PID.TID 0000.0001) %MON dynstat_salt_min             =   3.1031083480242E+01
(PID.TID 0000.0001) %MON dynstat_salt_mean            =   3.4714883222763E+01
(PID.TID 0000.0001) %MON dynstat_salt_sd              =   2.7638222703076E-01
(PID.TID 0000.0001) %MON dynstat_salt_del2            =   2.1966240937818E-02
(PID.TID 0000.0001) %MON extforcing_qnet_max          =   1.3112815834323E+02
(PID.TID 0000.0001) %MON extforcing_qnet_min          =  -3.5048599266575E+01
(PID.TID 0000.0001) %MON extforcing_qnet_mean         =  -6.9680587914669E-01
(PID.TID 0000.0001) %MON extforcing_qnet_sd           =   2.2597710042733E+01
(PID.TID 0000.0001) %MON extforcing_qnet_del2         =   7.3100179660944E-01
(PID.TID 0000.0001) %MON extforcing_qsw_max           =   0.0000000000000E+00
(PID.TID 0000.0001) %MON extforcing_qsw_min           =   0.0000000000000E+00
(PID.TID 0000.0001) %MON extforcing_qsw_mean          =   0.0000000000000E+00
(PID.TID 0000.0001) %MON extforcing_qsw_sd            =   0.0000000000000E+00
(PID.TID 0000.0001) %MON extforcing_qsw_del2          =   0.0000000000000E+00
(PID.TID 0000.0001) %MON extforcing_empmr_max         =   3.7600376873116E-08
(PID.TID 0000.0001) %MON extforcing_empmr_min         =  -1.7559555290034E-08
(PID.TID 0000.0001) %MON extforcing_empmr_mean        =   1.5643227351799E-09
(PID.TID 0000.0001) %MON extforcing_empmr_sd          =   1.1909003157175E-08
(PID.TID 0000.0001) %MON extforcing_empmr_del2        =   7.5296825504468E-10
(PID.TID 0000.0001) %MON extforcing_fu_max            =   1.6004334390163E-01
(PID.TID 0000.0001) %MON extforcing_fu_min            =  -9.4522543251514E-02
(PID.TID 0000.0001) %MON extforcing_fu_mean           =   8.5992284308032E-03
(PID.TID 0000.0001) %MON extforcing_fu_sd             =   5.4886212407859E-02
(PID.TID 0000.0001) %MON extforcing_fu_del2           =   4.0584634930923E-03
(PID.TID 0000.0001) %MON extforcing_fv_max            =   8.4633164107800E-02
(PID.TID 0000.0001) %MON extforcing_fv_min            =  -6.4357943832874E-02
(PID.TID 0000.0001) %MON extforcing_fv_mean           =   4.7509436927857E-03
(PID.TID 0000.0001) %MON extforcing_fv_sd             =   2.1727465082870E-02
(PID.TID 0000.0001) %MON extforcing_fv_del2           =   2.4257951826325E-03
(PID.TID 0000.0001) %MON advcfl_uvel_max              =   1.6397394127089E-02
(PID.TID 0000.0001) %MON advcfl_vvel_max              =   2.0562894303637E-02
(PID.TID 0000.0001) %MON advcfl_wvel_max              =   5.1968172584389E-01
(PID.TID 0000.0001) %MON advcfl_W_hf_max              =   5.5268210996611E-01
(PID.TID 0000.0001) %MON pe_b_mean                    =   1.1508872828893E-05
(PID.TID 0000.0001) %MON ke_max                       =   1.3519135454119E-02
(PID.TID 0000.0001) %MON ke_mean                      =   4.7561547336911E-05
(PID.TID 0000.0001) %MON ke_vol                       =   1.4101703507225E+18
(PID.TID 0000.0001) %MON vort_r_min                   =  -5.0881784149008E-07
(PID.TID 0000.0001) %MON vort_r_max                   =   4.9261604976316E-07
(PID.TID 0000.0001) %MON vort_a_mean                  =  -1.9922043059714E-05
(PID.TID 0000.0001) %MON vort_a_sd                    =   7.3517014091806E-05
(PID.TID 0000.0001) %MON vort_p_mean                  =  -2.3665444248068E-05
(PID.TID 0000.0001) %MON vort_p_sd                    =   1.0341390549727E-04
(PID.TID 0000.0001) %MON surfExpan_theta_mean         =   1.1737039328881E-04
(PID.TID 0000.0001) %MON surfExpan_salt_mean          =   1.0336268234861E-05
(PID.TID 0000.0001) // =======================================================
(PID.TID 0000.0001) // End MONITOR dynamic field statistics
(PID.TID 0000.0001) // =======================================================
 SH  5.22475981  23.2936357
 NH  10.4778802  25.5611176
 SH  5.22475981  23.2936357
 NH  10.4778802  25.5611176
 cg2d: Sum(rhs),rhsMax =   6.09360811040563E-03  2.58434724131632E+01
(PID.TID 0000.0001)                    cg2d_init_res =    7.25508980532943E-01
(PID.TID 0000.0001)                       cg2d_iters =    22
(PID.TID 0000.0001)                         cg2d_res =    4.03731441425870E-14
(PID.TID 0000.0001) // =======================================================
(PID.TID 0000.0001) // Begin MONITOR dynamic field statistics
(PID.TID 0000.0001) // =======================================================
(PID.TID 0000.0001) %MON time_tsnumber                =                     4
(PID.TID 0000.0001) %MON time_secondsf                =   1.7280000000000E+05
(PID.TID 0000.0001) %MON dynstat_eta_max              =   1.3893809898901E+00
(PID.TID 0000.0001) %MON dynstat_eta_min              =  -5.1940062829342E-01
(PID.TID 0000.0001) %MON dynstat_eta_mean             =  -7.5087491285813E-06
(PID.TID 0000.0001) %MON dynstat_eta_sd               =   1.3186638380336E-01
(PID.TID 0000.0001) %MON dynstat_eta_del2             =   2.4353330174192E-02
(PID.TID 0000.0001) %MON dynstat_uvel_max             =   1.0982853537384E-01
(PID.TID 0000.0001) %MON dynstat_uvel_min             =  -2.0261473666904E-01
(PID.TID 0000.0001) %MON dynstat_uvel_mean            =  -2.4101910736116E-03
(PID.TID 0000.0001) %MON dynstat_uvel_sd              =   4.8981397963803E-03
(PID.TID 0000.0001) %MON dynstat_uvel_del2            =   1.1885378845002E-03
(PID.TID 0000.0001) %MON dynstat_vvel_max             =   1.7797057475298E-01
(PID.TID 0000.0001) %MON dynstat_vvel_min             =  -2.5869317664389E-01
(PID.TID 0000.0001) %MON dynstat_vvel_mean            =   3.5015658351674E-03
(PID.TID 0000.0001) %MON dynstat_vvel_sd              =   1.1075029110386E-02
(PID.TID 0000.0001) %MON dynstat_vvel_del2            =   1.6335745220198E-03
(PID.TID 0000.0001) %MON dynstat_wvel_max             =   8.6183155704253E-04
(PID.TID 0000.0001) %MON dynstat_wvel_min             =  -4.4569400539615E-04
(PID.TID 0000.0001) %MON dynstat_wvel_mean            =   5.2276064014429E-22
(PID.TID 0000.0001) %MON dynstat_wvel_sd              =   3.6051503113575E-05
(PID.TID 0000.0001) %MON dynstat_wvel_del2            =   8.2400366492081E-06
(PID.TID 0000.0001) %MON dynstat_theta_max            =   2.9246356983747E+01
(PID.TID 0000.0001) %MON dynstat_theta_min            =  -1.8528137093675E+00
(PID.TID 0000.0001) %MON dynstat_theta_mean           =   3.4353085824574E+00
(PID.TID 0000.0001) %MON dynstat_theta_sd             =   4.1060064566352E+00
(PID.TID 0000.0001) %MON dynstat_theta_del2           =   1.3200733510004E-01
(PID.TID 0000.0001) %MON dynstat_salt_max             =   3.7437381874651E+01
(PID.TID 0000.0001) %MON dynstat_salt_min             =   3.1030640162657E+01
(PID.TID 0000.0001) %MON dynstat_salt_mean            =   3.4714760306626E+01
(PID.TID 0000.0001) %MON dynstat_salt_sd              =   2.7642289685340E-01
(PID.TID 0000.0001) %MON dynstat_salt_del2            =   2.1901206682646E-02
(PID.TID 0000.0001) %MON extforcing_qnet_max          =   1.3229671483271E+02
(PID.TID 0000.0001) %MON extforcing_qnet_min          =  -3.5113341847223E+01
(PID.TID 0000.0001) %MON extforcing_qnet_mean         =  -6.9989798480728E-01
(PID.TID 0000.0001) %MON extforcing_qnet_sd           =   2.2742113115473E+01
(PID.TID 0000.0001) %MON extforcing_qnet_del2         =   7.3250112466089E-01
(PID.TID 0000.0001) %MON extforcing_qsw_max           =   0.0000000000000E+00
(PID.TID 0000.0001) %MON extforcing_qsw_min           =   0.0000000000000E+00
(PID.TID 0000.0001) %MON extforcing_qsw_mean          =   0.0000000000000E+00
(PID.TID 0000.0001) %MON extforcing_qsw_sd            =   0.0000000000000E+00
(PID.TID 0000.0001) %MON extforcing_qsw_del2          =   0.0000000000000E+00
(PID.TID 0000.0001) %MON extforcing_empmr_max         =   3.7600376873116E-08
(PID.TID 0000.0001) %MON extforcing_empmr_min         =  -1.7559555290034E-08
(PID.TID 0000.0001) %MON extforcing_empmr_mean        =   1.5643227351799E-09
(PID.TID 0000.0001) %MON extforcing_empmr_sd          =   1.1909003157175E-08
(PID.TID 0000.0001) %MON extforcing_empmr_del2        =   7.5296825504468E-10
(PID.TID 0000.0001) %MON extforcing_fu_max            =   1.6004334390163E-01
(PID.TID 0000.0001) %MON extforcing_fu_min            =  -9.4522543251514E-02
(PID.TID 0000.0001) %MON extforcing_fu_mean           =   8.5992284308032E-03
(PID.TID 0000.0001) %MON extforcing_fu_sd             =   5.4886212407859E-02
(PID.TID 0000.0001) %MON extforcing_fu_del2           =   4.0584634930923E-03
(PID.TID 0000.0001) %MON extforcing_fv_max            =   8.4633164107800E-02
(PID.TID 0000.0001) %MON extforcing_fv_min            =  -6.4357943832874E-02
(PID.TID 0000.0001) %MON extforcing_fv_mean           =   4.7509436927857E-03
(PID.TID 0000.0001) %MON extforcing_fv_sd             =   2.1727465082870E-02
(PID.TID 0000.0001) %MON extforcing_fv_del2           =   2.4257951826325E-03
(PID.TID 0000.0001) %MON advcfl_uvel_max              =   1.9986029590392E-02
(PID.TID 0000.0001) %MON advcfl_vvel_max              =   2.5129967641082E-02
(PID.TID 0000.0001) %MON advcfl_wvel_max              =   2.3289553651129E-01
(PID.TID 0000.0001) %MON advcfl_W_hf_max              =   2.6648216377012E-01
(PID.TID 0000.0001) %MON pe_b_mean                    =   2.0174156312117E-05
(PID.TID 0000.0001) %MON ke_max                       =   2.0308561985306E-02
(PID.TID 0000.0001) %MON ke_mean                      =   7.5142659048855E-05
(PID.TID 0000.0001) %MON ke_vol                       =   1.4101703507225E+18
(PID.TID 0000.0001) %MON vort_r_min                   =  -6.1369921816431E-07
(PID.TID 0000.0001) %MON vort_r_max                   =   6.0817880721392E-07
(PID.TID 0000.0001) %MON vort_a_mean                  =  -1.9922043059714E-05
(PID.TID 0000.0001) %MON vort_a_sd                    =   7.3516850645770E-05
(PID.TID 0000.0001) %MON vort_p_mean                  =  -2.3665444248068E-05
(PID.TID 0000.0001) %MON vort_p_sd                    =   1.0341355548787E-04
(PID.TID 0000.0001) %MON surfExpan_theta_mean         =   1.4192204583840E-04
(PID.TID 0000.0001) %MON surfExpan_salt_mean          =   1.2334846298514E-05
(PID.TID 0000.0001) // =======================================================
(PID.TID 0000.0001) // End MONITOR dynamic field statistics
(PID.TID 0000.0001) // =======================================================
 SH  5.22854807  23.2864836
 NH  10.4885163  25.5549344
 SH  5.22854807  23.2864836
 NH  10.4885163  25.5549344
 cg2d: Sum(rhs),rhsMax =   7.79868349194379E-03  2.52414387089547E+01
(PID.TID 0000.0001)                    cg2d_init_res =    7.20223623141723E-01
(PID.TID 0000.0001)                       cg2d_iters =    22
(PID.TID 0000.0001)                         cg2d_res =    4.12566594428249E-14
(PID.TID 0000.0001) // =======================================================
(PID.TID 0000.0001) // Begin MONITOR dynamic field statistics
(PID.TID 0000.0001) // =======================================================
(PID.TID 0000.0001) %MON time_tsnumber                =                     5
(PID.TID 0000.0001) %MON time_secondsf                =   2.1600000000000E+05
(PID.TID 0000.0001) %MON dynstat_eta_max              =   1.3947265889200E+00
(PID.TID 0000.0001) %MON dynstat_eta_min              =  -6.1723015808116E-01
(PID.TID 0000.0001) %MON dynstat_eta_mean             =  -9.3859364107737E-06
(PID.TID 0000.0001) %MON dynstat_eta_sd               =   1.6297361490357E-01
(PID.TID 0000.0001) %MON dynstat_eta_del2             =   2.3402096030529E-02
(PID.TID 0000.0001) %MON dynstat_uvel_max             =   1.3797147298797E-01
(PID.TID 0000.0001) %MON dynstat_uvel_min             =  -2.3958790057115E-01
(PID.TID 0000.0001) %MON dynstat_uvel_mean            =  -3.3069650975234E-03
(PID.TID 0000.0001) %MON dynstat_uvel_sd              =   6.1978436715192E-03
(PID.TID 0000.0001) %MON dynstat_uvel_del2            =   1.4331173917798E-03
(PID.TID 0000.0001) %MON dynstat_vvel_max             =   2.1306255432418E-01
(PID.TID 0000.0001) %MON dynstat_vvel_min             =  -3.0867285603617E-01
(PID.TID 0000.0001) %MON dynstat_vvel_mean            =   4.1295734586011E-03
(PID.TID 0000.0001) %MON dynstat_vvel_sd              =   1.2835794350792E-02
(PID.TID 0000.0001) %MON dynstat_vvel_del2            =   1.9645243217110E-03
(PID.TID 0000.0001) %MON dynstat_wvel_max             =   9.9974297460805E-04
(PID.TID 0000.0001) %MON dynstat_wvel_min             =  -5.6820316403419E-04
(PID.TID 0000.0001) %MON dynstat_wvel_mean            =  -1.5910106439174E-22
(PID.TID 0000.0001) %MON dynstat_wvel_sd              =   4.0208128827209E-05
(PID.TID 0000.0001) %MON dynstat_wvel_del2            =   9.2861697328908E-06
(PID.TID 0000.0001) %MON dynstat_theta_max            =   2.9227107540204E+01
(PID.TID 0000.0001) %MON dynstat_theta_min            =  -1.8536479517110E+00
(PID.TID 0000.0001) %MON dynstat_theta_mean           =   3.4337096550614E+00
(PID.TID 0000.0001) %MON dynstat_theta_sd             =   4.1027830650521E+00
(PID.TID 0000.0001) %MON dynstat_theta_del2           =   1.3150315838641E-01
(PID.TID 0000.0001) %MON dynstat_salt_max             =   3.7436365960253E+01
(PID.TID 0000.0001) %MON dynstat_salt_min             =   3.1028656752108E+01
(PID.TID 0000.0001) %MON dynstat_salt_mean            =   3.4714622029004E+01
(PID.TID 0000.0001) %MON dynstat_salt_sd              =   2.7646294998642E-01
(PID.TID 0000.0001) %MON dynstat_salt_del2            =   2.1842832559243E-02
(PID.TID 0000.0001) %MON extforcing_qnet_max          =   1.3393195834846E+02
(PID.TID 0000.0001) %MON extforcing_qnet_min          =  -3.5234928042289E+01
(PID.TID 0000.0001) %MON extforcing_qnet_mean         =  -7.1140065893506E-01
(PID.TID 0000.0001) %MON extforcing_qnet_sd           =   2.2951557491570E+01
(PID.TID 0000.0001) %MON extforcing_qnet_del2         =   7.3493299612055E-01
(PID.TID 0000.0001) %MON extforcing_qsw_max           =   0.0000000000000E+00
(PID.TID 0000.0001) %MON extforcing_qsw_min           =   0.0000000000000E+00
(PID.TID 0000.0001) %MON extforcing_qsw_mean          =   0.0000000000000E+00
(PID.TID 0000.0001) %MON extforcing_qsw_sd            =   0.0000000000000E+00
(PID.TID 0000.0001) %MON extforcing_qsw_del2          =   0.0000000000000E+00
(PID.TID 0000.0001) %MON extforcing_empmr_max         =   3.7600376873116E-08
(PID.TID 0000.0001) %MON extforcing_empmr_min         =  -1.7559555290034E-08
(PID.TID 0000.0001) %MON extforcing_empmr_mean        =   1.5643227351799E-09
(PID.TID 0000.0001) %MON extforcing_empmr_sd          =   1.1909003157175E-08
(PID.TID 0000.0001) %MON extforcing_empmr_del2        =   7.5296825504468E-10
(PID.TID 0000.0001) %MON extforcing_fu_max            =   1.6004334390163E-01
(PID.TID 0000.0001) %MON extforcing_fu_min            =  -9.4522543251514E-02
(PID.TID 0000.0001) %MON extforcing_fu_mean           =   8.5992284308032E-03
(PID.TID 0000.0001) %MON extforcing_fu_sd             =   5.4886212407859E-02
(PID.TID 0000.0001) %MON extforcing_fu_del2           =   4.0584634930923E-03
(PID.TID 0000.0001) %MON extforcing_fv_max            =   8.4633164107800E-02
(PID.TID 0000.0001) %MON extforcing_fv_min            =  -6.4357943832874E-02
(PID.TID 0000.0001) %MON extforcing_fv_mean           =   4.7509436927857E-03
(PID.TID 0000.0001) %MON extforcing_fv_sd             =   2.1727465082870E-02
(PID.TID 0000.0001) %MON extforcing_fv_del2           =   2.4257951826325E-03
(PID.TID 0000.0001) %MON advcfl_uvel_max              =   2.3633082909149E-02
(PID.TID 0000.0001) %MON advcfl_vvel_max              =   2.9985092705199E-02
(PID.TID 0000.0001) %MON advcfl_wvel_max              =   2.5426162523906E-01
(PID.TID 0000.0001) %MON advcfl_W_hf_max              =   2.5240042869190E-01
(PID.TID 0000.0001) %MON pe_b_mean                    =   3.0814972585078E-05
(PID.TID 0000.0001) %MON ke_max                       =   2.8717058478979E-02
(PID.TID 0000.0001) %MON ke_mean                      =   1.0550287935781E-04
(PID.TID 0000.0001) %MON ke_vol                       =   1.4101703507225E+18
(PID.TID 0000.0001) %MON vort_r_min                   =  -7.1540295590793E-07
(PID.TID 0000.0001) %MON vort_r_max                   =   7.2683095733145E-07
(PID.TID 0000.0001) %MON vort_a_mean                  =  -1.9922043059714E-05
(PID.TID 0000.0001) %MON vort_a_sd                    =   7.3516671989505E-05
(PID.TID 0000.0001) %MON vort_p_mean                  =  -2.3665444248068E-05
(PID.TID 0000.0001) %MON vort_p_sd                    =   1.0341314399237E-04
(PID.TID 0000.0001) %MON surfExpan_theta_mean         =   1.5991571711447E-04
(PID.TID 0000.0001) %MON surfExpan_salt_mean          =   1.3606773120706E-05
(PID.TID 0000.0001) // =======================================================
(PID.TID 0000.0001) // End MONITOR dynamic field statistics
(PID.TID 0000.0001) // =======================================================
 SH  5.23335072  23.2751772
 NH  10.5003432  25.5481492
 SH  5.23335072  23.2751772
 NH  10.5003432  25.5481492
 cg2d: Sum(rhs),rhsMax =   9.94385728430247E-03  2.37553680522715E+01
(PID.TID 0000.0001)                    cg2d_init_res =    7.40348758503294E-01
(PID.TID 0000.0001)                       cg2d_iters =    22
(PID.TID 0000.0001)                         cg2d_res =    4.23625906607220E-14
(PID.TID 0000.0001) // =======================================================
(PID.TID 0000.0001) // Begin MONITOR dynamic field statistics
(PID.TID 0000.0001) // =======================================================
(PID.TID 0000.0001) %MON time_tsnumber                =                     6
(PID.TID 0000.0001) %MON time_secondsf                =   2.5920000000000E+05
(PID.TID 0000.0001) %MON dynstat_eta_max              =   1.3333679733917E+00
(PID.TID 0000.0001) %MON dynstat_eta_min              =  -6.8387280271868E-01
(PID.TID 0000.0001) %MON dynstat_eta_mean             =  -1.1263123693014E-05
(PID.TID 0000.0001) %MON dynstat_eta_sd               =   1.9343584100502E-01
(PID.TID 0000.0001) %MON dynstat_eta_del2             =   2.2336164565993E-02
(PID.TID 0000.0001) %MON dynstat_uvel_max             =   1.6725271634618E-01
(PID.TID 0000.0001) %MON dynstat_uvel_min             =  -2.7722426541485E-01
(PID.TID 0000.0001) %MON dynstat_uvel_mean            =  -4.2545096755129E-03
(PID.TID 0000.0001) %MON dynstat_uvel_sd              =   7.5620861103947E-03
(PID.TID 0000.0001) %MON dynstat_uvel_del2            =   1.6549420479246E-03
(PID.TID 0000.0001) %MON dynstat_vvel_max             =   2.4997933065981E-01
(PID.TID 0000.0001) %MON dynstat_vvel_min             =  -3.6150134211441E-01
(PID.TID 0000.0001) %MON dynstat_vvel_mean            =   4.6249206461404E-03
(PID.TID 0000.0001) %MON dynstat_vvel_sd              =   1.4275318703889E-02
(PID.TID 0000.0001) %MON dynstat_vvel_del2            =   2.2480130521350E-03
(PID.TID 0000.0001) %MON dynstat_wvel_max             =   1.1611966321245E-03
(PID.TID 0000.0001) %MON dynstat_wvel_min             =  -7.0828331403637E-04
(PID.TID 0000.0001) %MON dynstat_wvel_mean            =   3.1820212878348E-22
(PID.TID 0000.0001) %MON dynstat_wvel_sd              =   4.4756706774189E-05
(PID.TID 0000.0001) %MON dynstat_wvel_del2            =   1.0568393348092E-05
(PID.TID 0000.0001) %MON dynstat_theta_max            =   2.9206803269497E+01
(PID.TID 0000.0001) %MON dynstat_theta_min            =  -1.8543273756812E+00
(PID.TID 0000.0001) %MON dynstat_theta_mean           =   3.4319671345004E+00
(PID.TID 0000.0001) %MON dynstat_theta_sd             =   4.0991862420550E+00
(PID.TID 0000.0001) %MON dynstat_theta_del2           =   1.3110258411435E-01
(PID.TID 0000.0001) %MON dynstat_salt_max             =   3.7435126440568E+01
(PID.TID 0000.0001) %MON dynstat_salt_min             =   3.1024997151645E+01
(PID.TID 0000.0001) %MON dynstat_salt_mean            =   3.4714475225716E+01
(PID.TID 0000.0001) %MON dynstat_salt_sd              =   2.7649890431526E-01
(PID.TID 0000.0001) %MON dynstat_salt_del2            =   2.1786920448546E-02
(PID.TID 0000.0001) %MON extforcing_qnet_max          =   1.3573809102624E+02
(PID.TID 0000.0001) %MON extforcing_qnet_min          =  -3.5417670113970E+01
(PID.TID 0000.0001) %MON extforcing_qnet_mean         =  -7.3151427871861E-01
(PID.TID 0000.0001) %MON extforcing_qnet_sd           =   2.3194435940434E+01
(PID.TID 0000.0001) %MON extforcing_qnet_del2         =   7.3823296228697E-01
(PID.TID 0000.0001) %MON extforcing_qsw_max           =   0.0000000000000E+00
(PID.TID 0000.0001) %MON extforcing_qsw_min           =   0.0000000000000E+00
(PID.TID 0000.0001) %MON extforcing_qsw_mean          =   0.0000000000000E+00
(PID.TID 0000.0001) %MON extforcing_qsw_sd            =   0.0000000000000E+00
(PID.TID 0000.0001) %MON extforcing_qsw_del2          =   0.0000000000000E+00
(PID.TID 0000.0001) %MON extforcing_empmr_max         =   3.7600376873116E-08
(PID.TID 0000.0001) %MON extforcing_empmr_min         =  -1.7559555290034E-08
(PID.TID 0000.0001) %MON extforcing_empmr_mean        =   1.5643227351799E-09
(PID.TID 0000.0001) %MON extforcing_empmr_sd          =   1.1909003157175E-08
(PID.TID 0000.0001) %MON extforcing_empmr_del2        =   7.5296825504468E-10
(PID.TID 0000.0001) %MON extforcing_fu_max            =   1.6004334390163E-01
(PID.TID 0000.0001) %MON extforcing_fu_min            =  -9.4522543251514E-02
(PID.TID 0000.0001) %MON extforcing_fu_mean           =   8.5992284308032E-03
(PID.TID 0000.0001) %MON extforcing_fu_sd             =   5.4886212407859E-02
(PID.TID 0000.0001) %MON extforcing_fu_del2           =   4.0584634930923E-03
(PID.TID 0000.0001) %MON extforcing_fv_max            =   8.4633164107800E-02
(PID.TID 0000.0001) %MON extforcing_fv_min            =  -6.4357943832874E-02
(PID.TID 0000.0001) %MON extforcing_fv_mean           =   4.7509436927857E-03
(PID.TID 0000.0001) %MON extforcing_fv_sd             =   2.1727465082870E-02
(PID.TID 0000.0001) %MON extforcing_fv_del2           =   2.4257951826325E-03
(PID.TID 0000.0001) %MON advcfl_uvel_max              =   2.7345554735271E-02
(PID.TID 0000.0001) %MON advcfl_vvel_max              =   3.5116956494173E-02
(PID.TID 0000.0001) %MON advcfl_wvel_max              =   2.4428858878968E-01
(PID.TID 0000.0001) %MON advcfl_W_hf_max              =   2.4294854341265E-01
(PID.TID 0000.0001) %MON pe_b_mean                    =   4.3411128958128E-05
(PID.TID 0000.0001) %MON ke_max                       =   3.8914913867827E-02
(PID.TID 0000.0001) %MON ke_mean                      =   1.3720588916966E-04
(PID.TID 0000.0001) %MON ke_vol                       =   1.4101703507225E+18
(PID.TID 0000.0001) %MON vort_r_min                   =  -8.2164066880897E-07
(PID.TID 0000.0001) %MON vort_r_max                   =   8.5013820705934E-07
(PID.TID 0000.0001) %MON vort_a_mean                  =  -1.9922043059714E-05
(PID.TID 0000.0001) %MON vort_a_sd                    =   7.3516484515572E-05
(PID.TID 0000.0001) %MON vort_p_mean                  =  -2.3665444248068E-05
(PID.TID 0000.0001) %MON vort_p_sd                    =   1.0341269975886E-04
(PID.TID 0000.0001) %MON surfExpan_theta_mean         =   1.7173539507259E-04
(PID.TID 0000.0001) %MON surfExpan_salt_mean          =   1.4259619030052E-05
(PID.TID 0000.0001) // =======================================================
(PID.TID 0000.0001) // End MONITOR dynamic field statistics
(PID.TID 0000.0001) // =======================================================
 SH  5.23936064  23.2600743
 NH  10.512313  25.5417681
 SH  5.23936064  23.2600743
 NH  10.512313  25.5417681
 cg2d: Sum(rhs),rhsMax =   1.24139013581994E-02  2.22001109861346E+01
(PID.TID 0000.0001)                    cg2d_init_res =    7.64919856566285E-01
(PID.TID 0000.0001)                       cg2d_iters =    22
(PID.TID 0000.0001)                         cg2d_res =    4.35930315311117E-14
(PID.TID 0000.0001) // =======================================================
(PID.TID 0000.0001) // Begin MONITOR dynamic field statistics
(PID.TID 0000.0001) // =======================================================
(PID.TID 0000.0001) %MON time_tsnumber                =                     7
(PID.TID 0000.0001) %MON time_secondsf                =   3.0240000000000E+05
(PID.TID 0000.0001) %MON dynstat_eta_max              =   1.2522138008319E+00
(PID.TID 0000.0001) %MON dynstat_eta_min              =  -7.4868763701822E-01
(PID.TID 0000.0001) %MON dynstat_eta_mean             =  -1.3140310975238E-05
(PID.TID 0000.0001) %MON dynstat_eta_sd               =   2.2305854997541E-01
(PID.TID 0000.0001) %MON dynstat_eta_del2             =   2.1520403064671E-02
(PID.TID 0000.0001) %MON dynstat_uvel_max             =   1.9363587135011E-01
(PID.TID 0000.0001) %MON dynstat_uvel_min             =  -3.1511314903431E-01
(PID.TID 0000.0001) %MON dynstat_uvel_mean            =  -5.2145540022865E-03
(PID.TID 0000.0001) %MON dynstat_uvel_sd              =   8.9670360742563E-03
(PID.TID 0000.0001) %MON dynstat_uvel_del2            =   1.8598069007822E-03
(PID.TID 0000.0001) %MON dynstat_vvel_max             =   2.8758601121939E-01
(PID.TID 0000.0001) %MON dynstat_vvel_min             =  -4.1463215061622E-01
(PID.TID 0000.0001) %MON dynstat_vvel_mean            =   4.9786740244781E-03
(PID.TID 0000.0001) %MON dynstat_vvel_sd              =   1.5414499478694E-02
(PID.TID 0000.0001) %MON dynstat_vvel_del2            =   2.4909646111998E-03
(PID.TID 0000.0001) %MON dynstat_wvel_max             =   1.3332342545387E-03
(PID.TID 0000.0001) %MON dynstat_wvel_min             =  -8.4057822055377E-04
(PID.TID 0000.0001) %MON dynstat_wvel_mean            =  -9.5460638635043E-22
(PID.TID 0000.0001) %MON dynstat_wvel_sd              =   4.9148165670716E-05
(PID.TID 0000.0001) %MON dynstat_wvel_del2            =   1.1703676362271E-05
(PID.TID 0000.0001) %MON dynstat_theta_max            =   2.9223693130642E+01
(PID.TID 0000.0001) %MON dynstat_theta_min            =  -1.8549475080013E+00
(PID.TID 0000.0001) %MON dynstat_theta_mean           =   3.4301417717724E+00
(PID.TID 0000.0001) %MON dynstat_theta_sd             =   4.0953089064956E+00
(PID.TID 0000.0001) %MON dynstat_theta_del2           =   1.3066849561866E-01
(PID.TID 0000.0001) %MON dynstat_salt_max             =   3.7433735546144E+01
(PID.TID 0000.0001) %MON dynstat_salt_min             =   3.1019913626848E+01
(PID.TID 0000.0001) %MON dynstat_salt_mean            =   3.4714325561704E+01
(PID.TID 0000.0001) %MON dynstat_salt_sd              =   2.7652874017046E-01
(PID.TID 0000.0001) %MON dynstat_salt_del2            =   2.1733025156035E-02
(PID.TID 0000.0001) %MON extforcing_qnet_max          =   1.3751655976190E+02
(PID.TID 0000.0001) %MON extforcing_qnet_min          =  -3.5658258490111E+01
(PID.TID 0000.0001) %MON extforcing_qnet_mean         =  -7.5952079810103E-01
(PID.TID 0000.0001) %MON extforcing_qnet_sd           =   2.3448214800687E+01
(PID.TID 0000.0001) %MON extforcing_qnet_del2         =   7.4226521037016E-01
(PID.TID 0000.0001) %MON extforcing_qsw_max           =   0.0000000000000E+00
(PID.TID 0000.0001) %MON extforcing_qsw_min           =   0.0000000000000E+00
(PID.TID 0000.0001) %MON extforcing_qsw_mean          =   0.0000000000000E+00
(PID.TID 0000.0001) %MON extforcing_qsw_sd            =   0.0000000000000E+00
(PID.TID 0000.0001) %MON extforcing_qsw_del2          =   0.0000000000000E+00
(PID.TID 0000.0001) %MON extforcing_empmr_max         =   3.7600376873116E-08
(PID.TID 0000.0001) %MON extforcing_empmr_min         =  -1.7559555290034E-08
(PID.TID 0000.0001) %MON extforcing_empmr_mean        =   1.5643227351799E-09
(PID.TID 0000.0001) %MON extforcing_empmr_sd          =   1.1909003157175E-08
(PID.TID 0000.0001) %MON extforcing_empmr_del2        =   7.5296825504468E-10
(PID.TID 0000.0001) %MON extforcing_fu_max            =   1.6004334390163E-01
(PID.TID 0000.0001) %MON extforcing_fu_min            =  -9.4522543251514E-02
(PID.TID 0000.0001) %MON extforcing_fu_mean           =   8.5992284308032E-03
(PID.TID 0000.0001) %MON extforcing_fu_sd             =   5.4886212407859E-02
(PID.TID 0000.0001) %MON extforcing_fu_del2           =   4.0584634930923E-03
(PID.TID 0000.0001) %MON extforcing_fv_max            =   8.4633164107800E-02
(PID.TID 0000.0001) %MON extforcing_fv_min            =  -6.4357943832874E-02
(PID.TID 0000.0001) %MON extforcing_fv_mean           =   4.7509436927857E-03
(PID.TID 0000.0001) %MON extforcing_fv_sd             =   2.1727465082870E-02
(PID.TID 0000.0001) %MON extforcing_fv_del2           =   2.4257951826325E-03
(PID.TID 0000.0001) %MON advcfl_uvel_max              =   3.1082935152977E-02
(PID.TID 0000.0001) %MON advcfl_vvel_max              =   4.0278188482263E-02
(PID.TID 0000.0001) %MON advcfl_wvel_max              =   2.0856127714654E-01
(PID.TID 0000.0001) %MON advcfl_W_hf_max              =   2.0807142962507E-01
(PID.TID 0000.0001) %MON pe_b_mean                    =   5.7725132401401E-05
(PID.TID 0000.0001) %MON ke_max                       =   5.0807409458212E-02
(PID.TID 0000.0001) %MON ke_mean                      =   1.6905692954100E-04
(PID.TID 0000.0001) %MON ke_vol                       =   1.4101703507225E+18
(PID.TID 0000.0001) %MON vort_r_min                   =  -9.3203793558563E-07
(PID.TID 0000.0001) %MON vort_r_max                   =   9.7519303697226E-07
(PID.TID 0000.0001) %MON vort_a_mean                  =  -1.9922043059714E-05
(PID.TID 0000.0001) %MON vort_a_sd                    =   7.3516295069123E-05
(PID.TID 0000.0001) %MON vort_p_mean                  =  -2.3665444248068E-05
(PID.TID 0000.0001) %MON vort_p_sd                    =   1.0341225385375E-04
(PID.TID 0000.0001) %MON surfExpan_theta_mean         =   1.7795240994060E-04
(PID.TID 0000.0001) %MON surfExpan_salt_mean          =   1.4388708260516E-05
(PID.TID 0000.0001) // =======================================================
(PID.TID 0000.0001) // End MONITOR dynamic field statistics
(PID.TID 0000.0001) // =======================================================
 SH  5.24667248  23.2419868
 NH  10.5234692  25.5364035
 SH  5.24667248  23.2419868
 NH  10.5234692  25.5364035
 cg2d: Sum(rhs),rhsMax =   1.51445104266368E-02  2.07969737764084E+01
(PID.TID 0000.0001)                    cg2d_init_res =    7.88540314819284E-01
(PID.TID 0000.0001)                       cg2d_iters =    22
(PID.TID 0000.0001)                         cg2d_res =    4.48292347787075E-14
(PID.TID 0000.0001) // =======================================================
(PID.TID 0000.0001) // Begin MONITOR dynamic field statistics
(PID.TID 0000.0001) // =======================================================
(PID.TID 0000.0001) %MON time_tsnumber                =                     8
(PID.TID 0000.0001) %MON time_secondsf                =   3.4560000000000E+05
(PID.TID 0000.0001) %MON dynstat_eta_max              =   1.1732151857474E+00
(PID.TID 0000.0001) %MON dynstat_eta_min              =  -8.4947156416300E-01
(PID.TID 0000.0001) %MON dynstat_eta_mean             =  -1.5017498257418E-05
(PID.TID 0000.0001) %MON dynstat_eta_sd               =   2.5141375269932E-01
(PID.TID 0000.0001) %MON dynstat_eta_del2             =   2.0833403121086E-02
(PID.TID 0000.0001) %MON dynstat_uvel_max             =   2.1704092869190E-01
(PID.TID 0000.0001) %MON dynstat_uvel_min             =  -3.5288582070031E-01
(PID.TID 0000.0001) %MON dynstat_uvel_mean            =  -6.1498673996528E-03
(PID.TID 0000.0001) %MON dynstat_uvel_sd              =   1.0384483910062E-02
(PID.TID 0000.0001) %MON dynstat_uvel_del2            =   2.0497711167834E-03
(PID.TID 0000.0001) %MON dynstat_vvel_max             =   3.2486914672223E-01
(PID.TID 0000.0001) %MON dynstat_vvel_min             =  -4.6642343311898E-01
(PID.TID 0000.0001) %MON dynstat_vvel_mean            =   5.1890045697185E-03
(PID.TID 0000.0001) %MON dynstat_vvel_sd              =   1.6283465666526E-02
(PID.TID 0000.0001) %MON dynstat_vvel_del2            =   2.6959835228589E-03
(PID.TID 0000.0001) %MON dynstat_wvel_max             =   1.5064750801216E-03
(PID.TID 0000.0001) %MON dynstat_wvel_min             =  -9.5533161276188E-04
(PID.TID 0000.0001) %MON dynstat_wvel_mean            =  -1.9092127727009E-21
(PID.TID 0000.0001) %MON dynstat_wvel_sd              =   5.3236466699042E-05
(PID.TID 0000.0001) %MON dynstat_wvel_del2            =   1.2629692117175E-05
(PID.TID 0000.0001) %MON dynstat_theta_max            =   2.9230019894415E+01
(PID.TID 0000.0001) %MON dynstat_theta_min            =  -1.8555313898040E+00
(PID.TID 0000.0001) %MON dynstat_theta_mean           =   3.4282873267422E+00
(PID.TID 0000.0001) %MON dynstat_theta_sd             =   4.0912335113539E+00
(PID.TID 0000.0001) %MON dynstat_theta_del2           =   1.3018504956903E-01
(PID.TID 0000.0001) %MON dynstat_salt_max             =   3.7432395044984E+01
(PID.TID 0000.0001) %MON dynstat_salt_min             =   3.1013961734778E+01
(PID.TID 0000.0001) %MON dynstat_salt_mean            =   3.4714177801552E+01
(PID.TID 0000.0001) %MON dynstat_salt_sd              =   2.7655114078455E-01
(PID.TID 0000.0001) %MON dynstat_salt_del2            =   2.1681659648058E-02
(PID.TID 0000.0001) %MON extforcing_qnet_max          =   1.3911626684653E+02
(PID.TID 0000.0001) %MON extforcing_qnet_min          =  -3.5946764005886E+01
(PID.TID 0000.0001) %MON extforcing_qnet_mean         =  -7.9398131467067E-01
(PID.TID 0000.0001) %MON extforcing_qnet_sd           =   2.3694123599687E+01
(PID.TID 0000.0001) %MON extforcing_qnet_del2         =   7.4682142824535E-01
(PID.TID 0000.0001) %MON extforcing_qsw_max           =   0.0000000000000E+00
(PID.TID 0000.0001) %MON extforcing_qsw_min           =   0.0000000000000E+00
(PID.TID 0000.0001) %MON extforcing_qsw_mean          =   0.0000000000000E+00
(PID.TID 0000.0001) %MON extforcing_qsw_sd            =   0.0000000000000E+00
(PID.TID 0000.0001) %MON extforcing_qsw_del2          =   0.0000000000000E+00
(PID.TID 0000.0001) %MON extforcing_empmr_max         =   3.7600376873116E-08
(PID.TID 0000.0001) %MON extforcing_empmr_min         =  -1.7559555290034E-08
(PID.TID 0000.0001) %MON extforcing_empmr_mean        =   1.5643227351799E-09
(PID.TID 0000.0001) %MON extforcing_empmr_sd          =   1.1909003157175E-08
(PID.TID 0000.0001) %MON extforcing_empmr_del2        =   7.5296825504468E-10
(PID.TID 0000.0001) %MON extforcing_fu_max            =   1.6004334390163E-01
(PID.TID 0000.0001) %MON extforcing_fu_min            =  -9.4522543251514E-02
(PID.TID 0000.0001) %MON extforcing_fu_mean           =   8.5992284308032E-03
(PID.TID 0000.0001) %MON extforcing_fu_sd             =   5.4886212407859E-02
(PID.TID 0000.0001) %MON extforcing_fu_del2           =   4.0584634930923E-03
(PID.TID 0000.0001) %MON extforcing_fv_max            =   8.4633164107800E-02
(PID.TID 0000.0001) %MON extforcing_fv_min            =  -6.4357943832874E-02
(PID.TID 0000.0001) %MON extforcing_fv_mean           =   4.7509436927857E-03
(PID.TID 0000.0001) %MON extforcing_fv_sd             =   2.1727465082870E-02
(PID.TID 0000.0001) %MON extforcing_fv_del2           =   2.4257951826325E-03
(PID.TID 0000.0001) %MON advcfl_uvel_max              =   3.4808852359374E-02
(PID.TID 0000.0001) %MON advcfl_vvel_max              =   4.5309296261252E-02
(PID.TID 0000.0001) %MON advcfl_wvel_max              =   2.1614996297839E-01
(PID.TID 0000.0001) %MON advcfl_W_hf_max              =   2.1042677914307E-01
(PID.TID 0000.0001) %MON pe_b_mean                    =   7.3333978937169E-05
(PID.TID 0000.0001) %MON ke_max                       =   6.4208135839051E-02
(PID.TID 0000.0001) %MON ke_mean                      =   2.0013140134285E-04
(PID.TID 0000.0001) %MON ke_vol                       =   1.4101703507225E+18
(PID.TID 0000.0001) %MON vort_r_min                   =  -1.0427842759524E-06
(PID.TID 0000.0001) %MON vort_r_max                   =   1.0993860752878E-06
(PID.TID 0000.0001) %MON vort_a_mean                  =  -1.9922043059714E-05
(PID.TID 0000.0001) %MON vort_a_sd                    =   7.3516110283051E-05
(PID.TID 0000.0001) %MON vort_p_mean                  =  -2.3665444248068E-05
(PID.TID 0000.0001) %MON vort_p_sd                    =   1.0341183121583E-04
(PID.TID 0000.0001) %MON surfExpan_theta_mean         =   1.7919635041727E-04
(PID.TID 0000.0001) %MON surfExpan_salt_mean          =   1.4073422892181E-05
(PID.TID 0000.0001) // =======================================================
(PID.TID 0000.0001) // End MONITOR dynamic field statistics
(PID.TID 0000.0001) // =======================================================
 SH  5.25522501  23.2218728
 NH  10.5330418  25.5321066
 SH  5.25522501  23.2218728
 NH  10.5330418  25.5321066
 cg2d: Sum(rhs),rhsMax =   1.80583310040818E-02  1.96214137616316E+01
(PID.TID 0000.0001)                    cg2d_init_res =    8.01896303293420E-01
(PID.TID 0000.0001)                       cg2d_iters =    22
(PID.TID 0000.0001)                         cg2d_res =    4.59566409707722E-14
(PID.TID 0000.0001) // =======================================================
(PID.TID 0000.0001) // Begin MONITOR dynamic field statistics
(PID.TID 0000.0001) // =======================================================
(PID.TID 0000.0001) %MON time_tsnumber                =                     9
(PID.TID 0000.0001) %MON time_secondsf                =   3.8880000000000E+05
(PID.TID 0000.0001) %MON dynstat_eta_max              =   1.1076699919393E+00
(PID.TID 0000.0001) %MON dynstat_eta_min              =  -9.2228685593085E-01
(PID.TID 0000.0001) %MON dynstat_eta_mean             =  -1.6894685539706E-05
(PID.TID 0000.0001) %MON dynstat_eta_sd               =   2.7800121415201E-01
(PID.TID 0000.0001) %MON dynstat_eta_del2             =   2.0228478063716E-02
(PID.TID 0000.0001) %MON dynstat_uvel_max             =   2.3793272364147E-01
(PID.TID 0000.0001) %MON dynstat_uvel_min             =  -3.8982073187171E-01
(PID.TID 0000.0001) %MON dynstat_uvel_mean            =  -7.0268767146728E-03
(PID.TID 0000.0001) %MON dynstat_uvel_sd              =   1.1784374903562E-02
(PID.TID 0000.0001) %MON dynstat_uvel_del2            =   2.2257429689709E-03
(PID.TID 0000.0001) %MON dynstat_vvel_max             =   3.6110782397887E-01
(PID.TID 0000.0001) %MON dynstat_vvel_min             =  -5.1622954623130E-01
(PID.TID 0000.0001) %MON dynstat_vvel_mean            =   5.2624676690518E-03
(PID.TID 0000.0001) %MON dynstat_vvel_sd              =   1.6920939828418E-02
(PID.TID 0000.0001) %MON dynstat_vvel_del2            =   2.8675244600969E-03
(PID.TID 0000.0001) %MON dynstat_wvel_max             =   1.6768172291337E-03
(PID.TID 0000.0001) %MON dynstat_wvel_min             =  -1.0538098816881E-03
(PID.TID 0000.0001) %MON dynstat_wvel_mean            =  -1.8182978787627E-22
(PID.TID 0000.0001) %MON dynstat_wvel_sd              =   5.6959823234928E-05
(PID.TID 0000.0001) %MON dynstat_wvel_del2            =   1.3331938573434E-05
(PID.TID 0000.0001) %MON dynstat_theta_max            =   2.9223470286182E+01
(PID.TID 0000.0001) %MON dynstat_theta_min            =  -1.8560741469449E+00
(PID.TID 0000.0001) %MON dynstat_theta_mean           =   3.4264507654100E+00
(PID.TID 0000.0001) %MON dynstat_theta_sd             =   4.0870338750199E+00
(PID.TID 0000.0001) %MON dynstat_theta_del2           =   1.2970513353318E-01
(PID.TID 0000.0001) %MON dynstat_salt_max             =   3.7431347052162E+01
(PID.TID 0000.0001) %MON dynstat_salt_min             =   3.1007862548863E+01
(PID.TID 0000.0001) %MON dynstat_salt_mean            =   3.4714035995240E+01
(PID.TID 0000.0001) %MON dynstat_salt_sd              =   2.7656481646386E-01
(PID.TID 0000.0001) %MON dynstat_salt_del2            =   2.1633508986139E-02
(PID.TID 0000.0001) %MON extforcing_qnet_max          =   1.4045793506496E+02
(PID.TID 0000.0001) %MON extforcing_qnet_min          =  -3.6270195630406E+01
(PID.TID 0000.0001) %MON extforcing_qnet_mean         =  -8.3348085255933E-01
(PID.TID 0000.0001) %MON extforcing_qnet_sd           =   2.3920707819673E+01
(PID.TID 0000.0001) %MON extforcing_qnet_del2         =   7.5167454429764E-01
(PID.TID 0000.0001) %MON extforcing_qsw_max           =   0.0000000000000E+00
(PID.TID 0000.0001) %MON extforcing_qsw_min           =   0.0000000000000E+00
(PID.TID 0000.0001) %MON extforcing_qsw_mean          =   0.0000000000000E+00
(PID.TID 0000.0001) %MON extforcing_qsw_sd            =   0.0000000000000E+00
(PID.TID 0000.0001) %MON extforcing_qsw_del2          =   0.0000000000000E+00
(PID.TID 0000.0001) %MON extforcing_empmr_max         =   3.7600376873116E-08
(PID.TID 0000.0001) %MON extforcing_empmr_min         =  -1.7559555290034E-08
(PID.TID 0000.0001) %MON extforcing_empmr_mean        =   1.5643227351799E-09
(PID.TID 0000.0001) %MON extforcing_empmr_sd          =   1.1909003157175E-08
(PID.TID 0000.0001) %MON extforcing_empmr_del2        =   7.5296825504468E-10
(PID.TID 0000.0001) %MON extforcing_fu_max            =   1.6004334390163E-01
(PID.TID 0000.0001) %MON extforcing_fu_min            =  -9.4522543251514E-02
(PID.TID 0000.0001) %MON extforcing_fu_mean           =   8.5992284308032E-03
(PID.TID 0000.0001) %MON extforcing_fu_sd             =   5.4886212407859E-02
(PID.TID 0000.0001) %MON extforcing_fu_del2           =   4.0584634930923E-03
(PID.TID 0000.0001) %MON extforcing_fv_max            =   8.4633164107800E-02
(PID.TID 0000.0001) %MON extforcing_fv_min            =  -6.4357943832874E-02
(PID.TID 0000.0001) %MON extforcing_fv_mean           =   4.7509436927857E-03
(PID.TID 0000.0001) %MON extforcing_fv_sd             =   2.1727465082870E-02
(PID.TID 0000.0001) %MON extforcing_fv_del2           =   2.4257951826325E-03
(PID.TID 0000.0001) %MON advcfl_uvel_max              =   3.8452132407636E-02
(PID.TID 0000.0001) %MON advcfl_vvel_max              =   5.0147560753105E-02
(PID.TID 0000.0001) %MON advcfl_wvel_max              =   2.1378578381531E-01
(PID.TID 0000.0001) %MON advcfl_W_hf_max              =   2.1586578550399E-01
(PID.TID 0000.0001) %MON pe_b_mean                    =   8.9664508825736E-05
(PID.TID 0000.0001) %MON ke_max                       =   7.8813237472739E-02
(PID.TID 0000.0001) %MON ke_mean                      =   2.2977213270705E-04
(PID.TID 0000.0001) %MON ke_vol                       =   1.4101703507225E+18
(PID.TID 0000.0001) %MON vort_r_min                   =  -1.1501588890595E-06
(PID.TID 0000.0001) %MON vort_r_max                   =   1.2209370111202E-06
(PID.TID 0000.0001) %MON vort_a_mean                  =  -1.9922043059714E-05
(PID.TID 0000.0001) %MON vort_a_sd                    =   7.3515936085379E-05
(PID.TID 0000.0001) %MON vort_p_mean                  =  -2.3665444248068E-05
(PID.TID 0000.0001) %MON vort_p_sd                    =   1.0341145067220E-04
(PID.TID 0000.0001) %MON surfExpan_theta_mean         =   1.7615001308672E-04
(PID.TID 0000.0001) %MON surfExpan_salt_mean          =   1.3383124370479E-05
(PID.TID 0000.0001) // =======================================================
(PID.TID 0000.0001) // End MONITOR dynamic field statistics
(PID.TID 0000.0001) // =======================================================
 SH  5.264803  23.2006326
 NH  10.5405598  25.5285853
 SH  5.264803  23.2006326
 NH  10.5405598  25.5285853
 cg2d: Sum(rhs),rhsMax =   2.10286123600349E-02  1.87221094769099E+01
(PID.TID 0000.0001)                    cg2d_init_res =    8.00789230235132E-01
(PID.TID 0000.0001)                       cg2d_iters =    22
(PID.TID 0000.0001)                         cg2d_res =    4.61901473623394E-14
(PID.TID 0000.0001) // =======================================================
(PID.TID 0000.0001) // Begin MONITOR dynamic field statistics
(PID.TID 0000.0001) // =======================================================
(PID.TID 0000.0001) %MON time_tsnumber                =                    10
(PID.TID 0000.0001) %MON time_secondsf                =   4.3200000000000E+05
(PID.TID 0000.0001) %MON dynstat_eta_max              =   1.1107433451188E+00
(PID.TID 0000.0001) %MON dynstat_eta_min              =  -9.7611820044408E-01
(PID.TID 0000.0001) %MON dynstat_eta_mean             =  -1.8771872821933E-05
(PID.TID 0000.0001) %MON dynstat_eta_sd               =   3.0229613599374E-01
(PID.TID 0000.0001) %MON dynstat_eta_del2             =   1.9772974938773E-02
(PID.TID 0000.0001) %MON dynstat_uvel_max             =   2.5697994935936E-01
(PID.TID 0000.0001) %MON dynstat_uvel_min             =  -4.2503960092177E-01
(PID.TID 0000.0001) %MON dynstat_uvel_mean            =  -7.8172442700627E-03
(PID.TID 0000.0001) %MON dynstat_uvel_sd              =   1.3138929136415E-02
(PID.TID 0000.0001) %MON dynstat_uvel_del2            =   2.3887321545780E-03
(PID.TID 0000.0001) %MON dynstat_vvel_max             =   3.9586191442689E-01
(PID.TID 0000.0001) %MON dynstat_vvel_min             =  -5.6374561197100E-01
(PID.TID 0000.0001) %MON dynstat_vvel_mean            =   5.2136406808749E-03
(PID.TID 0000.0001) %MON dynstat_vvel_sd              =   1.7373446158589E-02
(PID.TID 0000.0001) %MON dynstat_vvel_del2            =   3.0064450002338E-03
(PID.TID 0000.0001) %MON dynstat_wvel_max             =   1.8421130459955E-03
(PID.TID 0000.0001) %MON dynstat_wvel_min             =  -1.1447958362634E-03
(PID.TID 0000.0001) %MON dynstat_wvel_mean            =  -1.0909787272576E-21
(PID.TID 0000.0001) %MON dynstat_wvel_sd              =   6.0242553619216E-05
(PID.TID 0000.0001) %MON dynstat_wvel_del2            =   1.3791003471769E-05
(PID.TID 0000.0001) %MON dynstat_theta_max            =   2.9204204241270E+01
(PID.TID 0000.0001) %MON dynstat_theta_min            =  -1.8602843363634E+00
(PID.TID 0000.0001) %MON dynstat_theta_mean           =   3.4246717477660E+00
(PID.TID 0000.0001) %MON dynstat_theta_sd             =   4.0827733198178E+00
(PID.TID 0000.0001) %MON dynstat_theta_del2           =   1.2925365473314E-01
(PID.TID 0000.0001) %MON dynstat_salt_max             =   3.7430752421537E+01
(PID.TID 0000.0001) %MON dynstat_salt_min             =   3.1002359937434E+01
(PID.TID 0000.0001) %MON dynstat_salt_mean            =   3.4713903544630E+01
(PID.TID 0000.0001) %MON dynstat_salt_sd              =   2.7656821659312E-01
(PID.TID 0000.0001) %MON dynstat_salt_del2            =   2.1590231321000E-02
(PID.TID 0000.0001) %MON extforcing_qnet_max          =   1.4152383914678E+02
(PID.TID 0000.0001) %MON extforcing_qnet_min          =  -3.6615183206881E+01
(PID.TID 0000.0001) %MON extforcing_qnet_mean         =  -8.7675904502898E-01
(PID.TID 0000.0001) %MON extforcing_qnet_sd           =   2.4123219505403E+01
(PID.TID 0000.0001) %MON extforcing_qnet_del2         =   7.5662022730813E-01
(PID.TID 0000.0001) %MON extforcing_qsw_max           =   0.0000000000000E+00
(PID.TID 0000.0001) %MON extforcing_qsw_min           =   0.0000000000000E+00
(PID.TID 0000.0001) %MON extforcing_qsw_mean          =   0.0000000000000E+00
(PID.TID 0000.0001) %MON extforcing_qsw_sd            =   0.0000000000000E+00
(PID.TID 0000.0001) %MON extforcing_qsw_del2          =   0.0000000000000E+00
(PID.TID 0000.0001) %MON extforcing_empmr_max         =   3.7600376873116E-08
(PID.TID 0000.0001) %MON extforcing_empmr_min         =  -1.7559555290034E-08
(PID.TID 0000.0001) %MON extforcing_empmr_mean        =   1.5643227351799E-09
(PID.TID 0000.0001) %MON extforcing_empmr_sd          =   1.1909003157175E-08
(PID.TID 0000.0001) %MON extforcing_empmr_del2        =   7.5296825504468E-10
(PID.TID 0000.0001) %MON extforcing_fu_max            =   1.6004334390163E-01
(PID.TID 0000.0001) %MON extforcing_fu_min            =  -9.4522543251514E-02
(PID.TID 0000.0001) %MON extforcing_fu_mean           =   8.5992284308032E-03
(PID.TID 0000.0001) %MON extforcing_fu_sd             =   5.4886212407859E-02
(PID.TID 0000.0001) %MON extforcing_fu_del2           =   4.0584634930923E-03
(PID.TID 0000.0001) %MON extforcing_fv_max            =   8.4633164107800E-02
(PID.TID 0000.0001) %MON extforcing_fv_min            =  -6.4357943832874E-02
(PID.TID 0000.0001) %MON extforcing_fv_mean           =   4.7509436927857E-03
(PID.TID 0000.0001) %MON extforcing_fv_sd             =   2.1727465082870E-02
(PID.TID 0000.0001) %MON extforcing_fv_del2           =   2.4257951826325E-03
(PID.TID 0000.0001) %MON advcfl_uvel_max              =   4.1926141112759E-02
(PID.TID 0000.0001) %MON advcfl_vvel_max              =   5.4763365506680E-02
(PID.TID 0000.0001) %MON advcfl_wvel_max              =   2.0521731585878E-01
(PID.TID 0000.0001) %MON advcfl_W_hf_max              =   2.3846296212126E-01
(PID.TID 0000.0001) %MON pe_b_mean                    =   1.0602111821951E-04
(PID.TID 0000.0001) %MON ke_max                       =   9.4231384693073E-02
(PID.TID 0000.0001) %MON ke_mean                      =   2.5760048546985E-04
(PID.TID 0000.0001) %MON ke_vol                       =   1.4101703507225E+18
(PID.TID 0000.0001) %MON vort_r_min                   =  -1.2518323011961E-06
(PID.TID 0000.0001) %MON vort_r_max                   =   1.3386168310886E-06
(PID.TID 0000.0001) %MON vort_a_mean                  =  -1.9922043059714E-05
(PID.TID 0000.0001) %MON vort_a_sd                    =   7.3515777470352E-05
(PID.TID 0000.0001) %MON vort_p_mean                  =  -2.3665444248068E-05
(PID.TID 0000.0001) %MON vort_p_sd                    =   1.0341112632843E-04
(PID.TID 0000.0001) %MON surfExpan_theta_mean         =   1.6951274151651E-04
(PID.TID 0000.0001) %MON surfExpan_salt_mean          =   1.2382302034049E-05
(PID.TID 0000.0001) // =======================================================
(PID.TID 0000.0001) // End MONITOR dynamic field statistics
(PID.TID 0000.0001) // =======================================================
 SH  5.27508376  23.179032
 NH  10.5458787  25.5253925
 SH  5.27508376  23.179032
 NH  10.5458787  25.5253925
 cg2d: Sum(rhs),rhsMax =   2.39209369932203E-02  1.81042231394239E+01
(PID.TID 0000.0001)                    cg2d_init_res =    7.84056045432367E-01
(PID.TID 0000.0001)                       cg2d_iters =    22
(PID.TID 0000.0001)                         cg2d_res =    4.45192670712476E-14
(PID.TID 0000.0001) // =======================================================
(PID.TID 0000.0001) // Begin MONITOR dynamic field statistics
(PID.TID 0000.0001) // =======================================================
(PID.TID 0000.0001) %MON time_tsnumber                =                    11
(PID.TID 0000.0001) %MON time_secondsf                =   4.7520000000000E+05
(PID.TID 0000.0001) %MON dynstat_eta_max              =   1.1302547878834E+00
(PID.TID 0000.0001) %MON dynstat_eta_min              =  -1.0524510017122E+00
(PID.TID 0000.0001) %MON dynstat_eta_mean             =  -2.0649060104263E-05
(PID.TID 0000.0001) %MON dynstat_eta_sd               =   3.2380446510631E-01
(PID.TID 0000.0001) %MON dynstat_eta_del2             =   1.9392329018171E-02
(PID.TID 0000.0001) %MON dynstat_uvel_max             =   2.7451574104620E-01
(PID.TID 0000.0001) %MON dynstat_uvel_min             =  -4.5799982453306E-01
(PID.TID 0000.0001) %MON dynstat_uvel_mean            =  -8.4985256769744E-03
(PID.TID 0000.0001) %MON dynstat_uvel_sd              =   1.4424550059363E-02
(PID.TID 0000.0001) %MON dynstat_uvel_del2            =   2.5371335798766E-03
(PID.TID 0000.0001) %MON dynstat_vvel_max             =   4.2894468950708E-01
(PID.TID 0000.0001) %MON dynstat_vvel_min             =  -6.0867197489822E-01
(PID.TID 0000.0001) %MON dynstat_vvel_mean            =   5.0631704130169E-03
(PID.TID 0000.0001) %MON dynstat_vvel_sd              =   1.7692243373842E-02
(PID.TID 0000.0001) %MON dynstat_vvel_del2            =   3.1126093150635E-03
(PID.TID 0000.0001) %MON dynstat_wvel_max             =   2.0001340147878E-03
(PID.TID 0000.0001) %MON dynstat_wvel_min             =  -1.2288975607442E-03
(PID.TID 0000.0001) %MON dynstat_wvel_mean            =   3.6365957575255E-22
(PID.TID 0000.0001) %MON dynstat_wvel_sd              =   6.3097359452227E-05
(PID.TID 0000.0001) %MON dynstat_wvel_del2            =   1.4024519609291E-05
(PID.TID 0000.0001) %MON dynstat_theta_max            =   2.9172015084030E+01
(PID.TID 0000.0001) %MON dynstat_theta_min            =  -1.8812026407932E+00
(PID.TID 0000.0001) %MON dynstat_theta_mean           =   3.4229826837207E+00
(PID.TID 0000.0001) %MON dynstat_theta_sd             =   4.0785063571932E+00
(PID.TID 0000.0001) %MON dynstat_theta_del2           =   1.2883986160769E-01
(PID.TID 0000.0001) %MON dynstat_salt_max             =   3.7430626772495E+01
(PID.TID 0000.0001) %MON dynstat_salt_min             =   3.0998101085338E+01
(PID.TID 0000.0001) %MON dynstat_salt_mean            =   3.4713783222023E+01
(PID.TID 0000.0001) %MON dynstat_salt_sd              =   2.7655977663935E-01
(PID.TID 0000.0001) %MON dynstat_salt_del2            =   2.1551235165026E-02
(PID.TID 0000.0001) %MON extforcing_qnet_max          =   1.4234248621838E+02
(PID.TID 0000.0001) %MON extforcing_qnet_min          =  -3.6969341953229E+01
(PID.TID 0000.0001) %MON extforcing_qnet_mean         =  -9.2267557521624E-01
(PID.TID 0000.0001) %MON extforcing_qnet_sd           =   2.4302138716500E+01
(PID.TID 0000.0001) %MON extforcing_qnet_del2         =   7.6149482458501E-01
(PID.TID 0000.0001) %MON extforcing_qsw_max           =   0.0000000000000E+00
(PID.TID 0000.0001) %MON extforcing_qsw_min           =   0.0000000000000E+00
(PID.TID 0000.0001) %MON extforcing_qsw_mean          =   0.0000000000000E+00
(PID.TID 0000.0001) %MON extforcing_qsw_sd            =   0.0000000000000E+00
(PID.TID 0000.0001) %MON extforcing_qsw_del2          =   0.0000000000000E+00
(PID.TID 0000.0001) %MON extforcing_empmr_max         =   3.7600376873116E-08
(PID.TID 0000.0001) %MON extforcing_empmr_min         =  -1.7559555290034E-08
(PID.TID 0000.0001) %MON extforcing_empmr_mean        =   1.5643227351799E-09
(PID.TID 0000.0001) %MON extforcing_empmr_sd          =   1.1909003157175E-08
(PID.TID 0000.0001) %MON extforcing_empmr_del2        =   7.5296825504468E-10
(PID.TID 0000.0001) %MON extforcing_fu_max            =   1.6004334390163E-01
(PID.TID 0000.0001) %MON extforcing_fu_min            =  -9.4522543251514E-02
(PID.TID 0000.0001) %MON extforcing_fu_mean           =   8.5992284308032E-03
(PID.TID 0000.0001) %MON extforcing_fu_sd             =   5.4886212407859E-02
(PID.TID 0000.0001) %MON extforcing_fu_del2           =   4.0584634930923E-03
(PID.TID 0000.0001) %MON extforcing_fv_max            =   8.4633164107800E-02
(PID.TID 0000.0001) %MON extforcing_fv_min            =  -6.4357943832874E-02
(PID.TID 0000.0001) %MON extforcing_fv_mean           =   4.7509436927857E-03
(PID.TID 0000.0001) %MON extforcing_fv_sd             =   2.1727465082870E-02
(PID.TID 0000.0001) %MON extforcing_fv_del2           =   2.4257951826325E-03
(PID.TID 0000.0001) %MON advcfl_uvel_max              =   4.5177355783670E-02
(PID.TID 0000.0001) %MON advcfl_vvel_max              =   5.9127601398941E-02
(PID.TID 0000.0001) %MON advcfl_wvel_max              =   2.2334177955837E-01
(PID.TID 0000.0001) %MON advcfl_W_hf_max              =   2.6021783092335E-01
(PID.TID 0000.0001) %MON pe_b_mean                    =   1.2164460568231E-04
(PID.TID 0000.0001) %MON ke_max                       =   1.1009968452607E-01
(PID.TID 0000.0001) %MON ke_mean                      =   2.8347264476829E-04
(PID.TID 0000.0001) %MON ke_vol                       =   1.4101703507225E+18
(PID.TID 0000.0001) %MON vort_r_min                   =  -1.3463737401658E-06
(PID.TID 0000.0001) %MON vort_r_max                   =   1.4514999688269E-06
(PID.TID 0000.0001) %MON vort_a_mean                  =  -1.9922043059714E-05
(PID.TID 0000.0001) %MON vort_a_sd                    =   7.3515638461006E-05
(PID.TID 0000.0001) %MON vort_p_mean                  =  -2.3665444248068E-05
(PID.TID 0000.0001) %MON vort_p_sd                    =   1.0341086825053E-04
(PID.TID 0000.0001) %MON surfExpan_theta_mean         =   1.5995138555885E-04
(PID.TID 0000.0001) %MON surfExpan_salt_mean          =   1.1134103931184E-05
(PID.TID 0000.0001) // =======================================================
(PID.TID 0000.0001) // End MONITOR dynamic field statistics
(PID.TID 0000.0001) // =======================================================
 SH  5.28569179  23.1577058
 NH  10.5491111  25.5220423
 SH  5.28569179  23.1577058
 NH  10.5491111  25.5220423
 cg2d: Sum(rhs),rhsMax =   2.66586144450978E-02  1.77218504839686E+01
(PID.TID 0000.0001)                    cg2d_init_res =    7.56211181735510E-01
(PID.TID 0000.0001)                       cg2d_iters =    22
(PID.TID 0000.0001)                         cg2d_res =    4.03614858943543E-14
(PID.TID 0000.0001) // =======================================================
(PID.TID 0000.0001) // Begin MONITOR dynamic field statistics
(PID.TID 0000.0001) // =======================================================
(PID.TID 0000.0001) %MON time_tsnumber                =                    12
(PID.TID 0000.0001) %MON time_secondsf                =   5.1840000000000E+05
(PID.TID 0000.0001) %MON dynstat_eta_max              =   1.1497778266185E+00
(PID.TID 0000.0001) %MON dynstat_eta_min              =  -1.1126466623761E+00
(PID.TID 0000.0001) %MON dynstat_eta_mean             =  -2.2526247386445E-05
(PID.TID 0000.0001) %MON dynstat_eta_sd               =   3.4213446769500E-01
(PID.TID 0000.0001) %MON dynstat_eta_del2             =   1.8996480212905E-02
(PID.TID 0000.0001) %MON dynstat_uvel_max             =   2.9058660963692E-01
(PID.TID 0000.0001) %MON dynstat_uvel_min             =  -4.8850587931576E-01
(PID.TID 0000.0001) %MON dynstat_uvel_mean            =  -9.0543407503054E-03
(PID.TID 0000.0001) %MON dynstat_uvel_sd              =   1.5623120457260E-02
(PID.TID 0000.0001) %MON dynstat_uvel_del2            =   2.6696626982799E-03
(PID.TID 0000.0001) %MON dynstat_vvel_max             =   4.6024618396368E-01
(PID.TID 0000.0001) %MON dynstat_vvel_min             =  -6.5072330087691E-01
(PID.TID 0000.0001) %MON dynstat_vvel_mean            =   4.8351937515183E-03
(PID.TID 0000.0001) %MON dynstat_vvel_sd              =   1.7928272720947E-02
(PID.TID 0000.0001) %MON dynstat_vvel_del2            =   3.1877757798327E-03
(PID.TID 0000.0001) %MON dynstat_wvel_max             =   2.1488006805779E-03
(PID.TID 0000.0001) %MON dynstat_wvel_min             =  -1.3060542302673E-03
(PID.TID 0000.0001) %MON dynstat_wvel_mean            =   2.0001276666390E-21
(PID.TID 0000.0001) %MON dynstat_wvel_sd              =   6.5613670229441E-05
(PID.TID 0000.0001) %MON dynstat_wvel_del2            =   1.4074413800716E-05
(PID.TID 0000.0001) %MON dynstat_theta_max            =   2.9129211927312E+01
(PID.TID 0000.0001) %MON dynstat_theta_min            =  -1.8973412904388E+00
(PID.TID 0000.0001) %MON dynstat_theta_mean           =   3.4214093948732E+00
(PID.TID 0000.0001) %MON dynstat_theta_sd             =   4.0742825425629E+00
(PID.TID 0000.0001) %MON dynstat_theta_del2           =   1.2844521356402E-01
(PID.TID 0000.0001) %MON dynstat_salt_max             =   3.7430854140087E+01
(PID.TID 0000.0001) %MON dynstat_salt_min             =   3.0995557119317E+01
(PID.TID 0000.0001) %MON dynstat_salt_mean            =   3.4713677162465E+01
(PID.TID 0000.0001) %MON dynstat_salt_sd              =   2.7653839193281E-01
(PID.TID 0000.0001) %MON dynstat_salt_del2            =   2.1517043088041E-02
(PID.TID 0000.0001) %MON extforcing_qnet_max          =   1.4297082272672E+02
(PID.TID 0000.0001) %MON extforcing_qnet_min          =  -3.7321659810036E+01
(PID.TID 0000.0001) %MON extforcing_qnet_mean         =  -9.7016564560321E-01
(PID.TID 0000.0001) %MON extforcing_qnet_sd           =   2.4461225042667E+01
(PID.TID 0000.0001) %MON extforcing_qnet_del2         =   7.6617347713242E-01
(PID.TID 0000.0001) %MON extforcing_qsw_max           =   0.0000000000000E+00
(PID.TID 0000.0001) %MON extforcing_qsw_min           =   0.0000000000000E+00
(PID.TID 0000.0001) %MON extforcing_qsw_mean          =   0.0000000000000E+00
(PID.TID 0000.0001) %MON extforcing_qsw_sd            =   0.0000000000000E+00
(PID.TID 0000.0001) %MON extforcing_qsw_del2          =   0.0000000000000E+00
(PID.TID 0000.0001) %MON extforcing_empmr_max         =   3.7600376873116E-08
(PID.TID 0000.0001) %MON extforcing_empmr_min         =  -1.7559555290034E-08
(PID.TID 0000.0001) %MON extforcing_empmr_mean        =   1.5643227351799E-09
(PID.TID 0000.0001) %MON extforcing_empmr_sd          =   1.1909003157175E-08
(PID.TID 0000.0001) %MON extforcing_empmr_del2        =   7.5296825504468E-10
(PID.TID 0000.0001) %MON extforcing_fu_max            =   1.6004334390163E-01
(PID.TID 0000.0001) %MON extforcing_fu_min            =  -9.4522543251514E-02
(PID.TID 0000.0001) %MON extforcing_fu_mean           =   8.5992284308032E-03
(PID.TID 0000.0001) %MON extforcing_fu_sd             =   5.4886212407859E-02
(PID.TID 0000.0001) %MON extforcing_fu_del2           =   4.0584634930923E-03
(PID.TID 0000.0001) %MON extforcing_fv_max            =   8.4633164107800E-02
(PID.TID 0000.0001) %MON extforcing_fv_min            =  -6.4357943832874E-02
(PID.TID 0000.0001) %MON extforcing_fv_mean           =   4.7509436927857E-03
(PID.TID 0000.0001) %MON extforcing_fv_sd             =   2.1727465082870E-02
(PID.TID 0000.0001) %MON extforcing_fv_del2           =   2.4257951826325E-03
(PID.TID 0000.0001) %MON advcfl_uvel_max              =   4.8186489885151E-02
(PID.TID 0000.0001) %MON advcfl_vvel_max              =   6.3212550506678E-02
(PID.TID 0000.0001) %MON advcfl_wvel_max              =   2.4040785007517E-01
(PID.TID 0000.0001) %MON advcfl_W_hf_max              =   2.8067427350987E-01
(PID.TID 0000.0001) %MON pe_b_mean                    =   1.3580659041392E-04
(PID.TID 0000.0001) %MON ke_max                       =   1.2611099564044E-01
(PID.TID 0000.0001) %MON ke_mean                      =   3.0739999171054E-04
(PID.TID 0000.0001) %MON ke_vol                       =   1.4101703507225E+18
(PID.TID 0000.0001) %MON vort_r_min                   =  -1.4327118043715E-06
(PID.TID 0000.0001) %MON vort_r_max                   =   1.5588016250031E-06
(PID.TID 0000.0001) %MON vort_a_mean                  =  -1.9922043059714E-05
(PID.TID 0000.0001) %MON vort_a_sd                    =   7.3515522136826E-05
(PID.TID 0000.0001) %MON vort_p_mean                  =  -2.3665444248068E-05
(PID.TID 0000.0001) %MON vort_p_sd                    =   1.0341068255656E-04
(PID.TID 0000.0001) %MON surfExpan_theta_mean         =   1.4807773670020E-04
(PID.TID 0000.0001) %MON surfExpan_salt_mean          =   9.7021506223300E-06
(PID.TID 0000.0001) // =======================================================
(PID.TID 0000.0001) // End MONITOR dynamic field statistics
(PID.TID 0000.0001) // =======================================================
 SH  5.29624879  23.1371924
 NH  10.5505071  25.5180667
 SH  5.29624879  23.1371924
 NH  10.5505071  25.5180667
 cg2d: Sum(rhs),rhsMax =   2.92407606726428E-02  1.75033058582804E+01
(PID.TID 0000.0001)                    cg2d_init_res =    7.27340983155156E-01
(PID.TID 0000.0001)                       cg2d_iters =    22
(PID.TID 0000.0001)                         cg2d_res =    3.36429962410948E-14
(PID.TID 0000.0001) // =======================================================
(PID.TID 0000.0001) // Begin MONITOR dynamic field statistics
(PID.TID 0000.0001) // =======================================================
(PID.TID 0000.0001) %MON time_tsnumber                =                    13
(PID.TID 0000.0001) %MON time_secondsf                =   5.6160000000000E+05
(PID.TID 0000.0001) %MON dynstat_eta_max              =   1.2012785640148E+00
(PID.TID 0000.0001) %MON dynstat_eta_min              =  -1.1443233079096E+00
(PID.TID 0000.0001) %MON dynstat_eta_mean             =  -2.4403434668787E-05
(PID.TID 0000.0001) %MON dynstat_eta_sd               =   3.5706379148508E-01
(PID.TID 0000.0001) %MON dynstat_eta_del2             =   1.8543092055372E-02
(PID.TID 0000.0001) %MON dynstat_uvel_max             =   3.0519899529206E-01
(PID.TID 0000.0001) %MON dynstat_uvel_min             =  -5.1644445118717E-01
(PID.TID 0000.0001) %MON dynstat_uvel_mean            =  -9.4742496796458E-03
(PID.TID 0000.0001) %MON dynstat_uvel_sd              =   1.6722213374115E-02
(PID.TID 0000.0001) %MON dynstat_uvel_del2            =   2.7868734733569E-03
(PID.TID 0000.0001) %MON dynstat_vvel_max             =   4.8959797168595E-01
(PID.TID 0000.0001) %MON dynstat_vvel_min             =  -6.8963428305355E-01
(PID.TID 0000.0001) %MON dynstat_vvel_mean            =   4.5549268170428E-03
(PID.TID 0000.0001) %MON dynstat_vvel_sd              =   1.8125315549621E-02
(PID.TID 0000.0001) %MON dynstat_vvel_del2            =   3.2345743854368E-03
(PID.TID 0000.0001) %MON dynstat_wvel_max             =   2.2866362318870E-03
(PID.TID 0000.0001) %MON dynstat_wvel_min             =  -1.3765400355174E-03
(PID.TID 0000.0001) %MON dynstat_wvel_mean            =  -1.0909787272576E-21
(PID.TID 0000.0001) %MON dynstat_wvel_sd              =   6.7861265766457E-05
(PID.TID 0000.0001) %MON dynstat_wvel_del2            =   1.3981016129985E-05
(PID.TID 0000.0001) %MON dynstat_theta_max            =   2.9088296500955E+01
(PID.TID 0000.0001) %MON dynstat_theta_min            =  -1.8975448119193E+00
(PID.TID 0000.0001) %MON dynstat_theta_mean           =   3.4199717956637E+00
(PID.TID 0000.0001) %MON dynstat_theta_sd             =   4.0701499646925E+00
(PID.TID 0000.0001) %MON dynstat_theta_del2           =   1.2806769797538E-01
(PID.TID 0000.0001) %MON dynstat_salt_max             =   3.7431247239434E+01
(PID.TID 0000.0001) %MON dynstat_salt_min             =   3.0994990916404E+01
(PID.TID 0000.0001) %MON dynstat_salt_mean            =   3.4713586847979E+01
(PID.TID 0000.0001) %MON dynstat_salt_sd              =   2.7650389577884E-01
(PID.TID 0000.0001) %MON dynstat_salt_del2            =   2.1486289566824E-02
(PID.TID 0000.0001) %MON extforcing_qnet_max          =   1.4347719296633E+02
(PID.TID 0000.0001) %MON extforcing_qnet_min          =  -3.7662430170216E+01
(PID.TID 0000.0001) %MON extforcing_qnet_mean         =  -1.0182318495191E+00
(PID.TID 0000.0001) %MON extforcing_qnet_sd           =   2.4605596261550E+01
(PID.TID 0000.0001) %MON extforcing_qnet_del2         =   7.7061319438017E-01
(PID.TID 0000.0001) %MON extforcing_qsw_max           =   0.0000000000000E+00
(PID.TID 0000.0001) %MON extforcing_qsw_min           =   0.0000000000000E+00
(PID.TID 0000.0001) %MON extforcing_qsw_mean          =   0.0000000000000E+00
(PID.TID 0000.0001) %MON extforcing_qsw_sd            =   0.0000000000000E+00
(PID.TID 0000.0001) %MON extforcing_qsw_del2          =   0.0000000000000E+00
(PID.TID 0000.0001) %MON extforcing_empmr_max         =   3.7600376873116E-08
(PID.TID 0000.0001) %MON extforcing_empmr_min         =  -1.7559555290034E-08
(PID.TID 0000.0001) %MON extforcing_empmr_mean        =   1.5643227351799E-09
(PID.TID 0000.0001) %MON extforcing_empmr_sd          =   1.1909003157175E-08
(PID.TID 0000.0001) %MON extforcing_empmr_del2        =   7.5296825504468E-10
(PID.TID 0000.0001) %MON extforcing_fu_max            =   1.6004334390163E-01
(PID.TID 0000.0001) %MON extforcing_fu_min            =  -9.4522543251514E-02
(PID.TID 0000.0001) %MON extforcing_fu_mean           =   8.5992284308032E-03
(PID.TID 0000.0001) %MON extforcing_fu_sd             =   5.4886212407859E-02
(PID.TID 0000.0001) %MON extforcing_fu_del2           =   4.0584634930923E-03
(PID.TID 0000.0001) %MON extforcing_fv_max            =   8.4633164107800E-02
(PID.TID 0000.0001) %MON extforcing_fv_min            =  -6.4357943832874E-02
(PID.TID 0000.0001) %MON extforcing_fv_mean           =   4.7509436927857E-03
(PID.TID 0000.0001) %MON extforcing_fv_sd             =   2.1727465082870E-02
(PID.TID 0000.0001) %MON extforcing_fv_del2           =   2.4257951826325E-03
(PID.TID 0000.0001) %MON advcfl_uvel_max              =   5.0942366053464E-02
(PID.TID 0000.0001) %MON advcfl_vvel_max              =   6.6992440396576E-02
(PID.TID 0000.0001) %MON advcfl_wvel_max              =   2.5621198024740E-01
(PID.TID 0000.0001) %MON advcfl_W_hf_max              =   2.9954861720839E-01
(PID.TID 0000.0001) %MON pe_b_mean                    =   1.4791724635197E-04
(PID.TID 0000.0001) %MON ke_max                       =   1.4196109083936E-01
(PID.TID 0000.0001) %MON ke_mean                      =   3.2943746919335E-04
(PID.TID 0000.0001) %MON ke_vol                       =   1.4101703507225E+18
(PID.TID 0000.0001) %MON vort_r_min                   =  -1.5099778074845E-06
(PID.TID 0000.0001) %MON vort_r_max                   =   1.6597674474184E-06
(PID.TID 0000.0001) %MON vort_a_mean                  =  -1.9922043059714E-05
(PID.TID 0000.0001) %MON vort_a_sd                    =   7.3515430674349E-05
(PID.TID 0000.0001) %MON vort_p_mean                  =  -2.3665444248068E-05
(PID.TID 0000.0001) %MON vort_p_sd                    =   1.0341057130109E-04
(PID.TID 0000.0001) %MON surfExpan_theta_mean         =   1.3444803902586E-04
(PID.TID 0000.0001) %MON surfExpan_salt_mean          =   8.1497128205164E-06
(PID.TID 0000.0001) // =======================================================
(PID.TID 0000.0001) // End MONITOR dynamic field statistics
(PID.TID 0000.0001) // =======================================================
 SH  5.3064113  23.1179718
 NH  10.5503353  25.5130574
 SH  5.3064113  23.1179718
 NH  10.5503353  25.5130574
 cg2d: Sum(rhs),rhsMax =   3.17075887673255E-02  1.73832195157541E+01
(PID.TID 0000.0001)                    cg2d_init_res =    7.07719667565621E-01
(PID.TID 0000.0001)                       cg2d_iters =    22
(PID.TID 0000.0001)                         cg2d_res =    2.51767448410370E-14
(PID.TID 0000.0001) // =======================================================
(PID.TID 0000.0001) // Begin MONITOR dynamic field statistics
(PID.TID 0000.0001) // =======================================================
(PID.TID 0000.0001) %MON time_tsnumber                =                    14
(PID.TID 0000.0001) %MON time_secondsf                =   6.0480000000000E+05
(PID.TID 0000.0001) %MON dynstat_eta_max              =   1.2227175353764E+00
(PID.TID 0000.0001) %MON dynstat_eta_min              =  -1.1498623170830E+00
(PID.TID 0000.0001) %MON dynstat_eta_mean             =  -2.6280621950927E-05
(PID.TID 0000.0001) %MON dynstat_eta_sd               =   3.6857570456469E-01
(PID.TID 0000.0001) %MON dynstat_eta_del2             =   1.8071016568439E-02
(PID.TID 0000.0001) %MON dynstat_uvel_max             =   3.1837915606014E-01
(PID.TID 0000.0001) %MON dynstat_uvel_min             =  -5.4168735877307E-01
(PID.TID 0000.0001) %MON dynstat_uvel_mean            =  -9.7533464718804E-03
(PID.TID 0000.0001) %MON dynstat_uvel_sd              =   1.7714580433820E-02
(PID.TID 0000.0001) %MON dynstat_uvel_del2            =   2.8888396578537E-03
(PID.TID 0000.0001) %MON dynstat_vvel_max             =   5.1680021811356E-01
(PID.TID 0000.0001) %MON dynstat_vvel_min             =  -7.2513845150237E-01
(PID.TID 0000.0001) %MON dynstat_vvel_mean            =   4.2467939997841E-03
(PID.TID 0000.0001) %MON dynstat_vvel_sd              =   1.8314060912847E-02
(PID.TID 0000.0001) %MON dynstat_vvel_del2            =   3.2573812046400E-03
(PID.TID 0000.0001) %MON dynstat_wvel_max             =   2.4125691254275E-03
(PID.TID 0000.0001) %MON dynstat_wvel_min             =  -1.4403232159446E-03
(PID.TID 0000.0001) %MON dynstat_wvel_mean            =  -1.4546383030102E-21
(PID.TID 0000.0001) %MON dynstat_wvel_sd              =   6.9859347189666E-05
(PID.TID 0000.0001) %MON dynstat_wvel_del2            =   1.3773785893008E-05
(PID.TID 0000.0001) %MON dynstat_theta_max            =   2.9047334526569E+01
(PID.TID 0000.0001) %MON dynstat_theta_min            =  -1.8977903143059E+00
(PID.TID 0000.0001) %MON dynstat_theta_mean           =   3.4186848200817E+00
(PID.TID 0000.0001) %MON dynstat_theta_sd             =   4.0661556197641E+00
(PID.TID 0000.0001) %MON dynstat_theta_del2           =   1.2772295549714E-01
(PID.TID 0000.0001) %MON dynstat_salt_max             =   3.7431613954620E+01
(PID.TID 0000.0001) %MON dynstat_salt_min             =   3.0996467913781E+01
(PID.TID 0000.0001) %MON dynstat_salt_mean            =   3.4713513116361E+01
(PID.TID 0000.0001) %MON dynstat_salt_sd              =   2.7645731944205E-01
(PID.TID 0000.0001) %MON dynstat_salt_del2            =   2.1459836982100E-02
(PID.TID 0000.0001) %MON extforcing_qnet_max          =   1.4392600616654E+02
(PID.TID 0000.0001) %MON extforcing_qnet_min          =  -3.7983044392710E+01
(PID.TID 0000.0001) %MON extforcing_qnet_mean         =  -1.0659416361904E+00
(PID.TID 0000.0001) %MON extforcing_qnet_sd           =   2.4740010135479E+01
(PID.TID 0000.0001) %MON extforcing_qnet_del2         =   7.7494770227520E-01
(PID.TID 0000.0001) %MON extforcing_qsw_max           =   0.0000000000000E+00
(PID.TID 0000.0001) %MON extforcing_qsw_min           =   0.0000000000000E+00
(PID.TID 0000.0001) %MON extforcing_qsw_mean          =   0.0000000000000E+00
(PID.TID 0000.0001) %MON extforcing_qsw_sd            =   0.0000000000000E+00
(PID.TID 0000.0001) %MON extforcing_qsw_del2          =   0.0000000000000E+00
(PID.TID 0000.0001) %MON extforcing_empmr_max         =   3.7600376873116E-08
(PID.TID 0000.0001) %MON extforcing_empmr_min         =  -1.7559555290034E-08
(PID.TID 0000.0001) %MON extforcing_empmr_mean        =   1.5643227351799E-09
(PID.TID 0000.0001) %MON extforcing_empmr_sd          =   1.1909003157175E-08
(PID.TID 0000.0001) %MON extforcing_empmr_del2        =   7.5296825504468E-10
(PID.TID 0000.0001) %MON extforcing_fu_max            =   1.6004334390163E-01
(PID.TID 0000.0001) %MON extforcing_fu_min            =  -9.4522543251514E-02
(PID.TID 0000.0001) %MON extforcing_fu_mean           =   8.5992284308032E-03
(PID.TID 0000.0001) %MON extforcing_fu_sd             =   5.4886212407859E-02
(PID.TID 0000.0001) %MON extforcing_fu_del2           =   4.0584634930923E-03
(PID.TID 0000.0001) %MON extforcing_fv_max            =   8.4633164107800E-02
(PID.TID 0000.0001) %MON extforcing_fv_min            =  -6.4357943832874E-02
(PID.TID 0000.0001) %MON extforcing_fv_mean           =   4.7509436927857E-03
(PID.TID 0000.0001) %MON extforcing_fv_sd             =   2.1727465082870E-02
(PID.TID 0000.0001) %MON extforcing_fv_del2           =   2.4257951826325E-03
(PID.TID 0000.0001) %MON advcfl_uvel_max              =   5.3432340407024E-02
(PID.TID 0000.0001) %MON advcfl_vvel_max              =   7.0441385652177E-02
(PID.TID 0000.0001) %MON advcfl_wvel_max              =   2.7062331285964E-01
(PID.TID 0000.0001) %MON advcfl_W_hf_max              =   3.1669291782307E-01
(PID.TID 0000.0001) %MON pe_b_mean                    =   1.5760884914996E-04
(PID.TID 0000.0001) %MON ke_max                       =   1.5734020652149E-01
(PID.TID 0000.0001) %MON ke_mean                      =   3.4958559164470E-04
(PID.TID 0000.0001) %MON ke_vol                       =   1.4101703507225E+18
(PID.TID 0000.0001) %MON vort_r_min                   =  -1.5775776316387E-06
(PID.TID 0000.0001) %MON vort_r_max                   =   1.7537794997623E-06
(PID.TID 0000.0001) %MON vort_a_mean                  =  -1.9922043059714E-05
(PID.TID 0000.0001) %MON vort_a_sd                    =   7.3515365404200E-05
(PID.TID 0000.0001) %MON vort_p_mean                  =  -2.3665444248068E-05
(PID.TID 0000.0001) %MON vort_p_sd                    =   1.0341053249463E-04
(PID.TID 0000.0001) %MON surfExpan_theta_mean         =   1.1957458223697E-04
(PID.TID 0000.0001) %MON surfExpan_salt_mean          =   6.5366470286683E-06
(PID.TID 0000.0001) // =======================================================
(PID.TID 0000.0001) // End MONITOR dynamic field statistics
(PID.TID 0000.0001) // =======================================================
 SH  5.31589184  23.1004926
 NH  10.5488023  25.5066929
 SH  5.31589184  23.1004926
 NH  10.5488023  25.5066929
 cg2d: Sum(rhs),rhsMax =   3.41494274781748E-02  1.72931149287918E+01
(PID.TID 0000.0001)                    cg2d_init_res =    7.02843491229592E-01
(PID.TID 0000.0001)                       cg2d_iters =    21
(PID.TID 0000.0001)                         cg2d_res =    9.37177966694193E-14
(PID.TID 0000.0001) // =======================================================
(PID.TID 0000.0001) // Begin MONITOR dynamic field statistics
(PID.TID 0000.0001) // =======================================================
(PID.TID 0000.0001) %MON time_tsnumber                =                    15
(PID.TID 0000.0001) %MON time_secondsf                =   6.4800000000000E+05
(PID.TID 0000.0001) %MON dynstat_eta_max              =   1.2168475188687E+00
(PID.TID 0000.0001) %MON dynstat_eta_min              =  -1.1340657618119E+00
(PID.TID 0000.0001) %MON dynstat_eta_mean             =  -2.8157809233296E-05
(PID.TID 0000.0001) %MON dynstat_eta_sd               =   3.7685256962231E-01
(PID.TID 0000.0001) %MON dynstat_eta_del2             =   1.7632339773335E-02
(PID.TID 0000.0001) %MON dynstat_uvel_max             =   3.3087029390577E-01
(PID.TID 0000.0001) %MON dynstat_uvel_min             =  -5.6415261523784E-01
(PID.TID 0000.0001) %MON dynstat_uvel_mean            =  -9.8917024843845E-03
(PID.TID 0000.0001) %MON dynstat_uvel_sd              =   1.8597689069081E-02
(PID.TID 0000.0001) %MON dynstat_uvel_del2            =   2.9743973169254E-03
(PID.TID 0000.0001) %MON dynstat_vvel_max             =   5.4174632513331E-01
(PID.TID 0000.0001) %MON dynstat_vvel_min             =  -7.5693004164322E-01
(PID.TID 0000.0001) %MON dynstat_vvel_mean            =   3.9330965926938E-03
(PID.TID 0000.0001) %MON dynstat_vvel_sd              =   1.8509840928249E-02
(PID.TID 0000.0001) %MON dynstat_vvel_del2            =   3.2548163725007E-03
(PID.TID 0000.0001) %MON dynstat_wvel_max             =   2.5256575662484E-03
(PID.TID 0000.0001) %MON dynstat_wvel_min             =  -1.4968216721610E-03
(PID.TID 0000.0001) %MON dynstat_wvel_mean            =   8.1823404544323E-22
(PID.TID 0000.0001) %MON dynstat_wvel_sd              =   7.1603973283909E-05
(PID.TID 0000.0001) %MON dynstat_wvel_del2            =   1.3457942628726E-05
(PID.TID 0000.0001) %MON dynstat_theta_max            =   2.9012519307049E+01
(PID.TID 0000.0001) %MON dynstat_theta_min            =  -1.8979935039258E+00
(PID.TID 0000.0001) %MON dynstat_theta_mean           =   3.4175579718801E+00
(PID.TID 0000.0001) %MON dynstat_theta_sd             =   4.0623468623185E+00
(PID.TID 0000.0001) %MON dynstat_theta_del2           =   1.2739931983517E-01
(PID.TID 0000.0001) %MON dynstat_salt_max             =   3.7431805281034E+01
(PID.TID 0000.0001) %MON dynstat_salt_min             =   3.0999895594418E+01
(PID.TID 0000.0001) %MON dynstat_salt_mean            =   3.4713456215057E+01
(PID.TID 0000.0001) %MON dynstat_salt_sd              =   2.7640083310357E-01
(PID.TID 0000.0001) %MON dynstat_salt_del2            =   2.1437096331622E-02
(PID.TID 0000.0001) %MON extforcing_qnet_max          =   1.4436734542224E+02
(PID.TID 0000.0001) %MON extforcing_qnet_min          =  -3.8275792306262E+01
(PID.TID 0000.0001) %MON extforcing_qnet_mean         =  -1.1124213033188E+00
(PID.TID 0000.0001) %MON extforcing_qnet_sd           =   2.4867730468117E+01
(PID.TID 0000.0001) %MON extforcing_qnet_del2         =   7.7882246784216E-01
(PID.TID 0000.0001) %MON extforcing_qsw_max           =   0.0000000000000E+00
(PID.TID 0000.0001) %MON extforcing_qsw_min           =   0.0000000000000E+00
(PID.TID 0000.0001) %MON extforcing_qsw_mean          =   0.0000000000000E+00
(PID.TID 0000.0001) %MON extforcing_qsw_sd            =   0.0000000000000E+00
(PID.TID 0000.0001) %MON extforcing_qsw_del2          =   0.0000000000000E+00
(PID.TID 0000.0001) %MON extforcing_empmr_max         =   3.7600376873116E-08
(PID.TID 0000.0001) %MON extforcing_empmr_min         =  -1.7559555290034E-08
(PID.TID 0000.0001) %MON extforcing_empmr_mean        =   1.5643227351799E-09
(PID.TID 0000.0001) %MON extforcing_empmr_sd          =   1.1909003157175E-08
(PID.TID 0000.0001) %MON extforcing_empmr_del2        =   7.5296825504468E-10
(PID.TID 0000.0001) %MON extforcing_fu_max            =   1.6004334390163E-01
(PID.TID 0000.0001) %MON extforcing_fu_min            =  -9.4522543251514E-02
(PID.TID 0000.0001) %MON extforcing_fu_mean           =   8.5992284308032E-03
(PID.TID 0000.0001) %MON extforcing_fu_sd             =   5.4886212407859E-02
(PID.TID 0000.0001) %MON extforcing_fu_del2           =   4.0584634930923E-03
(PID.TID 0000.0001) %MON extforcing_fv_max            =   8.4633164107800E-02
(PID.TID 0000.0001) %MON extforcing_fv_min            =  -6.4357943832874E-02
(PID.TID 0000.0001) %MON extforcing_fv_mean           =   4.7509436927857E-03
(PID.TID 0000.0001) %MON extforcing_fv_sd             =   2.1727465082870E-02
(PID.TID 0000.0001) %MON extforcing_fv_del2           =   2.4257951826325E-03
(PID.TID 0000.0001) %MON advcfl_uvel_max              =   5.5648325719060E-02
(PID.TID 0000.0001) %MON advcfl_vvel_max              =   7.3529683696458E-02
(PID.TID 0000.0001) %MON advcfl_wvel_max              =   2.8352671667540E-01
(PID.TID 0000.0001) %MON advcfl_W_hf_max              =   3.3196768714848E-01
(PID.TID 0000.0001) %MON pe_b_mean                    =   1.6476696841844E-04
(PID.TID 0000.0001) %MON ke_max                       =   1.7198179839639E-01
(PID.TID 0000.0001) %MON ke_mean                      =   3.6775621943264E-04
(PID.TID 0000.0001) %MON ke_vol                       =   1.4101703507225E+18
(PID.TID 0000.0001) %MON vort_r_min                   =  -1.6351550362364E-06
(PID.TID 0000.0001) %MON vort_r_max                   =   1.8405294156477E-06
(PID.TID 0000.0001) %MON vort_a_mean                  =  -1.9922043059714E-05
(PID.TID 0000.0001) %MON vort_a_sd                    =   7.3515326868670E-05
(PID.TID 0000.0001) %MON vort_p_mean                  =  -2.3665444248068E-05
(PID.TID 0000.0001) %MON vort_p_sd                    =   1.0341056044085E-04
(PID.TID 0000.0001) %MON surfExpan_theta_mean         =   1.0394140225802E-04
(PID.TID 0000.0001) %MON surfExpan_salt_mean          =   4.9162599780727E-06
(PID.TID 0000.0001) // =======================================================
(PID.TID 0000.0001) // End MONITOR dynamic field statistics
(PID.TID 0000.0001) // =======================================================
 SH  5.32446387  23.0851821
 NH  10.5460211  25.4987333
 SH  5.32446387  23.0851821
 NH  10.5460211  25.4987333
 cg2d: Sum(rhs),rhsMax =   3.66792492746253E-02  1.71737422349189E+01
(PID.TID 0000.0001)                    cg2d_init_res =    7.11776343323156E-01
(PID.TID 0000.0001)                       cg2d_iters =    22
(PID.TID 0000.0001)                         cg2d_res =    2.50812944923226E-14
(PID.TID 0000.0001) // =======================================================
(PID.TID 0000.0001) // Begin MONITOR dynamic field statistics
(PID.TID 0000.0001) // =======================================================
(PID.TID 0000.0001) %MON time_tsnumber                =                    16
(PID.TID 0000.0001) %MON time_secondsf                =   6.9120000000000E+05
(PID.TID 0000.0001) %MON dynstat_eta_max              =   1.1878146085648E+00
(PID.TID 0000.0001) %MON dynstat_eta_min              =  -1.1335600386103E+00
(PID.TID 0000.0001) %MON dynstat_eta_mean             =  -3.0034996515447E-05
(PID.TID 0000.0001) %MON dynstat_eta_sd               =   3.8223618899133E-01
(PID.TID 0000.0001) %MON dynstat_eta_del2             =   1.7270782792453E-02
(PID.TID 0000.0001) %MON dynstat_uvel_max             =   3.4243934291812E-01
(PID.TID 0000.0001) %MON dynstat_uvel_min             =  -5.8381577047478E-01
(PID.TID 0000.0001) %MON dynstat_uvel_mean            =  -9.8937889495568E-03
(PID.TID 0000.0001) %MON dynstat_uvel_sd              =   1.9372074381455E-02
(PID.TID 0000.0001) %MON dynstat_uvel_del2            =   3.0449539038302E-03
(PID.TID 0000.0001) %MON dynstat_vvel_max             =   5.6445741048414E-01
(PID.TID 0000.0001) %MON dynstat_vvel_min             =  -7.8465618451248E-01
(PID.TID 0000.0001) %MON dynstat_vvel_mean            =   3.6330997348100E-03
(PID.TID 0000.0001) %MON dynstat_vvel_sd              =   1.8713215650007E-02
(PID.TID 0000.0001) %MON dynstat_vvel_del2            =   3.2294759904494E-03
(PID.TID 0000.0001) %MON dynstat_wvel_max             =   2.6248387347733E-03
(PID.TID 0000.0001) %MON dynstat_wvel_min             =  -1.5448159170311E-03
(PID.TID 0000.0001) %MON dynstat_wvel_mean            =  -2.5456170302678E-21
(PID.TID 0000.0001) %MON dynstat_wvel_sd              =   7.3084007948963E-05
(PID.TID 0000.0001) %MON dynstat_wvel_del2            =   1.3058513425127E-05
(PID.TID 0000.0001) %MON dynstat_theta_max            =   2.8976330808410E+01
(PID.TID 0000.0001) %MON dynstat_theta_min            =  -1.8981567533086E+00
(PID.TID 0000.0001) %MON dynstat_theta_mean           =   3.4165956336390E+00
(PID.TID 0000.0001) %MON dynstat_theta_sd             =   4.0587708892992E+00
(PID.TID 0000.0001) %MON dynstat_theta_del2           =   1.2708788039106E-01
(PID.TID 0000.0001) %MON dynstat_salt_max             =   3.7431737927530E+01
(PID.TID 0000.0001) %MON dynstat_salt_min             =   3.1005073659855E+01
(PID.TID 0000.0001) %MON dynstat_salt_mean            =   3.4713415887539E+01
(PID.TID 0000.0001) %MON dynstat_salt_sd              =   2.7633752115150E-01
(PID.TID 0000.0001) %MON dynstat_salt_del2            =   2.1417852885377E-02
(PID.TID 0000.0001) %MON extforcing_qnet_max          =   1.4483445566918E+02
(PID.TID 0000.0001) %MON extforcing_qnet_min          =  -3.8533747861011E+01
(PID.TID 0000.0001) %MON extforcing_qnet_mean         =  -1.1568688590889E+00
(PID.TID 0000.0001) %MON extforcing_qnet_sd           =   2.4990299911755E+01
(PID.TID 0000.0001) %MON extforcing_qnet_del2         =   7.8268255224937E-01
(PID.TID 0000.0001) %MON extforcing_qsw_max           =   0.0000000000000E+00
(PID.TID 0000.0001) %MON extforcing_qsw_min           =   0.0000000000000E+00
(PID.TID 0000.0001) %MON extforcing_qsw_mean          =   0.0000000000000E+00
(PID.TID 0000.0001) %MON extforcing_qsw_sd            =   0.0000000000000E+00
(PID.TID 0000.0001) %MON extforcing_qsw_del2          =   0.0000000000000E+00
(PID.TID 0000.0001) %MON extforcing_empmr_max         =   3.7600376873116E-08
(PID.TID 0000.0001) %MON extforcing_empmr_min         =  -1.7559555290034E-08
(PID.TID 0000.0001) %MON extforcing_empmr_mean        =   1.5643227351799E-09
(PID.TID 0000.0001) %MON extforcing_empmr_sd          =   1.1909003157175E-08
(PID.TID 0000.0001) %MON extforcing_empmr_del2        =   7.5296825504468E-10
(PID.TID 0000.0001) %MON extforcing_fu_max            =   1.6004334390163E-01
(PID.TID 0000.0001) %MON extforcing_fu_min            =  -9.4522543251514E-02
(PID.TID 0000.0001) %MON extforcing_fu_mean           =   8.5992284308032E-03
(PID.TID 0000.0001) %MON extforcing_fu_sd             =   5.4886212407859E-02
(PID.TID 0000.0001) %MON extforcing_fu_del2           =   4.0584634930923E-03
(PID.TID 0000.0001) %MON extforcing_fv_max            =   8.4633164107800E-02
(PID.TID 0000.0001) %MON extforcing_fv_min            =  -6.4357943832874E-02
(PID.TID 0000.0001) %MON extforcing_fv_mean           =   4.7509436927857E-03
(PID.TID 0000.0001) %MON extforcing_fv_sd             =   2.1727465082870E-02
(PID.TID 0000.0001) %MON extforcing_fv_del2           =   2.4257951826325E-03
(PID.TID 0000.0001) %MON advcfl_uvel_max              =   5.7587910217536E-02
(PID.TID 0000.0001) %MON advcfl_vvel_max              =   7.6223056139272E-02
(PID.TID 0000.0001) %MON advcfl_wvel_max              =   2.9479140911359E-01
(PID.TID 0000.0001) %MON advcfl_W_hf_max              =   3.4521307138452E-01
(PID.TID 0000.0001) %MON pe_b_mean                    =   1.6950823206132E-04
(PID.TID 0000.0001) %MON ke_max                       =   1.8568361166885E-01
(PID.TID 0000.0001) %MON ke_mean                      =   3.8376016175916E-04
(PID.TID 0000.0001) %MON ke_vol                       =   1.4101703507225E+18
(PID.TID 0000.0001) %MON vort_r_min                   =  -1.6824806575611E-06
(PID.TID 0000.0001) %MON vort_r_max                   =   1.9200135942270E-06
(PID.TID 0000.0001) %MON vort_a_mean                  =  -1.9922043059714E-05
(PID.TID 0000.0001) %MON vort_a_sd                    =   7.3515314860509E-05
(PID.TID 0000.0001) %MON vort_p_mean                  =  -2.3665444248068E-05
(PID.TID 0000.0001) %MON vort_p_sd                    =   1.0341064641897E-04
(PID.TID 0000.0001) %MON surfExpan_theta_mean         =   8.8013542625933E-05
(PID.TID 0000.0001) %MON surfExpan_salt_mean          =   3.3345833717231E-06
(PID.TID 0000.0001) // =======================================================
(PID.TID 0000.0001) // End MONITOR dynamic field statistics
(PID.TID 0000.0001) // =======================================================
 SH  5.33195236  23.0724398
 NH  10.5420184  25.4889894
 SH  5.33195236  23.0724398
 NH  10.5420184  25.4889894
 cg2d: Sum(rhs),rhsMax =   3.94332617464226E-02  1.69727266030189E+01
(PID.TID 0000.0001)                    cg2d_init_res =    7.30435952447966E-01
(PID.TID 0000.0001)                       cg2d_iters =    22
(PID.TID 0000.0001)                         cg2d_res =    2.53787581510914E-14
(PID.TID 0000.0001) // =======================================================
(PID.TID 0000.0001) // Begin MONITOR dynamic field statistics
(PID.TID 0000.0001) // =======================================================
(PID.TID 0000.0001) %MON time_tsnumber                =                    17
(PID.TID 0000.0001) %MON time_secondsf                =   7.3440000000000E+05
(PID.TID 0000.0001) %MON dynstat_eta_max              =   1.1402378277804E+00
(PID.TID 0000.0001) %MON dynstat_eta_min              =  -1.1406095201476E+00
(PID.TID 0000.0001) %MON dynstat_eta_mean             =  -3.1912183797612E-05
(PID.TID 0000.0001) %MON dynstat_eta_sd               =   3.8516951944612E-01
(PID.TID 0000.0001) %MON dynstat_eta_del2             =   1.6995199294783E-02
(PID.TID 0000.0001) %MON dynstat_uvel_max             =   3.5231595931288E-01
(PID.TID 0000.0001) %MON dynstat_uvel_min             =  -6.0067569989699E-01
(PID.TID 0000.0001) %MON dynstat_uvel_mean            =  -9.7679131461283E-03
(PID.TID 0000.0001) %MON dynstat_uvel_sd              =   2.0041149505105E-02
(PID.TID 0000.0001) %MON dynstat_uvel_del2            =   3.1045244835615E-03
(PID.TID 0000.0001) %MON dynstat_vvel_max             =   5.8506126619156E-01
(PID.TID 0000.0001) %MON dynstat_vvel_min             =  -8.0800441735328E-01
(PID.TID 0000.0001) %MON dynstat_vvel_mean            =   3.3625670077041E-03
(PID.TID 0000.0001) %MON dynstat_vvel_sd              =   1.8915522251226E-02
(PID.TID 0000.0001) %MON dynstat_vvel_del2            =   3.1859063047018E-03
(PID.TID 0000.0001) %MON dynstat_wvel_max             =   2.7094736122375E-03
(PID.TID 0000.0001) %MON dynstat_wvel_min             =  -1.5827689027976E-03
(PID.TID 0000.0001) %MON dynstat_wvel_mean            =   1.0000638333195E-21
(PID.TID 0000.0001) %MON dynstat_wvel_sd              =   7.4285307599175E-05
(PID.TID 0000.0001) %MON dynstat_wvel_del2            =   1.2598546957157E-05
(PID.TID 0000.0001) %MON dynstat_theta_max            =   2.8939579863407E+01
(PID.TID 0000.0001) %MON dynstat_theta_min            =  -1.8982846033048E+00
(PID.TID 0000.0001) %MON dynstat_theta_mean           =   3.4157978867956E+00
(PID.TID 0000.0001) %MON dynstat_theta_sd             =   4.0554723421155E+00
(PID.TID 0000.0001) %MON dynstat_theta_del2           =   1.2680527851988E-01
(PID.TID 0000.0001) %MON dynstat_salt_max             =   3.7431395499061E+01
(PID.TID 0000.0001) %MON dynstat_salt_min             =   3.1011740674373E+01
(PID.TID 0000.0001) %MON dynstat_salt_mean            =   3.4713391452323E+01
(PID.TID 0000.0001) %MON dynstat_salt_sd              =   2.7627094418807E-01
(PID.TID 0000.0001) %MON dynstat_salt_del2            =   2.1401483733831E-02
(PID.TID 0000.0001) %MON extforcing_qnet_max          =   1.4534734026823E+02
(PID.TID 0000.0001) %MON extforcing_qnet_min          =  -3.8750752778301E+01
(PID.TID 0000.0001) %MON extforcing_qnet_mean         =  -1.1985865296301E+00
(PID.TID 0000.0001) %MON extforcing_qnet_sd           =   2.5108002068177E+01
(PID.TID 0000.0001) %MON extforcing_qnet_del2         =   7.8591477044515E-01
(PID.TID 0000.0001) %MON extforcing_qsw_max           =   0.0000000000000E+00
(PID.TID 0000.0001) %MON extforcing_qsw_min           =   0.0000000000000E+00
(PID.TID 0000.0001) %MON extforcing_qsw_mean          =   0.0000000000000E+00
(PID.TID 0000.0001) %MON extforcing_qsw_sd            =   0.0000000000000E+00
(PID.TID 0000.0001) %MON extforcing_qsw_del2          =   0.0000000000000E+00
(PID.TID 0000.0001) %MON extforcing_empmr_max         =   3.7600376873116E-08
(PID.TID 0000.0001) %MON extforcing_empmr_min         =  -1.7559555290034E-08
(PID.TID 0000.0001) %MON extforcing_empmr_mean        =   1.5643227351799E-09
(PID.TID 0000.0001) %MON extforcing_empmr_sd          =   1.1909003157175E-08
(PID.TID 0000.0001) %MON extforcing_empmr_del2        =   7.5296825504468E-10
(PID.TID 0000.0001) %MON extforcing_fu_max            =   1.6004334390163E-01
(PID.TID 0000.0001) %MON extforcing_fu_min            =  -9.4522543251514E-02
(PID.TID 0000.0001) %MON extforcing_fu_mean           =   8.5992284308032E-03
(PID.TID 0000.0001) %MON extforcing_fu_sd             =   5.4886212407859E-02
(PID.TID 0000.0001) %MON extforcing_fu_del2           =   4.0584634930923E-03
(PID.TID 0000.0001) %MON extforcing_fv_max            =   8.4633164107800E-02
(PID.TID 0000.0001) %MON extforcing_fv_min            =  -6.4357943832874E-02
(PID.TID 0000.0001) %MON extforcing_fv_mean           =   4.7509436927857E-03
(PID.TID 0000.0001) %MON extforcing_fv_sd             =   2.1727465082870E-02
(PID.TID 0000.0001) %MON extforcing_fv_del2           =   2.4257951826325E-03
(PID.TID 0000.0001) %MON advcfl_uvel_max              =   5.9250982972577E-02
(PID.TID 0000.0001) %MON advcfl_vvel_max              =   7.8491149729438E-02
(PID.TID 0000.0001) %MON advcfl_wvel_max              =   3.0434681818677E-01
(PID.TID 0000.0001) %MON advcfl_W_hf_max              =   3.5635137865025E-01
(PID.TID 0000.0001) %MON pe_b_mean                    =   1.7211987154594E-04
(PID.TID 0000.0001) %MON ke_max                       =   1.9830731119376E-01
(PID.TID 0000.0001) %MON ke_mean                      =   3.9739344103327E-04
(PID.TID 0000.0001) %MON ke_vol                       =   1.4101703507225E+18
(PID.TID 0000.0001) %MON vort_r_min                   =  -1.7195267268078E-06
(PID.TID 0000.0001) %MON vort_r_max                   =   1.9925519880129E-06
(PID.TID 0000.0001) %MON vort_a_mean                  =  -1.9922043059714E-05
(PID.TID 0000.0001) %MON vort_a_sd                    =   7.3515328457206E-05
(PID.TID 0000.0001) %MON vort_p_mean                  =  -2.3665444248068E-05
(PID.TID 0000.0001) %MON vort_p_sd                    =   1.0341077971863E-04
(PID.TID 0000.0001) %MON surfExpan_theta_mean         =   7.2244632093901E-05
(PID.TID 0000.0001) %MON surfExpan_salt_mean          =   1.8311687466630E-06
(PID.TID 0000.0001) // =======================================================
(PID.TID 0000.0001) // End MONITOR dynamic field statistics
(PID.TID 0000.0001) // =======================================================
 SH  5.3382169  23.062619
 NH  10.536761  25.477298
 SH  5.3382169  23.062619
 NH  10.536761  25.477298
 cg2d: Sum(rhs),rhsMax =   4.25794992123052E-02  1.66432199079536E+01
(PID.TID 0000.0001)                    cg2d_init_res =    7.54911098855446E-01
(PID.TID 0000.0001)                       cg2d_iters =    22
(PID.TID 0000.0001)                         cg2d_res =    2.47352508282517E-14
(PID.TID 0000.0001) // =======================================================
(PID.TID 0000.0001) // Begin MONITOR dynamic field statistics
(PID.TID 0000.0001) // =======================================================
(PID.TID 0000.0001) %MON time_tsnumber                =                    18
(PID.TID 0000.0001) %MON time_secondsf                =   7.7760000000000E+05
(PID.TID 0000.0001) %MON dynstat_eta_max              =   1.1024370478847E+00
(PID.TID 0000.0001) %MON dynstat_eta_min              =  -1.1399507630577E+00
(PID.TID 0000.0001) %MON dynstat_eta_mean             =  -3.3789371079748E-05
(PID.TID 0000.0001) %MON dynstat_eta_sd               =   3.8613680745563E-01
(PID.TID 0000.0001) %MON dynstat_eta_del2             =   1.6740433846353E-02
(PID.TID 0000.0001) %MON dynstat_uvel_max             =   3.6068872373343E-01
(PID.TID 0000.0001) %MON dynstat_uvel_min             =  -6.1471737406038E-01
(PID.TID 0000.0001) %MON dynstat_uvel_mean            =  -9.5256321190211E-03
(PID.TID 0000.0001) %MON dynstat_uvel_sd              =   2.0610067911774E-02
(PID.TID 0000.0001) %MON dynstat_uvel_del2            =   3.1562750958880E-03
(PID.TID 0000.0001) %MON dynstat_vvel_max             =   6.0370195749891E-01
(PID.TID 0000.0001) %MON dynstat_vvel_min             =  -8.2678051373000E-01
(PID.TID 0000.0001) %MON dynstat_vvel_mean            =   3.1336287382359E-03
(PID.TID 0000.0001) %MON dynstat_vvel_sd              =   1.9104440383348E-02
(PID.TID 0000.0001) %MON dynstat_vvel_del2            =   3.1300667143889E-03
(PID.TID 0000.0001) %MON dynstat_wvel_max             =   2.7796084452786E-03
(PID.TID 0000.0001) %MON dynstat_wvel_min             =  -1.6092538946842E-03
(PID.TID 0000.0001) %MON dynstat_wvel_mean            =  -1.1818936211958E-21
(PID.TID 0000.0001) %MON dynstat_wvel_sd              =   7.5197730022329E-05
(PID.TID 0000.0001) %MON dynstat_wvel_del2            =   1.2104064944920E-05
(PID.TID 0000.0001) %MON dynstat_theta_max            =   2.8902872044379E+01
(PID.TID 0000.0001) %MON dynstat_theta_min            =  -1.8983818685821E+00
(PID.TID 0000.0001) %MON dynstat_theta_mean           =   3.4151602781118E+00
(PID.TID 0000.0001) %MON dynstat_theta_sd             =   4.0524896651707E+00
(PID.TID 0000.0001) %MON dynstat_theta_del2           =   1.2655999386881E-01
(PID.TID 0000.0001) %MON dynstat_salt_max             =   3.7430815849340E+01
(PID.TID 0000.0001) %MON dynstat_salt_min             =   3.1019609978569E+01
(PID.TID 0000.0001) %MON dynstat_salt_mean            =   3.4713381864511E+01
(PID.TID 0000.0001) %MON dynstat_salt_sd              =   2.7620474275762E-01
(PID.TID 0000.0001) %MON dynstat_salt_del2            =   2.1388973797890E-02
(PID.TID 0000.0001) %MON extforcing_qnet_max          =   1.4591767532899E+02
(PID.TID 0000.0001) %MON extforcing_qnet_min          =  -3.8921503690509E+01
(PID.TID 0000.0001) %MON extforcing_qnet_mean         =  -1.2370152025484E+00
(PID.TID 0000.0001) %MON extforcing_qnet_sd           =   2.5220474701479E+01
(PID.TID 0000.0001) %MON extforcing_qnet_del2         =   7.8830414749060E-01
(PID.TID 0000.0001) %MON extforcing_qsw_max           =   0.0000000000000E+00
(PID.TID 0000.0001) %MON extforcing_qsw_min           =   0.0000000000000E+00
(PID.TID 0000.0001) %MON extforcing_qsw_mean          =   0.0000000000000E+00
(PID.TID 0000.0001) %MON extforcing_qsw_sd            =   0.0000000000000E+00
(PID.TID 0000.0001) %MON extforcing_qsw_del2          =   0.0000000000000E+00
(PID.TID 0000.0001) %MON extforcing_empmr_max         =   3.7600376873116E-08
(PID.TID 0000.0001) %MON extforcing_empmr_min         =  -1.7559555290034E-08
(PID.TID 0000.0001) %MON extforcing_empmr_mean        =   1.5643227351799E-09
(PID.TID 0000.0001) %MON extforcing_empmr_sd          =   1.1909003157175E-08
(PID.TID 0000.0001) %MON extforcing_empmr_del2        =   7.5296825504468E-10
(PID.TID 0000.0001) %MON extforcing_fu_max            =   1.6004334390163E-01
(PID.TID 0000.0001) %MON extforcing_fu_min            =  -9.4522543251514E-02
(PID.TID 0000.0001) %MON extforcing_fu_mean           =   8.5992284308032E-03
(PID.TID 0000.0001) %MON extforcing_fu_sd             =   5.4886212407859E-02
(PID.TID 0000.0001) %MON extforcing_fu_del2           =   4.0584634930923E-03
(PID.TID 0000.0001) %MON extforcing_fv_max            =   8.4633164107800E-02
(PID.TID 0000.0001) %MON extforcing_fv_min            =  -6.4357943832874E-02
(PID.TID 0000.0001) %MON extforcing_fv_mean           =   4.7509436927857E-03
(PID.TID 0000.0001) %MON extforcing_fv_sd             =   2.1727465082870E-02
(PID.TID 0000.0001) %MON extforcing_fv_del2           =   2.4257951826325E-03
(PID.TID 0000.0001) %MON advcfl_uvel_max              =   6.0636061471515E-02
(PID.TID 0000.0001) %MON advcfl_vvel_max              =   8.0315096926245E-02
(PID.TID 0000.0001) %MON advcfl_wvel_max              =   3.1221752512871E-01
(PID.TID 0000.0001) %MON advcfl_W_hf_max              =   3.6545659801402E-01
(PID.TID 0000.0001) %MON pe_b_mean                    =   1.7298545701424E-04
(PID.TID 0000.0001) %MON ke_max                       =   2.0974907062280E-01
(PID.TID 0000.0001) %MON ke_mean                      =   4.0850305848336E-04
(PID.TID 0000.0001) %MON ke_vol                       =   1.4101703507225E+18
(PID.TID 0000.0001) %MON vort_r_min                   =  -1.7465148209435E-06
(PID.TID 0000.0001) %MON vort_r_max                   =   2.0586194275615E-06
(PID.TID 0000.0001) %MON vort_a_mean                  =  -1.9922043059714E-05
(PID.TID 0000.0001) %MON vort_a_sd                    =   7.3515366065313E-05
(PID.TID 0000.0001) %MON vort_p_mean                  =  -2.3665444248068E-05
(PID.TID 0000.0001) %MON vort_p_sd                    =   1.0341094871534E-04
(PID.TID 0000.0001) %MON surfExpan_theta_mean         =   5.7074299169061E-05
(PID.TID 0000.0001) %MON surfExpan_salt_mean          =   4.4080542566335E-07
(PID.TID 0000.0001) // =======================================================
(PID.TID 0000.0001) // End MONITOR dynamic field statistics
(PID.TID 0000.0001) // =======================================================
 SH  5.34314812  23.0560006
 NH  10.530186  25.4635318
 SH  5.34314812  23.0560006
 NH  10.530186  25.4635318
 cg2d: Sum(rhs),rhsMax =   4.62311271650044E-02  1.61802234361823E+01
(PID.TID 0000.0001)                    cg2d_init_res =    7.81157877990374E-01
(PID.TID 0000.0001)                       cg2d_iters =    22
(PID.TID 0000.0001)                         cg2d_res =    2.85105426870005E-14
(PID.TID 0000.0001) // =======================================================
(PID.TID 0000.0001) // Begin MONITOR dynamic field statistics
(PID.TID 0000.0001) // =======================================================
(PID.TID 0000.0001) %MON time_tsnumber                =                    19
(PID.TID 0000.0001) %MON time_secondsf                =   8.2080000000000E+05
(PID.TID 0000.0001) %MON dynstat_eta_max              =   1.1009867226082E+00
(PID.TID 0000.0001) %MON dynstat_eta_min              =  -1.1328212619943E+00
(PID.TID 0000.0001) %MON dynstat_eta_mean             =  -3.5666558361956E-05
(PID.TID 0000.0001) %MON dynstat_eta_sd               =   3.8561375917700E-01
(PID.TID 0000.0001) %MON dynstat_eta_del2             =   1.6542393824309E-02
(PID.TID 0000.0001) %MON dynstat_uvel_max             =   3.6766818325527E-01
(PID.TID 0000.0001) %MON dynstat_uvel_min             =  -6.2591695952162E-01
(PID.TID 0000.0001) %MON dynstat_uvel_mean            =  -9.1810863035574E-03
(PID.TID 0000.0001) %MON dynstat_uvel_sd              =   2.1083356319790E-02
(PID.TID 0000.0001) %MON dynstat_uvel_del2            =   3.2034765706399E-03
(PID.TID 0000.0001) %MON dynstat_vvel_max             =   6.2048099368953E-01
(PID.TID 0000.0001) %MON dynstat_vvel_min             =  -8.4090521279354E-01
(PID.TID 0000.0001) %MON dynstat_vvel_mean            =   2.9548384698637E-03
(PID.TID 0000.0001) %MON dynstat_vvel_sd              =   1.9267539476446E-02
(PID.TID 0000.0001) %MON dynstat_vvel_del2            =   3.0686591801908E-03
(PID.TID 0000.0001) %MON dynstat_wvel_max             =   2.8355780055611E-03
(PID.TID 0000.0001) %MON dynstat_wvel_min             =  -1.6231735192065E-03
(PID.TID 0000.0001) %MON dynstat_wvel_mean            =  -2.2728723484534E-21
(PID.TID 0000.0001) %MON dynstat_wvel_sd              =   7.5823121063945E-05
(PID.TID 0000.0001) %MON dynstat_wvel_del2            =   1.1601388891385E-05
(PID.TID 0000.0001) %MON dynstat_theta_max            =   2.8866602339678E+01
(PID.TID 0000.0001) %MON dynstat_theta_min            =  -1.8984530357569E+00
(PID.TID 0000.0001) %MON dynstat_theta_mean           =   3.4146738949231E+00
(PID.TID 0000.0001) %MON dynstat_theta_sd             =   4.0498541544792E+00
(PID.TID 0000.0001) %MON dynstat_theta_del2           =   1.2632787352580E-01
(PID.TID 0000.0001) %MON dynstat_salt_max             =   3.7430071672106E+01
(PID.TID 0000.0001) %MON dynstat_salt_min             =   3.1028393381352E+01
(PID.TID 0000.0001) %MON dynstat_salt_mean            =   3.4713385754058E+01
(PID.TID 0000.0001) %MON dynstat_salt_sd              =   2.7614165895183E-01
(PID.TID 0000.0001) %MON dynstat_salt_del2            =   2.1369320962343E-02
(PID.TID 0000.0001) %MON extforcing_qnet_max          =   1.4655083319897E+02
(PID.TID 0000.0001) %MON extforcing_qnet_min          =  -3.9041818804885E+01
(PID.TID 0000.0001) %MON extforcing_qnet_mean         =  -1.2717467587329E+00
(PID.TID 0000.0001) %MON extforcing_qnet_sd           =   2.5327040385288E+01
(PID.TID 0000.0001) %MON extforcing_qnet_del2         =   7.8977819281530E-01
(PID.TID 0000.0001) %MON extforcing_qsw_max           =   0.0000000000000E+00
(PID.TID 0000.0001) %MON extforcing_qsw_min           =   0.0000000000000E+00
(PID.TID 0000.0001) %MON extforcing_qsw_mean          =   0.0000000000000E+00
(PID.TID 0000.0001) %MON extforcing_qsw_sd            =   0.0000000000000E+00
(PID.TID 0000.0001) %MON extforcing_qsw_del2          =   0.0000000000000E+00
(PID.TID 0000.0001) %MON extforcing_empmr_max         =   3.7600376873116E-08
(PID.TID 0000.0001) %MON extforcing_empmr_min         =  -1.7559555290034E-08
(PID.TID 0000.0001) %MON extforcing_empmr_mean        =   1.5643227351799E-09
(PID.TID 0000.0001) %MON extforcing_empmr_sd          =   1.1909003157175E-08
(PID.TID 0000.0001) %MON extforcing_empmr_del2        =   7.5296825504468E-10
(PID.TID 0000.0001) %MON extforcing_fu_max            =   1.6004334390163E-01
(PID.TID 0000.0001) %MON extforcing_fu_min            =  -9.4522543251514E-02
(PID.TID 0000.0001) %MON extforcing_fu_mean           =   8.5992284308032E-03
(PID.TID 0000.0001) %MON extforcing_fu_sd             =   5.4886212407859E-02
(PID.TID 0000.0001) %MON extforcing_fu_del2           =   4.0584634930923E-03
(PID.TID 0000.0001) %MON extforcing_fv_max            =   8.4633164107800E-02
(PID.TID 0000.0001) %MON extforcing_fv_min            =  -6.4357943832874E-02
(PID.TID 0000.0001) %MON extforcing_fv_mean           =   4.7509436927857E-03
(PID.TID 0000.0001) %MON extforcing_fv_sd             =   2.1727465082870E-02
(PID.TID 0000.0001) %MON extforcing_fv_del2           =   2.4257951826325E-03
(PID.TID 0000.0001) %MON advcfl_uvel_max              =   6.1740794770327E-02
(PID.TID 0000.0001) %MON advcfl_vvel_max              =   8.1687198173799E-02
(PID.TID 0000.0001) %MON advcfl_wvel_max              =   3.1845984573116E-01
(PID.TID 0000.0001) %MON advcfl_W_hf_max              =   3.7263981546424E-01
(PID.TID 0000.0001) %MON pe_b_mean                    =   1.7251713369761E-04
(PID.TID 0000.0001) %MON ke_max                       =   2.1991439995123E-01
(PID.TID 0000.0001) %MON ke_mean                      =   4.1698922686094E-04
(PID.TID 0000.0001) %MON ke_vol                       =   1.4101703507225E+18
(PID.TID 0000.0001) %MON vort_r_min                   =  -1.7638232502190E-06
(PID.TID 0000.0001) %MON vort_r_max                   =   2.1185903068636E-06
(PID.TID 0000.0001) %MON vort_a_mean                  =  -1.9922043059714E-05
(PID.TID 0000.0001) %MON vort_a_sd                    =   7.3515425495349E-05
(PID.TID 0000.0001) %MON vort_p_mean                  =  -2.3665444248068E-05
(PID.TID 0000.0001) %MON vort_p_sd                    =   1.0341114187404E-04
(PID.TID 0000.0001) %MON surfExpan_theta_mean         =   4.2912407358526E-05
(PID.TID 0000.0001) %MON surfExpan_salt_mean          =  -8.0488752330471E-07
(PID.TID 0000.0001) // =======================================================
(PID.TID 0000.0001) // End MONITOR dynamic field statistics
(PID.TID 0000.0001) // =======================================================
 SH  5.34668071  23.0527691
 NH  10.5222251  25.4476127
 SH  5.34668071  23.0527691
 NH  10.5222251  25.4476127
 cg2d: Sum(rhs),rhsMax =   5.03820201116660E-02  1.56285905917270E+01
(PID.TID 0000.0001)                    cg2d_init_res =    8.04832528158251E-01
(PID.TID 0000.0001)                       cg2d_iters =    22
(PID.TID 0000.0001)                         cg2d_res =    3.21463467586976E-14
(PID.TID 0000.0001) // =======================================================
(PID.TID 0000.0001) // Begin MONITOR dynamic field statistics
(PID.TID 0000.0001) // =======================================================
(PID.TID 0000.0001) %MON time_tsnumber                =                    20
(PID.TID 0000.0001) %MON time_secondsf                =   8.6400000000000E+05
(PID.TID 0000.0001) %MON dynstat_eta_max              =   1.0941132129810E+00
(PID.TID 0000.0001) %MON dynstat_eta_min              =  -1.1099664187663E+00
(PID.TID 0000.0001) %MON dynstat_eta_mean             =  -3.7543745644077E-05
(PID.TID 0000.0001) %MON dynstat_eta_sd               =   3.8403153178478E-01
(PID.TID 0000.0001) %MON dynstat_eta_del2             =   1.6392194873335E-02
(PID.TID 0000.0001) %MON dynstat_uvel_max             =   3.7324341226955E-01
(PID.TID 0000.0001) %MON dynstat_uvel_min             =  -6.3427503020363E-01
(PID.TID 0000.0001) %MON dynstat_uvel_mean            =  -8.7502719524624E-03
(PID.TID 0000.0001) %MON dynstat_uvel_sd              =   2.1464380962798E-02
(PID.TID 0000.0001) %MON dynstat_uvel_del2            =   3.2510086761754E-03
(PID.TID 0000.0001) %MON dynstat_vvel_max             =   6.3545010885699E-01
(PID.TID 0000.0001) %MON dynstat_vvel_min             =  -8.5039375885053E-01
(PID.TID 0000.0001) %MON dynstat_vvel_mean            =   2.8313834964970E-03
(PID.TID 0000.0001) %MON dynstat_vvel_sd              =   1.9395942319368E-02
(PID.TID 0000.0001) %MON dynstat_vvel_del2            =   3.0098043185063E-03
(PID.TID 0000.0001) %MON dynstat_wvel_max             =   2.8776247910007E-03
(PID.TID 0000.0001) %MON dynstat_wvel_min             =  -1.6238953331789E-03
(PID.TID 0000.0001) %MON dynstat_wvel_mean            =   5.4548936362882E-22
(PID.TID 0000.0001) %MON dynstat_wvel_sd              =   7.6171252489282E-05
(PID.TID 0000.0001) %MON dynstat_wvel_del2            =   1.1127996495321E-05
(PID.TID 0000.0001) %MON dynstat_theta_max            =   2.8830997826245E+01
(PID.TID 0000.0001) %MON dynstat_theta_min            =  -1.8985018623130E+00
(PID.TID 0000.0001) %MON dynstat_theta_mean           =   3.4143260127810E+00
(PID.TID 0000.0001) %MON dynstat_theta_sd             =   4.0475866422641E+00
(PID.TID 0000.0001) %MON dynstat_theta_del2           =   1.2609494342148E-01
(PID.TID 0000.0001) %MON dynstat_salt_max             =   3.7429249413057E+01
(PID.TID 0000.0001) %MON dynstat_salt_min             =   3.1037813850183E+01
(PID.TID 0000.0001) %MON dynstat_salt_mean            =   3.4713401448482E+01
(PID.TID 0000.0001) %MON dynstat_salt_sd              =   2.7608553483638E-01
(PID.TID 0000.0001) %MON dynstat_salt_del2            =   2.1362703855168E-02
(PID.TID 0000.0001) %MON extforcing_qnet_max          =   1.4724704130373E+02
(PID.TID 0000.0001) %MON extforcing_qnet_min          =  -3.9109029756857E+01
(PID.TID 0000.0001) %MON extforcing_qnet_mean         =  -1.3025393373305E+00
(PID.TID 0000.0001) %MON extforcing_qnet_sd           =   2.5426972080780E+01
(PID.TID 0000.0001) %MON extforcing_qnet_del2         =   7.9028821788575E-01
(PID.TID 0000.0001) %MON extforcing_qsw_max           =   0.0000000000000E+00
(PID.TID 0000.0001) %MON extforcing_qsw_min           =   0.0000000000000E+00
(PID.TID 0000.0001) %MON extforcing_qsw_mean          =   0.0000000000000E+00
(PID.TID 0000.0001) %MON extforcing_qsw_sd            =   0.0000000000000E+00
(PID.TID 0000.0001) %MON extforcing_qsw_del2          =   0.0000000000000E+00
(PID.TID 0000.0001) %MON extforcing_empmr_max         =   3.7600376873116E-08
(PID.TID 0000.0001) %MON extforcing_empmr_min         =  -1.7559555290034E-08
(PID.TID 0000.0001) %MON extforcing_empmr_mean        =   1.5643227351799E-09
(PID.TID 0000.0001) %MON extforcing_empmr_sd          =   1.1909003157175E-08
(PID.TID 0000.0001) %MON extforcing_empmr_del2        =   7.5296825504468E-10
(PID.TID 0000.0001) %MON extforcing_fu_max            =   1.6004334390163E-01
(PID.TID 0000.0001) %MON extforcing_fu_min            =  -9.4522543251514E-02
(PID.TID 0000.0001) %MON extforcing_fu_mean           =   8.5992284308032E-03
(PID.TID 0000.0001) %MON extforcing_fu_sd             =   5.4886212407859E-02
(PID.TID 0000.0001) %MON extforcing_fu_del2           =   4.0584634930923E-03
(PID.TID 0000.0001) %MON extforcing_fv_max            =   8.4633164107800E-02
(PID.TID 0000.0001) %MON extforcing_fv_min            =  -6.4357943832874E-02
(PID.TID 0000.0001) %MON extforcing_fv_mean           =   4.7509436927857E-03
(PID.TID 0000.0001) %MON extforcing_fv_sd             =   2.1727465082870E-02
(PID.TID 0000.0001) %MON extforcing_fv_del2           =   2.4257951826325E-03
(PID.TID 0000.0001) %MON advcfl_uvel_max              =   6.2565239481090E-02
(PID.TID 0000.0001) %MON advcfl_vvel_max              =   8.2608934334244E-02
(PID.TID 0000.0001) %MON advcfl_wvel_max              =   3.2310353263939E-01
(PID.TID 0000.0001) %MON advcfl_W_hf_max              =   3.7795205796971E-01
(PID.TID 0000.0001) %MON pe_b_mean                    =   1.7110431428611E-04
(PID.TID 0000.0001) %MON ke_max                       =   2.2871366035314E-01
(PID.TID 0000.0001) %MON ke_mean                      =   4.2284065434490E-04
(PID.TID 0000.0001) %MON ke_vol                       =   1.4101703507225E+18
(PID.TID 0000.0001) %MON vort_r_min                   =  -1.7718920909410E-06
(PID.TID 0000.0001) %MON vort_r_max                   =   2.1725927795167E-06
(PID.TID 0000.0001) %MON vort_a_mean                  =  -1.9922043059714E-05
(PID.TID 0000.0001) %MON vort_a_sd                    =   7.3515504073339E-05
(PID.TID 0000.0001) %MON vort_p_mean                  =  -2.3665444248068E-05
(PID.TID 0000.0001) %MON vort_p_sd                    =   1.0341134857720E-04
(PID.TID 0000.0001) %MON surfExpan_theta_mean         =   3.0122851637636E-05
(PID.TID 0000.0001) %MON surfExpan_salt_mean          =  -1.8773952190270E-06
(PID.TID 0000.0001) // =======================================================
(PID.TID 0000.0001) // End MONITOR dynamic field statistics
(PID.TID 0000.0001) // =======================================================
(PID.TID 0000.0001) // Time-average data written, t-step        20
(PID.TID 0000.0001) 
(PID.TID 0000.0001) %CHECKPOINT        20 ckptA
(PID.TID 0000.0001)   Seconds in section "ALL                    [THE_MODEL_MAIN]":
(PID.TID 0000.0001)           User time:  29.4475225
(PID.TID 0000.0001)         System time:  0.73888802
(PID.TID 0000.0001)     Wall clock time:  30.6163981
(PID.TID 0000.0001)          No. starts: 1
(PID.TID 0000.0001)           No. stops: 1
(PID.TID 0000.0001)   Seconds in section "INITIALISE_FIXED       [THE_MODEL_MAIN]":
(PID.TID 0000.0001)           User time:  0.223965995
(PID.TID 0000.0001)         System time:  0.0659900033
(PID.TID 0000.0001)     Wall clock time:  0.389102936
(PID.TID 0000.0001)          No. starts: 1
(PID.TID 0000.0001)           No. stops: 1
(PID.TID 0000.0001)   Seconds in section "THE_MAIN_LOOP          [THE_MODEL_MAIN]":
(PID.TID 0000.0001)           User time:  29.0145893
(PID.TID 0000.0001)         System time:  0.510921977
(PID.TID 0000.0001)     Wall clock time:  29.6820281
(PID.TID 0000.0001)          No. starts: 1
(PID.TID 0000.0001)           No. stops: 1
(PID.TID 0000.0001)   Seconds in section "INITIALISE_VARIA    [THE_MAIN_LOOP]":
(PID.TID 0000.0001)           User time:  0.547917023
(PID.TID 0000.0001)         System time:  0.130979992
(PID.TID 0000.0001)     Wall clock time:  0.746718884
(PID.TID 0000.0001)          No. starts: 1
(PID.TID 0000.0001)           No. stops: 1
(PID.TID 0000.0001)   Seconds in section "MAIN LOOP           [THE_MAIN_LOOP]":
(PID.TID 0000.0001)           User time:  28.4666722
(PID.TID 0000.0001)         System time:  0.379941985
(PID.TID 0000.0001)     Wall clock time:  28.9351821
(PID.TID 0000.0001)          No. starts: 1
(PID.TID 0000.0001)           No. stops: 1
(PID.TID 0000.0001)   Seconds in section "FORWARD_STEP        [THE_MAIN_LOOP]":
(PID.TID 0000.0001)           User time:  28.4666722
(PID.TID 0000.0001)         System time:  0.379941985
(PID.TID 0000.0001)     Wall clock time:  28.9343193
(PID.TID 0000.0001)          No. starts: 20
(PID.TID 0000.0001)           No. stops: 20
(PID.TID 0000.0001)   Seconds in section "LOAD_FIELDS_DRIVER  [FORWARD_STEP]":
(PID.TID 0000.0001)           User time:  0.000999450684
(PID.TID 0000.0001)         System time:  0.
(PID.TID 0000.0001)     Wall clock time:  0.00083732605
(PID.TID 0000.0001)          No. starts: 20
(PID.TID 0000.0001)           No. stops: 20
(PID.TID 0000.0001)   Seconds in section "EBM                [FORWARD_STEP]":
(PID.TID 0000.0001)           User time:  0.093991816
(PID.TID 0000.0001)         System time:  0.
(PID.TID 0000.0001)     Wall clock time:  0.0951313972
(PID.TID 0000.0001)          No. starts: 20
(PID.TID 0000.0001)           No. stops: 20
(PID.TID 0000.0001)   Seconds in section "DO_ATMOSPHERIC_PHYS [FORWARD_STEP]":
(PID.TID 0000.0001)           User time:  0.
(PID.TID 0000.0001)         System time:  0.
(PID.TID 0000.0001)     Wall clock time:  0.000782966614
(PID.TID 0000.0001)          No. starts: 20
(PID.TID 0000.0001)           No. stops: 20
(PID.TID 0000.0001)   Seconds in section "DO_OCEANIC_PHYS     [FORWARD_STEP]":
(PID.TID 0000.0001)           User time:  3.00653678
(PID.TID 0000.0001)         System time:  0.00300000608
(PID.TID 0000.0001)     Wall clock time:  3.01825809
(PID.TID 0000.0001)          No. starts: 20
(PID.TID 0000.0001)           No. stops: 20
(PID.TID 0000.0001)   Seconds in section "THERMODYNAMICS      [FORWARD_STEP]":
(PID.TID 0000.0001)           User time:  7.11092037
(PID.TID 0000.0001)         System time:  0.0109980106
(PID.TID 0000.0001)     Wall clock time:  7.12242866
(PID.TID 0000.0001)          No. starts: 20
(PID.TID 0000.0001)           No. stops: 20
(PID.TID 0000.0001)   Seconds in section "DYNAMICS            [FORWARD_STEP]":
(PID.TID 0000.0001)           User time:  10.2344413
(PID.TID 0000.0001)         System time:  0.00799997151
(PID.TID 0000.0001)     Wall clock time:  10.2437639
(PID.TID 0000.0001)          No. starts: 20
(PID.TID 0000.0001)           No. stops: 20
(PID.TID 0000.0001)   Seconds in section "SOLVE_FOR_PRESSURE  [FORWARD_STEP]":
(PID.TID 0000.0001)           User time:  1.23981428
(PID.TID 0000.0001)         System time:  0.00100000203
(PID.TID 0000.0001)     Wall clock time:  1.24182868
(PID.TID 0000.0001)          No. starts: 20
(PID.TID 0000.0001)           No. stops: 20
(PID.TID 0000.0001)   Seconds in section "MOM_CORRECTION_STEP [FORWARD_STEP]":
(PID.TID 0000.0001)           User time:  0.521921754
(PID.TID 0000.0001)         System time:  0.
(PID.TID 0000.0001)     Wall clock time:  0.528070688
(PID.TID 0000.0001)          No. starts: 20
(PID.TID 0000.0001)           No. stops: 20
(PID.TID 0000.0001)   Seconds in section "TRC_CORRECTION_STEP [FORWARD_STEP]":
(PID.TID 0000.0001)           User time:  0.154976845
(PID.TID 0000.0001)         System time:  0.000999003649
(PID.TID 0000.0001)     Wall clock time:  0.154003859
(PID.TID 0000.0001)          No. starts: 20
(PID.TID 0000.0001)           No. stops: 20
(PID.TID 0000.0001)   Seconds in section "BLOCKING_EXCHANGES  [FORWARD_STEP]":
(PID.TID 0000.0001)           User time:  0.139974475
(PID.TID 0000.0001)         System time:  0.
(PID.TID 0000.0001)     Wall clock time:  0.137362719
(PID.TID 0000.0001)          No. starts: 20
(PID.TID 0000.0001)           No. stops: 20
(PID.TID 0000.0001)   Seconds in section "DO_STATEVARS_TAVE   [FORWARD_STEP]":
(PID.TID 0000.0001)           User time:  2.10567904
(PID.TID 0000.0001)         System time:  0.00100000203
(PID.TID 0000.0001)     Wall clock time:  2.10869241
(PID.TID 0000.0001)          No. starts: 20
(PID.TID 0000.0001)           No. stops: 20
(PID.TID 0000.0001)   Seconds in section "MONITOR             [FORWARD_STEP]":
(PID.TID 0000.0001)           User time:  3.25351048
(PID.TID 0000.0001)         System time:  0.00699900091
(PID.TID 0000.0001)     Wall clock time:  3.26293564
(PID.TID 0000.0001)          No. starts: 20
(PID.TID 0000.0001)           No. stops: 20
(PID.TID 0000.0001)   Seconds in section "DO_THE_MODEL_IO     [FORWARD_STEP]":
(PID.TID 0000.0001)           User time:  0.592909813
(PID.TID 0000.0001)         System time:  0.345946983
(PID.TID 0000.0001)     Wall clock time:  1.00692344
(PID.TID 0000.0001)          No. starts: 20
(PID.TID 0000.0001)           No. stops: 20
(PID.TID 0000.0001)   Seconds in section "DO_WRITE_PICKUP     [FORWARD_STEP]":
(PID.TID 0000.0001)           User time:  0.
(PID.TID 0000.0001)         System time:  0.
(PID.TID 0000.0001)     Wall clock time:  0.000841140747
(PID.TID 0000.0001)          No. starts: 20
(PID.TID 0000.0001)           No. stops: 20
(PID.TID 0000.0001)   Seconds in section "DO_WRITE_PICKUP        [THE_MODEL_MAIN]":
(PID.TID 0000.0001)           User time:  0.208967209
(PID.TID 0000.0001)         System time:  0.161976039
(PID.TID 0000.0001)     Wall clock time:  0.545094013
(PID.TID 0000.0001)          No. starts: 1
(PID.TID 0000.0001)           No. stops: 1
(PID.TID 0000.0001) // ======================================================
(PID.TID 0000.0001) // Tile <-> Tile communication statistics
(PID.TID 0000.0001) // ======================================================
(PID.TID 0000.0001) // o Tile number: 000001
(PID.TID 0000.0001) //         No. X exchanges =              0
(PID.TID 0000.0001) //            Max. X spins =              0
(PID.TID 0000.0001) //            Min. X spins =     1000000000
(PID.TID 0000.0001) //          Total. X spins =              0
(PID.TID 0000.0001) //            Avg. X spins =       0.00E+00
(PID.TID 0000.0001) //         No. Y exchanges =              0
(PID.TID 0000.0001) //            Max. Y spins =              0
(PID.TID 0000.0001) //            Min. Y spins =     1000000000
(PID.TID 0000.0001) //          Total. Y spins =              0
(PID.TID 0000.0001) //            Avg. Y spins =       0.00E+00
(PID.TID 0000.0001) // o Tile number: 000002
(PID.TID 0000.0001) //         No. X exchanges =              0
(PID.TID 0000.0001) //            Max. X spins =              0
(PID.TID 0000.0001) //            Min. X spins =     1000000000
(PID.TID 0000.0001) //          Total. X spins =              0
(PID.TID 0000.0001) //            Avg. X spins =       0.00E+00
(PID.TID 0000.0001) //         No. Y exchanges =              0
(PID.TID 0000.0001) //            Max. Y spins =              0
(PID.TID 0000.0001) //            Min. Y spins =     1000000000
(PID.TID 0000.0001) //          Total. Y spins =              0
(PID.TID 0000.0001) //            Avg. Y spins =       0.00E+00
(PID.TID 0000.0001) // o Thread number: 000001
(PID.TID 0000.0001) //            No. barriers =          23568
(PID.TID 0000.0001) //      Max. barrier spins =              1
(PID.TID 0000.0001) //      Min. barrier spins =              1
(PID.TID 0000.0001) //     Total barrier spins =          23568
(PID.TID 0000.0001) //      Avg. barrier spins =       1.00E+00
