(PID.TID 0000.0001) 
(PID.TID 0000.0001) // ======================================================
(PID.TID 0000.0001) //                      MITgcm UV
(PID.TID 0000.0001) //                      =========
(PID.TID 0000.0001) // ======================================================
(PID.TID 0000.0001) // execution environment starting up...
(PID.TID 0000.0001) // Run starting Wed Apr  1 14:19:48 1998
(PID.TID 0000.0001) // on melville.lcs.mit.edu
(PID.TID 0000.0001) // account cnh
(PID.TID 0000.0001) // MITgcm UV Release: $Name:  $
(PID.TID 0000.0001) 
(PID.TID 0000.0001) // =======================================================
(PID.TID 0000.0001) // Execution Environment parameter file "eedata"
(PID.TID 0000.0001) // =======================================================
(PID.TID 0000.0001) ># Example "eedata" file
(PID.TID 0000.0001) ># Lines beginning "#" are comments
(PID.TID 0000.0001) ># nTx - No. threads per process in X
(PID.TID 0000.0001) ># nTy - No. threads per process in Y
(PID.TID 0000.0001) > &EEPARMS
(PID.TID 0000.0001) > nTx=1,nTy=1
(PID.TID 0000.0001) > &
(PID.TID 0000.0001) ># Note: Some systems use & as the
(PID.TID 0000.0001) ># namelist terminator. Other systems
(PID.TID 0000.0001) ># use a / character (as shown here).
(PID.TID 0000.0001) 
(PID.TID 0000.0001) // =======================================================
(PID.TID 0000.0001) // Computational Grid Specification ( see files "SIZE.h" )
(PID.TID 0000.0001) //                                  ( and "eedata"       )
(PID.TID 0000.0001) // =======================================================
(PID.TID 0000.0001)      nPx =    1 ; /* No. processes in X */
(PID.TID 0000.0001)      nPy =    1 ; /* No. processes in Y */
(PID.TID 0000.0001)      nSx =    1 ; /* No. tiles in X per process */
(PID.TID 0000.0001)      nSy =    1 ; /* No. tiles in Y per process */
(PID.TID 0000.0001)      sNx =   20 ; /* Tile size in X */
(PID.TID 0000.0001)      sNy =    1 ; /* Tile size in Y */
(PID.TID 0000.0001)      OLx =    3 ; /* Tile overlap distance in X */
(PID.TID 0000.0001)      OLy =    3 ; /* Tile overlap distance in Y */
(PID.TID 0000.0001)      nTx =    1 ; /* No. threads in X per process */
(PID.TID 0000.0001)      nTy =    1 ; /* No. threads in Y per process */
(PID.TID 0000.0001)       Nr =   20 ; /* No. levels in the vertical   */
(PID.TID 0000.0001)       nX =   20 ; /* Total domain size in X ( = nPx*nSx*sNx ) */
(PID.TID 0000.0001)       nY =    1 ; /* Total domain size in Y ( = nPy*nSy*sNy ) */
(PID.TID 0000.0001)   nTiles =    1 ; /* Total no. tiles per process ( = nSx*nSy ) */
(PID.TID 0000.0001)   nProcs =    1 ; /* Total no. processes ( = nPx*nPy ) */
(PID.TID 0000.0001) nThreads =    1 ; /* Total no. threads per process ( = nTx*nTy ) */
(PID.TID 0000.0001) usingMPI =    F ; /* Flag used to control whether MPI is in use */
(PID.TID 0000.0001)                   /*  note: To execute a program with MPI calls */
(PID.TID 0000.0001)                   /*  it must be launched appropriately e.g     */
(PID.TID 0000.0001)                   /*  "mpirun -np 64 ......"                    */
(PID.TID 0000.0001) 
(PID.TID 0000.0001) // ======================================================
(PID.TID 0000.0001) // Mapping of tiles to threads
(PID.TID 0000.0001) // ======================================================
(PID.TID 0000.0001) // -o- Thread   1, tiles (   1:   1,   1:   1)
(PID.TID 0000.0001) 
(PID.TID 0000.0001) // ======================================================
(PID.TID 0000.0001) // Tile <-> Tile connectvity table
(PID.TID 0000.0001) // ======================================================
(PID.TID 0000.0001) // Tile number: 000001 (process no. = 000001)
(PID.TID 0000.0001) //        WEST: Tile = 000001, Process = 000001, Comm = put
(PID.TID 0000.0001) //                bi = 000001, bj = 000001
(PID.TID 0000.0001) //        EAST: Tile = 000001, Process = 000001, Comm = put
(PID.TID 0000.0001) //                bi = 000001, bj = 000001
(PID.TID 0000.0001) //       SOUTH: Tile = 000001, Process = 000001, Comm = put
(PID.TID 0000.0001) //                bi = 000001, bj = 000001
(PID.TID 0000.0001) //       NORTH: Tile = 000001, Process = 000001, Comm = put
(PID.TID 0000.0001) //                bi = 000001, bj = 000001
(PID.TID 0000.0001) 
(PID.TID 0000.0001) // =======================================================
(PID.TID 0000.0001) // Model parameter file "data"
(PID.TID 0000.0001) // =======================================================
(PID.TID 0000.0001) ># ====================
(PID.TID 0000.0001) ># | Model parameters |
(PID.TID 0000.0001) ># ====================
(PID.TID 0000.0001) >#
(PID.TID 0000.0001) ># Continuous equation parameters
(PID.TID 0000.0001) > &PARM01
(PID.TID 0000.0001) > rigidLid=.FALSE.,
(PID.TID 0000.0001) > implicitFreeSurface=.TRUE.,
(PID.TID 0000.0001) > f0=0.,
(PID.TID 0000.0001) > beta=0.,
(PID.TID 0000.0001) > tAlpha=0.,
(PID.TID 0000.0001) > momStepping=.FALSE.,
(PID.TID 0000.0001) > hFacMin=0.1,
(PID.TID 0000.0001) > tempAdvScheme=77,
(PID.TID 0000.0001) > &
(PID.TID 0000.0001) >
(PID.TID 0000.0001) ># Elliptic solver parameters
(PID.TID 0000.0001) > &PARM02
(PID.TID 0000.0001) > cg2dMaxIters=100,
(PID.TID 0000.0001) > cg2dTargetResidual=1.E-13,
(PID.TID 0000.0001) > &
(PID.TID 0000.0001) >
(PID.TID 0000.0001) ># Time stepping parameters
(PID.TID 0000.0001) > &PARM03
(PID.TID 0000.0001) > startTime=0,
(PID.TID 0000.0001) > endTime=240000,
(PID.TID 0000.0001) > deltaT=1200.0,
(PID.TID 0000.0001) > abEps=0.1,
(PID.TID 0000.0001) > pChkptFreq=0.0,
(PID.TID 0000.0001) > chkptFreq=0.0,
(PID.TID 0000.0001) > dumpFreq=24000.0,
(PID.TID 0000.0001) > monitorFreq=12000.,
(PID.TID 0000.0001) > &
(PID.TID 0000.0001) >
(PID.TID 0000.0001) ># Gridding parameters
(PID.TID 0000.0001) > &PARM04
(PID.TID 0000.0001) > usingSphericalPolarGrid=.FALSE.,
(PID.TID 0000.0001) > usingCartesianGrid=.TRUE.,
(PID.TID 0000.0001) > delZ=20*10.E3,
(PID.TID 0000.0001) > dXspacing=10.E3,
(PID.TID 0000.0001) > dYspacing=10.E3,
(PID.TID 0000.0001) > &
(PID.TID 0000.0001) >
(PID.TID 0000.0001) ># Input datasets
(PID.TID 0000.0001) > &PARM05
(PID.TID 0000.0001) > &
(PID.TID 0000.0001) 
(PID.TID 0000.0001) S/R INI_PARMS ; read PARM01 : OK
(PID.TID 0000.0001) S/R INI_PARMS ; read PARM02 : OK
(PID.TID 0000.0001) S/R INI_PARMS ; read PARM03 : OK
(PID.TID 0000.0001) S/R INI_PARMS ; read PARM04 : OK
(PID.TID 0000.0001) S/R INI_PARMS ; read PARM05 : OK
(PID.TID 0000.0001) %MON XC_max                       =   1.9500000000000E+05
(PID.TID 0000.0001) %MON XC_min                       =   5.0000000000000E+03
(PID.TID 0000.0001) %MON XC_mean                      =   1.0000000000000E+05
(PID.TID 0000.0001) %MON XC_sd                        =   5.7662812973354E+04
(PID.TID 0000.0001) %MON XG_max                       =   1.9000000000000E+05
(PID.TID 0000.0001) %MON XG_min                       =   1.0000000000000E+04
(PID.TID 0000.0001) %MON XG_mean                      =   1.0000000000000E+05
(PID.TID 0000.0001) %MON XG_sd                        =   5.4772255750517E+04
(PID.TID 0000.0001) %MON DXC_max                      =   1.0000000000000E+04
(PID.TID 0000.0001) %MON DXC_min                      =   1.0000000000000E+04
(PID.TID 0000.0001) %MON DXC_mean                     =   1.0000000000000E+04
(PID.TID 0000.0001) %MON DXC_sd                       =   0.0000000000000E+00
(PID.TID 0000.0001) %MON DXF_max                      =   1.0000000000000E+04
(PID.TID 0000.0001) %MON DXF_min                      =   1.0000000000000E+04
(PID.TID 0000.0001) %MON DXF_mean                     =   1.0000000000000E+04
(PID.TID 0000.0001) %MON DXF_sd                       =   0.0000000000000E+00
(PID.TID 0000.0001) %MON DXG_max                      =   1.0000000000000E+04
(PID.TID 0000.0001) %MON DXG_min                      =   1.0000000000000E+04
(PID.TID 0000.0001) %MON DXG_mean                     =   1.0000000000000E+04
(PID.TID 0000.0001) %MON DXG_sd                       =   0.0000000000000E+00
(PID.TID 0000.0001) %MON DXV_max                      =   1.0000000000000E+04
(PID.TID 0000.0001) %MON DXV_min                      =   1.0000000000000E+04
(PID.TID 0000.0001) %MON DXV_mean                     =   1.0000000000000E+04
(PID.TID 0000.0001) %MON DXV_sd                       =   0.0000000000000E+00
(PID.TID 0000.0001) %MON YC_max                       =   5.0000000000000E+03
(PID.TID 0000.0001) %MON YC_min                       =   5.0000000000000E+03
(PID.TID 0000.0001) %MON YC_mean                      =   5.0000000000000E+03
(PID.TID 0000.0001) %MON YC_sd                        =   0.0000000000000E+00
(PID.TID 0000.0001) %MON YG_max                       =   0.0000000000000E+00
(PID.TID 0000.0001) %MON YG_min                       =   0.0000000000000E+00
(PID.TID 0000.0001) %MON YG_mean                      =   0.0000000000000E+00
(PID.TID 0000.0001) %MON YG_sd                        =   0.0000000000000E+00
(PID.TID 0000.0001) %MON DYC_max                      =   1.0000000000000E+04
(PID.TID 0000.0001) %MON DYC_min                      =   1.0000000000000E+04
(PID.TID 0000.0001) %MON DYC_mean                     =   1.0000000000000E+04
(PID.TID 0000.0001) %MON DYC_sd                       =   0.0000000000000E+00
(PID.TID 0000.0001) %MON DYF_max                      =   1.0000000000000E+04
(PID.TID 0000.0001) %MON DYF_min                      =   1.0000000000000E+04
(PID.TID 0000.0001) %MON DYF_mean                     =   1.0000000000000E+04
(PID.TID 0000.0001) %MON DYF_sd                       =   0.0000000000000E+00
(PID.TID 0000.0001) %MON DYG_max                      =   1.0000000000000E+04
(PID.TID 0000.0001) %MON DYG_min                      =   1.0000000000000E+04
(PID.TID 0000.0001) %MON DYG_mean                     =   1.0000000000000E+04
(PID.TID 0000.0001) %MON DYG_sd                       =   0.0000000000000E+00
(PID.TID 0000.0001) %MON DYU_max                      =   1.0000000000000E+04
(PID.TID 0000.0001) %MON DYU_min                      =   1.0000000000000E+04
(PID.TID 0000.0001) %MON DYU_mean                     =   1.0000000000000E+04
(PID.TID 0000.0001) %MON DYU_sd                       =   0.0000000000000E+00
(PID.TID 0000.0001) %MON RA_max                       =   1.0000000000000E+08
(PID.TID 0000.0001) %MON RA_min                       =   1.0000000000000E+08
(PID.TID 0000.0001) %MON RA_mean                      =   1.0000000000000E+08
(PID.TID 0000.0001) %MON RA_sd                        =   0.0000000000000E+00
(PID.TID 0000.0001) %MON RAW_max                      =   1.0000000000000E+08
(PID.TID 0000.0001) %MON RAW_min                      =   1.0000000000000E+08
(PID.TID 0000.0001) %MON RAW_mean                     =   1.0000000000000E+08
(PID.TID 0000.0001) %MON RAW_sd                       =   0.0000000000000E+00
(PID.TID 0000.0001) %MON RAS_max                      =   1.0000000000000E+08
(PID.TID 0000.0001) %MON RAS_min                      =   1.0000000000000E+08
(PID.TID 0000.0001) %MON RAS_mean                     =   1.0000000000000E+08
(PID.TID 0000.0001) %MON RAS_sd                       =   0.0000000000000E+00
(PID.TID 0000.0001) %MON RAZ_max                      =   1.0000000000000E+08
(PID.TID 0000.0001) %MON RAZ_min                      =   1.0000000000000E+08
(PID.TID 0000.0001) %MON RAZ_mean                     =   1.0000000000000E+08
(PID.TID 0000.0001) %MON RAZ_sd                       =   0.0000000000000E+00
(PID.TID 0000.0001) // =======================================================
(PID.TID 0000.0001) // Field Model R_low (ini_masks_etc) at iteration          1
(PID.TID 0000.0001) // CMIN =         -1.975000000000000E+05
(PID.TID 0000.0001) // CMAX =         -1.025000000000000E+05
(PID.TID 0000.0001) // CINT =          3.518518518518519E+03
(PID.TID 0000.0001) // SYMBOLS (CMIN->CMAX): -abcdefghijklmnopqrstuvwxyz+
(PID.TID 0000.0001) //                  0.0: .
(PID.TID 0000.0001) // RANGE I (Lo:Hi:Step):(  -2:  23:   1)
(PID.TID 0000.0001) // RANGE J (Lo:Hi:Step):(   4:  -2:  -1)
(PID.TID 0000.0001) // RANGE K (Lo:Hi:Step):(   1:   1:   1)
(PID.TID 0000.0001) // =======================================================
(PID.TID 0000.0001) K =   1
(PID.TID 0000.0001) //                I=7       I=17
(PID.TID 0000.0001) // |--J--|**0123456|890123456|890123
(PID.TID 0000.0001) //      4 xz+-acdfgijkmnpqrtuwxz+-ac
(PID.TID 0000.0001) //      3 xz+-acdfgijkmnpqrtuwxz+-ac
(PID.TID 0000.0001) //      2 xz+-acdfgijkmnpqrtuwxz+-ac
(PID.TID 0000.0001) //      1 xz+-acdfgijkmnpqrtuwxz+-ac
(PID.TID 0000.0001) //      0 xz+-acdfgijkmnpqrtuwxz+-ac
(PID.TID 0000.0001) //     -1 xz+-acdfgijkmnpqrtuwxz+-ac
(PID.TID 0000.0001) //     -2 xz+-acdfgijkmnpqrtuwxz+-ac
(PID.TID 0000.0001) // =======================================================
(PID.TID 0000.0001) // END OF FIELD                                          =
(PID.TID 0000.0001) // =======================================================
(PID.TID 0000.0001) 
(PID.TID 0000.0001) // =======================================================
(PID.TID 0000.0001) // Field Model Ro_surf (ini_masks_etc) at iteration          1
(PID.TID 0000.0001) // CMIN =          1.000000000000000E+32
(PID.TID 0000.0001) // CMAX =         -1.000000000000000E+32
(PID.TID 0000.0001) // CINT =          0.000000000000000E+00
(PID.TID 0000.0001) // SYMBOLS (CMIN->CMAX): -abcdefghijklmnopqrstuvwxyz+
(PID.TID 0000.0001) //                  0.0: .
(PID.TID 0000.0001) // RANGE I (Lo:Hi:Step):(  -2:  23:   1)
(PID.TID 0000.0001) // RANGE J (Lo:Hi:Step):(   4:  -2:  -1)
(PID.TID 0000.0001) // RANGE K (Lo:Hi:Step):(   1:   1:   1)
(PID.TID 0000.0001) // =======================================================
(PID.TID 0000.0001) K =   1
(PID.TID 0000.0001) //                I=7       I=17
(PID.TID 0000.0001) // |--J--|**0123456|890123456|890123
(PID.TID 0000.0001) //      4 ..........................
(PID.TID 0000.0001) //      3 ..........................
(PID.TID 0000.0001) //      2 ..........................
(PID.TID 0000.0001) //      1 ..........................
(PID.TID 0000.0001) //      0 ..........................
(PID.TID 0000.0001) //     -1 ..........................
(PID.TID 0000.0001) //     -2 ..........................
(PID.TID 0000.0001) // =======================================================
(PID.TID 0000.0001) // END OF FIELD                                          =
(PID.TID 0000.0001) // =======================================================
(PID.TID 0000.0001) 
(PID.TID 0000.0001) // =======================================================
(PID.TID 0000.0001) // Field hFacC at iteration          1
(PID.TID 0000.0001) // CMIN =          1.000000000000000E+00
(PID.TID 0000.0001) // CMAX =          1.000000000000000E+00
(PID.TID 0000.0001) // CINT =          0.000000000000000E+00
(PID.TID 0000.0001) // SYMBOLS (CMIN->CMAX): -abcdefghijklmnopqrstuvwxyz+
(PID.TID 0000.0001) //                  0.0: .
(PID.TID 0000.0001) // RANGE I (Lo:Hi:Step):(  -2:  23:   1)
(PID.TID 0000.0001) // RANGE J (Lo:Hi:Step):(   4:  -2:  -1)
(PID.TID 0000.0001) // RANGE K (Lo:Hi:Step):(   1:   1:   1)
(PID.TID 0000.0001) // =======================================================
(PID.TID 0000.0001) K =   1
(PID.TID 0000.0001) //                I=7       I=17
(PID.TID 0000.0001) // |--J--|**0123456|890123456|890123
(PID.TID 0000.0001) //      4 --------------------------
(PID.TID 0000.0001) //      3 --------------------------
(PID.TID 0000.0001) //      2 --------------------------
(PID.TID 0000.0001) //      1 --------------------------
(PID.TID 0000.0001) //      0 --------------------------
(PID.TID 0000.0001) //     -1 --------------------------
(PID.TID 0000.0001) //     -2 --------------------------
(PID.TID 0000.0001) // =======================================================
(PID.TID 0000.0001) // END OF FIELD                                          =
(PID.TID 0000.0001) // =======================================================
(PID.TID 0000.0001) 
(PID.TID 0000.0001) // =======================================================
(PID.TID 0000.0001) // Field hFacW at iteration          1
(PID.TID 0000.0001) // CMIN =          1.000000000000000E+00
(PID.TID 0000.0001) // CMAX =          1.000000000000000E+00
(PID.TID 0000.0001) // CINT =          0.000000000000000E+00
(PID.TID 0000.0001) // SYMBOLS (CMIN->CMAX): -abcdefghijklmnopqrstuvwxyz+
(PID.TID 0000.0001) //                  0.0: .
(PID.TID 0000.0001) // RANGE I (Lo:Hi:Step):(  -2:  23:   1)
(PID.TID 0000.0001) // RANGE J (Lo:Hi:Step):(   4:  -2:  -1)
(PID.TID 0000.0001) // RANGE K (Lo:Hi:Step):(   1:   1:   1)
(PID.TID 0000.0001) // =======================================================
(PID.TID 0000.0001) K =   1
(PID.TID 0000.0001) //                I=7       I=17
(PID.TID 0000.0001) // |--J--|**0123456|890123456|890123
(PID.TID 0000.0001) //      4 --------------------------
(PID.TID 0000.0001) //      3 --------------------------
(PID.TID 0000.0001) //      2 --------------------------
(PID.TID 0000.0001) //      1 --------------------------
(PID.TID 0000.0001) //      0 --------------------------
(PID.TID 0000.0001) //     -1 --------------------------
(PID.TID 0000.0001) //     -2 --------------------------
(PID.TID 0000.0001) // =======================================================
(PID.TID 0000.0001) // END OF FIELD                                          =
(PID.TID 0000.0001) // =======================================================
(PID.TID 0000.0001) 
(PID.TID 0000.0001) // =======================================================
(PID.TID 0000.0001) // Field hFacS at iteration          1
(PID.TID 0000.0001) // CMIN =          1.000000000000000E+00
(PID.TID 0000.0001) // CMAX =          1.000000000000000E+00
(PID.TID 0000.0001) // CINT =          0.000000000000000E+00
(PID.TID 0000.0001) // SYMBOLS (CMIN->CMAX): -abcdefghijklmnopqrstuvwxyz+
(PID.TID 0000.0001) //                  0.0: .
(PID.TID 0000.0001) // RANGE I (Lo:Hi:Step):(  -2:  23:   1)
(PID.TID 0000.0001) // RANGE J (Lo:Hi:Step):(   4:  -2:  -1)
(PID.TID 0000.0001) // RANGE K (Lo:Hi:Step):(   1:   1:   1)
(PID.TID 0000.0001) // =======================================================
(PID.TID 0000.0001) K =   1
(PID.TID 0000.0001) //                I=7       I=17
(PID.TID 0000.0001) // |--J--|**0123456|890123456|890123
(PID.TID 0000.0001) //      4 --------------------------
(PID.TID 0000.0001) //      3 --------------------------
(PID.TID 0000.0001) //      2 --------------------------
(PID.TID 0000.0001) //      1 --------------------------
(PID.TID 0000.0001) //      0 --------------------------
(PID.TID 0000.0001) //     -1 --------------------------
(PID.TID 0000.0001) //     -2 --------------------------
(PID.TID 0000.0001) // =======================================================
(PID.TID 0000.0001) // END OF FIELD                                          =
(PID.TID 0000.0001) // =======================================================
(PID.TID 0000.0001) 
(PID.TID 0000.0001) %MON fCori_max                    =   0.0000000000000E+00
(PID.TID 0000.0001) %MON fCori_min                    =   0.0000000000000E+00
(PID.TID 0000.0001) %MON fCori_mean                   =   0.0000000000000E+00
(PID.TID 0000.0001) %MON fCori_sd                     =   0.0000000000000E+00
(PID.TID 0000.0001) %MON fCoriG_max                   =   0.0000000000000E+00
(PID.TID 0000.0001) %MON fCoriG_min                   =   0.0000000000000E+00
(PID.TID 0000.0001) %MON fCoriG_mean                  =   0.0000000000000E+00
(PID.TID 0000.0001) %MON fCoriG_sd                    =   0.0000000000000E+00
(PID.TID 0000.0001)  PACKAGES_BOOT: opening data.pkg
(PID.TID 0000.0001)  OPEN_COPY_DATA_FILE: opening file data.pkg
(PID.TID 0000.0001) // =======================================================
(PID.TID 0000.0001) // Parameter file "data.pkg"
(PID.TID 0000.0001) // =======================================================
(PID.TID 0000.0001) ># Packages
(PID.TID 0000.0001) > &PACKAGES
(PID.TID 0000.0001) > &
(PID.TID 0000.0001) 
(PID.TID 0000.0001)  PACKAGES_BOOT: finished reading data.pkg
(PID.TID 0000.0001) 
(PID.TID 0000.0001) // ===================================
(PID.TID 0000.0001) // GAD parameters :
(PID.TID 0000.0001) // ===================================
(PID.TID 0000.0001) tempAdvScheme =   /* Temp. advection scheme selector */
(PID.TID 0000.0001)                      77
(PID.TID 0000.0001)     ;
(PID.TID 0000.0001) tempMultiDimAdvec =   /* use Muti-Dim Advec method for Temp */
(PID.TID 0000.0001)                   T
(PID.TID 0000.0001)     ;
(PID.TID 0000.0001) tempAdamsBashforth =   /* use Adams-Bashforth time-stepping for Temp */
(PID.TID 0000.0001)                   F
(PID.TID 0000.0001)     ;
(PID.TID 0000.0001) saltAdvScheme =   /* Salt. advection scheme selector */
(PID.TID 0000.0001)                       2
(PID.TID 0000.0001)     ;
(PID.TID 0000.0001) saltMultiDimAdvec =   /* use Muti-Dim Advec method for Salt */
(PID.TID 0000.0001)                   F
(PID.TID 0000.0001)     ;
(PID.TID 0000.0001) saltAdamsBashforth =   /* use Adams-Bashforth time-stepping for Salt */
(PID.TID 0000.0001)                   T
(PID.TID 0000.0001)     ;
(PID.TID 0000.0001) // ===================================
(PID.TID 0000.0001) // CG2D normalisation factor =          0.5063291139240506132156248E-05
(PID.TID 0000.0001) 
(PID.TID 0000.0001) CONFIG_CHECK: OK
(PID.TID 0000.0001) // =======================================================
(PID.TID 0000.0001) // Model configuration
(PID.TID 0000.0001) // =======================================================
(PID.TID 0000.0001) //
(PID.TID 0000.0001) // "Physical" paramters ( PARM01 in namelist )
(PID.TID 0000.0001) //
(PID.TID 0000.0001) buoyancyRelation = OCEANIC
(PID.TID 0000.0001) tRef =   /* Reference temperature profile ( oC or oK ) */
(PID.TID 0000.0001)                 2.900000000000000E+01,      /* K =  1 */
(PID.TID 0000.0001)                 2.800000000000000E+01,      /* K =  2 */
(PID.TID 0000.0001)                 2.700000000000000E+01,      /* K =  3 */
(PID.TID 0000.0001)                 2.600000000000000E+01,      /* K =  4 */
(PID.TID 0000.0001)                 2.500000000000000E+01,      /* K =  5 */
(PID.TID 0000.0001)                 2.400000000000000E+01,      /* K =  6 */
(PID.TID 0000.0001)                 2.300000000000000E+01,      /* K =  7 */
(PID.TID 0000.0001)                 2.200000000000000E+01,      /* K =  8 */
(PID.TID 0000.0001)                 2.100000000000000E+01,      /* K =  9 */
(PID.TID 0000.0001)                 2.000000000000000E+01,      /* K = 10 */
(PID.TID 0000.0001)                 1.900000000000000E+01,      /* K = 11 */
(PID.TID 0000.0001)                 1.800000000000000E+01,      /* K = 12 */
(PID.TID 0000.0001)                 1.700000000000000E+01,      /* K = 13 */
(PID.TID 0000.0001)                 1.600000000000000E+01,      /* K = 14 */
(PID.TID 0000.0001)                 1.500000000000000E+01,      /* K = 15 */
(PID.TID 0000.0001)                 1.400000000000000E+01,      /* K = 16 */
(PID.TID 0000.0001)                 1.300000000000000E+01,      /* K = 17 */
(PID.TID 0000.0001)                 1.200000000000000E+01,      /* K = 18 */
(PID.TID 0000.0001)                 1.100000000000000E+01,      /* K = 19 */
(PID.TID 0000.0001)                 1.000000000000000E+01       /* K = 20 */
(PID.TID 0000.0001)     ;
(PID.TID 0000.0001) sRef =   /* Reference salinity profile ( ppt ) */
(PID.TID 0000.0001)    20 @  0.000000000000000E+00              /* K =  1: 20 */
(PID.TID 0000.0001)     ;
(PID.TID 0000.0001) viscAh =   /* Lateral eddy viscosity ( m^2/s ) */
(PID.TID 0000.0001)                 0.000000000000000E+00
(PID.TID 0000.0001)     ;
(PID.TID 0000.0001) viscAh =   /* Lateral biharmonic viscosity ( m^4/s ) */
(PID.TID 0000.0001)                 0.000000000000000E+00
(PID.TID 0000.0001)     ;
(PID.TID 0000.0001) no_slip_sides =  /* Viscous BCs: No-slip sides */
(PID.TID 0000.0001)                   T
(PID.TID 0000.0001)     ;
(PID.TID 0000.0001) viscAr =   /* Vertical eddy viscosity ( units of r^2/s ) */
(PID.TID 0000.0001)                 0.000000000000000E+00
(PID.TID 0000.0001)     ;
(PID.TID 0000.0001) diffKhT =   /* Laplacian diffusion of heat laterally ( m^2/s ) */
(PID.TID 0000.0001)                 0.000000000000000E+00
(PID.TID 0000.0001)     ;
(PID.TID 0000.0001) diffK4T =   /* Bihaarmonic diffusion of heat laterally ( m^4/s ) */
(PID.TID 0000.0001)                 0.000000000000000E+00
(PID.TID 0000.0001)     ;
(PID.TID 0000.0001) diffKzT =   /* Laplacian diffusion of heat vertically ( m^2/s ) */
(PID.TID 0000.0001)                 1.234567000000000E+05
(PID.TID 0000.0001)     ;
(PID.TID 0000.0001) diffKrT =   /* Laplacian diffusion of heat vertically ( m^2/s ) */
(PID.TID 0000.0001)                 0.000000000000000E+00
(PID.TID 0000.0001)     ;
(PID.TID 0000.0001) diffKhS =   /* Laplacian diffusion of salt laterally ( m^2/s ) */
(PID.TID 0000.0001)                 0.000000000000000E+00
(PID.TID 0000.0001)     ;
(PID.TID 0000.0001) diffK4S =   /* Bihaarmonic diffusion of salt laterally ( m^4/s ) */
(PID.TID 0000.0001)                 0.000000000000000E+00
(PID.TID 0000.0001)     ;
(PID.TID 0000.0001) diffKzS =   /* Laplacian diffusion of salt vertically ( m^2/s ) */
(PID.TID 0000.0001)                 1.234567000000000E+05
(PID.TID 0000.0001)     ;
(PID.TID 0000.0001) diffKrS =   /* Laplacian diffusion of salt vertically ( m^2/s ) */
(PID.TID 0000.0001)                 0.000000000000000E+00
(PID.TID 0000.0001)     ;
(PID.TID 0000.0001)  Equation of State : eosType = LINEAR
(PID.TID 0000.0001) tAlpha =   /* Linear EOS thermal expansion coefficient ( 1/degree ) */
(PID.TID 0000.0001)                 0.000000000000000E+00
(PID.TID 0000.0001)     ;
(PID.TID 0000.0001) sBeta =   /* Linear EOS haline contraction coefficient ( 1/ppt ) */
(PID.TID 0000.0001)                 7.400000000000000E-04
(PID.TID 0000.0001)     ;
(PID.TID 0000.0001) rhonil =   /* Reference density ( kg/m^3 ) */
(PID.TID 0000.0001)                 9.998000000000000E+02
(PID.TID 0000.0001)     ;
(PID.TID 0000.0001) rhoConst =   /* Reference density ( kg/m^3 ) */
(PID.TID 0000.0001)                 9.998000000000000E+02
(PID.TID 0000.0001)     ;
(PID.TID 0000.0001) rhoConstFresh =   /* Reference density ( kg/m^3 ) */
(PID.TID 0000.0001)                 9.998000000000000E+02
(PID.TID 0000.0001)     ;
(PID.TID 0000.0001) gravity =   /* Gravitational acceleration ( m/s^2 ) */
(PID.TID 0000.0001)                 9.810000000000000E+00
(PID.TID 0000.0001)     ;
(PID.TID 0000.0001) gBaro =   /* Barotropic gravity ( m/s^2 ) */
(PID.TID 0000.0001)                 9.810000000000000E+00
(PID.TID 0000.0001)     ;
(PID.TID 0000.0001) f0 =   /* Reference coriolis parameter ( 1/s ) */
(PID.TID 0000.0001)                 0.000000000000000E+00
(PID.TID 0000.0001)     ;
(PID.TID 0000.0001) beta =   /* Beta ( 1/(m.s) ) */
(PID.TID 0000.0001)                 0.000000000000000E+00
(PID.TID 0000.0001)     ;
(PID.TID 0000.0001) freeSurfFac =   /* Implicit free surface factor */
(PID.TID 0000.0001)                 1.000000000000000E+00
(PID.TID 0000.0001)     ;
(PID.TID 0000.0001) implicitFreeSurface =   /* Implicit free surface on/off flag */
(PID.TID 0000.0001)                   T
(PID.TID 0000.0001)     ;
(PID.TID 0000.0001) rigidLid =   /* Rigid lid on/off flag */
(PID.TID 0000.0001)                   F
(PID.TID 0000.0001)     ;
(PID.TID 0000.0001) implicSurfPress =   /* Surface Pressure implicit factor (0-1)*/
(PID.TID 0000.0001)                 1.000000000000000E+00
(PID.TID 0000.0001)     ;
(PID.TID 0000.0001) implicDiv2Dflow =   /* Barot. Flow Div. implicit factor (0-1)*/
(PID.TID 0000.0001)                 1.000000000000000E+00
(PID.TID 0000.0001)     ;
(PID.TID 0000.0001) exactConserv =   /* Exact Volume Conservation on/off flag*/
(PID.TID 0000.0001)                   F
(PID.TID 0000.0001)     ;
(PID.TID 0000.0001) uniformLin_PhiSurf =   /* use uniform Bo_surf on/off flag*/
(PID.TID 0000.0001)                   T
(PID.TID 0000.0001)     ;
(PID.TID 0000.0001) nonlinFreeSurf =   /* Non-linear Free Surf. options (-1,0,1,2,3)*/
(PID.TID 0000.0001)                       0
(PID.TID 0000.0001)     ;
(PID.TID 0000.0001)      -1,0= Off ; 1,2,3= On, 2=+rescale gU,gV, 3=+update cg2d solv.
(PID.TID 0000.0001) hFacInf =   /* lower threshold for hFac (nonlinFreeSurf only)*/
(PID.TID 0000.0001)                 1.000000000000000E+00
(PID.TID 0000.0001)     ;
(PID.TID 0000.0001) hFacSup =   /* upper threshold for hFac (nonlinFreeSurf only)*/
(PID.TID 0000.0001)                 1.000000000000000E+00
(PID.TID 0000.0001)     ;
(PID.TID 0000.0001) useRealFreshWaterFlux =   /* Real Fresh Water Flux on/off flag*/
(PID.TID 0000.0001)                   F
(PID.TID 0000.0001)     ;
(PID.TID 0000.0001) convertFW2Salt = /* convert F.W. Flux to Salt Flux (-1=use local S)(ppt)*/
(PID.TID 0000.0001)                 3.500000000000000E+01
(PID.TID 0000.0001)     ;
(PID.TID 0000.0001) multiDimAdvection =   /* enable/disable Multi-Dim Advection */
(PID.TID 0000.0001)                   T
(PID.TID 0000.0001)     ;
(PID.TID 0000.0001) staggerTimeStep =   /* Stagger time stepping on/off flag */
(PID.TID 0000.0001)                   F
(PID.TID 0000.0001)     ;
(PID.TID 0000.0001) momStepping =  /* Momentum equation on/off flag */
(PID.TID 0000.0001)                   F
(PID.TID 0000.0001)     ;
(PID.TID 0000.0001) momAdvection =  /* Momentum advection on/off flag */
(PID.TID 0000.0001)                   T
(PID.TID 0000.0001)     ;
(PID.TID 0000.0001) momViscosity =  /* Momentum viscosity on/off flag */
(PID.TID 0000.0001)                   T
(PID.TID 0000.0001)     ;
(PID.TID 0000.0001) useCoriolis =  /* Coriolis on/off flag */
(PID.TID 0000.0001)                   T
(PID.TID 0000.0001)     ;
(PID.TID 0000.0001) momForcing =  /* Momentum forcing on/off flag */
(PID.TID 0000.0001)                   T
(PID.TID 0000.0001)     ;
(PID.TID 0000.0001) momPressureForcing =  /* Momentum pressure term on/off flag */
(PID.TID 0000.0001)                   T
(PID.TID 0000.0001)     ;
(PID.TID 0000.0001) tempStepping =  /* Temperature equation on/off flag */
(PID.TID 0000.0001)                   T
(PID.TID 0000.0001)     ;
(PID.TID 0000.0001) tempAdvection=  /* Temperature advection on/off flag */
(PID.TID 0000.0001)                   T
(PID.TID 0000.0001)     ;
(PID.TID 0000.0001) tempForcing  =  /* Temperature forcing on/off flag */
(PID.TID 0000.0001)                   T
(PID.TID 0000.0001)     ;
(PID.TID 0000.0001) saltStepping =  /* Salinity equation on/off flag */
(PID.TID 0000.0001)                   T
(PID.TID 0000.0001)     ;
(PID.TID 0000.0001) saltAdvection=  /* Salinity advection on/off flag */
(PID.TID 0000.0001)                   T
(PID.TID 0000.0001)     ;
(PID.TID 0000.0001) saltForcing  =  /* Salinity forcing on/off flag */
(PID.TID 0000.0001)                   T
(PID.TID 0000.0001)     ;
(PID.TID 0000.0001) nonHydrostatic =  /* Non-Hydrostatic on/off flag */
(PID.TID 0000.0001)                   F
(PID.TID 0000.0001)     ;
(PID.TID 0000.0001) //
(PID.TID 0000.0001) // Elliptic solver(s) paramters ( PARM02 in namelist )
(PID.TID 0000.0001) //
(PID.TID 0000.0001) cg2dMaxIters =   /* Upper limit on 2d con. grad iterations  */
(PID.TID 0000.0001)                     100
(PID.TID 0000.0001)     ;
(PID.TID 0000.0001) cg2dChkResFreq =   /* 2d con. grad convergence test frequency */
(PID.TID 0000.0001)                       1
(PID.TID 0000.0001)     ;
(PID.TID 0000.0001) cg2dTargetResidual =   /* 2d con. grad target residual  */
(PID.TID 0000.0001)                 1.000000000000000E-13
(PID.TID 0000.0001)     ;
(PID.TID 0000.0001) //
(PID.TID 0000.0001) // Time stepping paramters ( PARM03 in namelist )
(PID.TID 0000.0001) //
(PID.TID 0000.0001) nIter0 =   /* Base timestep number  */
(PID.TID 0000.0001)                       0
(PID.TID 0000.0001)     ;
(PID.TID 0000.0001) nTimeSteps =   /* Number of timesteps */
(PID.TID 0000.0001)                     200
(PID.TID 0000.0001)     ;
(PID.TID 0000.0001) deltatTmom =   /* Momentum equation timestep ( s ) */
(PID.TID 0000.0001)                 1.200000000000000E+03
(PID.TID 0000.0001)     ;
(PID.TID 0000.0001) deltaTfreesurf =   /* FreeSurface equation timestep ( s ) */
(PID.TID 0000.0001)                 1.200000000000000E+03
(PID.TID 0000.0001)     ;
(PID.TID 0000.0001) deltatTtracer =   /* Tracer equation timestep ( s ) */
(PID.TID 0000.0001)                 1.200000000000000E+03
(PID.TID 0000.0001)     ;
(PID.TID 0000.0001) deltatTClock  =   /* Model clock timestep ( s ) */
(PID.TID 0000.0001)                 1.200000000000000E+03
(PID.TID 0000.0001)     ;
(PID.TID 0000.0001) cAdjFreq =   /* Convective adjustment interval ( s ) */
(PID.TID 0000.0001)                 0.000000000000000E+00
(PID.TID 0000.0001)     ;
(PID.TID 0000.0001) forcing_In_AB =   /* put T,S Forcing in Adams-Bash. stepping */
(PID.TID 0000.0001)                   T
(PID.TID 0000.0001)     ;
(PID.TID 0000.0001) abeps =   /* Adams-Bashforth stabilizing weight */
(PID.TID 0000.0001)                 1.000000000000000E-01
(PID.TID 0000.0001)     ;
(PID.TID 0000.0001) tauCD =   /* CD coupling time-scale ( s ) */
(PID.TID 0000.0001)                 1.200000000000000E+03
(PID.TID 0000.0001)     ;
(PID.TID 0000.0001) rCD =   /* Normalised CD coupling parameter */
(PID.TID 0000.0001)                 0.000000000000000E+00
(PID.TID 0000.0001)     ;
(PID.TID 0000.0001) startTime =   /* Run start time ( s ). */
(PID.TID 0000.0001)                 0.000000000000000E+00
(PID.TID 0000.0001)     ;
(PID.TID 0000.0001) endTime =   /* Integration ending time ( s ). */
(PID.TID 0000.0001)                 2.400000000000000E+05
(PID.TID 0000.0001)     ;
(PID.TID 0000.0001) pChkPtFreq =   /* Permanent restart/checkpoint file interval ( s ). */
(PID.TID 0000.0001)                 0.000000000000000E+00
(PID.TID 0000.0001)     ;
(PID.TID 0000.0001) chkPtFreq =   /* Rolling restart/checkpoint file interval ( s ). */
(PID.TID 0000.0001)                 0.000000000000000E+00
(PID.TID 0000.0001)     ;
(PID.TID 0000.0001) dumpFreq =   /* Model state write out interval ( s ). */
(PID.TID 0000.0001)                 2.400000000000000E+04
(PID.TID 0000.0001)     ;
(PID.TID 0000.0001) //
(PID.TID 0000.0001) // Gridding paramters ( PARM04 in namelist )
(PID.TID 0000.0001) //
(PID.TID 0000.0001) usingCartesianGrid =   /* Cartesian coordinates flag ( True / False ) */
(PID.TID 0000.0001)                   T
(PID.TID 0000.0001)     ;
(PID.TID 0000.0001) usingSphericalPolarGrid =   /* Spherical coordinates flag ( True / False ) */
(PID.TID 0000.0001)                   F
(PID.TID 0000.0001)     ;
(PID.TID 0000.0001) groundAtK1 =   /* Lower Boundary (ground) at the surface(k=1) ( T / F ) */
(PID.TID 0000.0001)                   F
(PID.TID 0000.0001)     ;
(PID.TID 0000.0001) Ro_SeaLevel =   /* r(1) ( units of r ) */
(PID.TID 0000.0001)                 0.000000000000000E+00
(PID.TID 0000.0001)     ;
(PID.TID 0000.0001) rkFac =   /* minus Vertical index orientation  */
(PID.TID 0000.0001)                 1.000000000000000E+00
(PID.TID 0000.0001)     ;
(PID.TID 0000.0001) horiVertRatio =   /* Ratio on units : Horiz - Vertical */
(PID.TID 0000.0001)                 1.000000000000000E+00
(PID.TID 0000.0001)     ;
(PID.TID 0000.0001) drC =   /* C spacing ( units of r ) */
(PID.TID 0000.0001)                 5.000000000000000E+03,      /* K =  1 */
(PID.TID 0000.0001)    19 @  1.000000000000000E+04              /* K =  2: 20 */
(PID.TID 0000.0001)     ;
(PID.TID 0000.0001) drF =   /* W spacing ( units of r ) */
(PID.TID 0000.0001)    20 @  1.000000000000000E+04              /* K =  1: 20 */
(PID.TID 0000.0001)     ;
(PID.TID 0000.0001) delX =   /* U spacing ( m - cartesian, degrees - spherical ) */
(PID.TID 0000.0001)    20 @  1.000000000000000E+04              /* I =  1: 20 */
(PID.TID 0000.0001)     ;
(PID.TID 0000.0001) delY =   /* V spacing ( m - cartesian, degrees - spherical ) */
(PID.TID 0000.0001)                 1.000000000000000E+04       /* J =  1 */
(PID.TID 0000.0001)     ;
(PID.TID 0000.0001) phiMin =    /* South edge (ignored - cartesian, degrees - spherical ) */
(PID.TID 0000.0001)                 0.000000000000000E+00
(PID.TID 0000.0001)     ;
(PID.TID 0000.0001) thetaMin =    /* West edge ( ignored - cartesian, degrees - spherical ) */
(PID.TID 0000.0001)                 0.000000000000000E+00
(PID.TID 0000.0001)     ;
(PID.TID 0000.0001) rSphere =    /* Radius ( ignored - cartesian, m - spherical ) */
(PID.TID 0000.0001)                 6.370000000000000E+06
(PID.TID 0000.0001)     ;
(PID.TID 0000.0001) xcoord =   /* P-point X coord ( m - cartesian, degrees - spherical ) */
(PID.TID 0000.0001)                 5.000000000000000E+03,      /* I =  1 */
(PID.TID 0000.0001)                 1.500000000000000E+04,      /* I =  2 */
(PID.TID 0000.0001)                 2.500000000000000E+04,      /* I =  3 */
(PID.TID 0000.0001)                 3.500000000000000E+04,      /* I =  4 */
(PID.TID 0000.0001)                 4.500000000000000E+04,      /* I =  5 */
(PID.TID 0000.0001)                 5.500000000000000E+04,      /* I =  6 */
(PID.TID 0000.0001)                 6.500000000000000E+04,      /* I =  7 */
(PID.TID 0000.0001)                 7.500000000000000E+04,      /* I =  8 */
(PID.TID 0000.0001)                 8.500000000000000E+04,      /* I =  9 */
(PID.TID 0000.0001)                 9.500000000000000E+04,      /* I = 10 */
(PID.TID 0000.0001)                 1.050000000000000E+05,      /* I = 11 */
(PID.TID 0000.0001)                 1.150000000000000E+05,      /* I = 12 */
(PID.TID 0000.0001)                 1.250000000000000E+05,      /* I = 13 */
(PID.TID 0000.0001)                 1.350000000000000E+05,      /* I = 14 */
(PID.TID 0000.0001)                 1.450000000000000E+05,      /* I = 15 */
(PID.TID 0000.0001)                 1.550000000000000E+05,      /* I = 16 */
(PID.TID 0000.0001)                 1.650000000000000E+05,      /* I = 17 */
(PID.TID 0000.0001)                 1.750000000000000E+05,      /* I = 18 */
(PID.TID 0000.0001)                 1.850000000000000E+05,      /* I = 19 */
(PID.TID 0000.0001)                 1.950000000000000E+05       /* I = 20 */
(PID.TID 0000.0001)     ;
(PID.TID 0000.0001) ycoord =   /* P-point Y coord ( m - cartesian, degrees - spherical ) */
(PID.TID 0000.0001)                 5.000000000000000E+03       /* J =  1 */
(PID.TID 0000.0001)     ;
(PID.TID 0000.0001) rcoord =   /* P-point R coordinate (  units of r ) */
(PID.TID 0000.0001)                -5.000000000000000E+03,      /* K =  1 */
(PID.TID 0000.0001)                -1.500000000000000E+04,      /* K =  2 */
(PID.TID 0000.0001)                -2.500000000000000E+04,      /* K =  3 */
(PID.TID 0000.0001)                -3.500000000000000E+04,      /* K =  4 */
(PID.TID 0000.0001)                -4.500000000000000E+04,      /* K =  5 */
(PID.TID 0000.0001)                -5.500000000000000E+04,      /* K =  6 */
(PID.TID 0000.0001)                -6.500000000000000E+04,      /* K =  7 */
(PID.TID 0000.0001)                -7.500000000000000E+04,      /* K =  8 */
(PID.TID 0000.0001)                -8.500000000000000E+04,      /* K =  9 */
(PID.TID 0000.0001)                -9.500000000000000E+04,      /* K = 10 */
(PID.TID 0000.0001)                -1.050000000000000E+05,      /* K = 11 */
(PID.TID 0000.0001)                -1.150000000000000E+05,      /* K = 12 */
(PID.TID 0000.0001)                -1.250000000000000E+05,      /* K = 13 */
(PID.TID 0000.0001)                -1.350000000000000E+05,      /* K = 14 */
(PID.TID 0000.0001)                -1.450000000000000E+05,      /* K = 15 */
(PID.TID 0000.0001)                -1.550000000000000E+05,      /* K = 16 */
(PID.TID 0000.0001)                -1.650000000000000E+05,      /* K = 17 */
(PID.TID 0000.0001)                -1.750000000000000E+05,      /* K = 18 */
(PID.TID 0000.0001)                -1.850000000000000E+05,      /* K = 19 */
(PID.TID 0000.0001)                -1.950000000000000E+05       /* K = 20 */
(PID.TID 0000.0001)     ;
(PID.TID 0000.0001) rF =   /* W-Interf. R coordinate (  units of r ) */
(PID.TID 0000.0001)                 0.000000000000000E+00,      /* K =  1 */
(PID.TID 0000.0001)                -1.000000000000000E+04,      /* K =  2 */
(PID.TID 0000.0001)                -2.000000000000000E+04,      /* K =  3 */
(PID.TID 0000.0001)                -3.000000000000000E+04,      /* K =  4 */
(PID.TID 0000.0001)                -4.000000000000000E+04,      /* K =  5 */
(PID.TID 0000.0001)                -5.000000000000000E+04,      /* K =  6 */
(PID.TID 0000.0001)                -6.000000000000000E+04,      /* K =  7 */
(PID.TID 0000.0001)                -7.000000000000000E+04,      /* K =  8 */
(PID.TID 0000.0001)                -8.000000000000000E+04,      /* K =  9 */
(PID.TID 0000.0001)                -9.000000000000000E+04,      /* K = 10 */
(PID.TID 0000.0001)                -1.000000000000000E+05,      /* K = 11 */
(PID.TID 0000.0001)                -1.100000000000000E+05,      /* K = 12 */
(PID.TID 0000.0001)                -1.200000000000000E+05,      /* K = 13 */
(PID.TID 0000.0001)                -1.300000000000000E+05,      /* K = 14 */
(PID.TID 0000.0001)                -1.400000000000000E+05,      /* K = 15 */
(PID.TID 0000.0001)                -1.500000000000000E+05,      /* K = 16 */
(PID.TID 0000.0001)                -1.600000000000000E+05,      /* K = 17 */
(PID.TID 0000.0001)                -1.700000000000000E+05,      /* K = 18 */
(PID.TID 0000.0001)                -1.800000000000000E+05,      /* K = 19 */
(PID.TID 0000.0001)                -1.900000000000000E+05,      /* K = 20 */
(PID.TID 0000.0001)                -2.000000000000000E+05       /* K = 21 */
(PID.TID 0000.0001)     ;
(PID.TID 0000.0001) dxF =  /* dxF(:,1,:,1) ( m - cartesian, degrees - spherical ) */
(PID.TID 0000.0001)    20 @  1.000000000000000E+04              /* I =  1: 20 */
(PID.TID 0000.0001)     ;
(PID.TID 0000.0001) dxF =  /* dxF(1,:,1,:) ( m - cartesian, degrees - spherical ) */
(PID.TID 0000.0001)                 1.000000000000000E+04       /* J =  1 */
(PID.TID 0000.0001)     ;
(PID.TID 0000.0001) dyF =  /* dyF(:,1,:,1) ( m - cartesian, degrees - spherical ) */
(PID.TID 0000.0001)    20 @  1.000000000000000E+04              /* I =  1: 20 */
(PID.TID 0000.0001)     ;
(PID.TID 0000.0001) dyF =  /* dyF(1,:,1,:) ( m - cartesian, degrees - spherical ) */
(PID.TID 0000.0001)                 1.000000000000000E+04       /* J =  1 */
(PID.TID 0000.0001)     ;
(PID.TID 0000.0001) dxG =  /* dxG(:,1,:,1) ( m - cartesian, degrees - spherical ) */
(PID.TID 0000.0001)    20 @  1.000000000000000E+04              /* I =  1: 20 */
(PID.TID 0000.0001)     ;
(PID.TID 0000.0001) dxG =  /* dxG(1,:,1,:) ( m - cartesian, degrees - spherical ) */
(PID.TID 0000.0001)                 1.000000000000000E+04       /* J =  1 */
(PID.TID 0000.0001)     ;
(PID.TID 0000.0001) dyG =  /* dyG(:,1,:,1) ( m - cartesian, degrees - spherical ) */
(PID.TID 0000.0001)    20 @  1.000000000000000E+04              /* I =  1: 20 */
(PID.TID 0000.0001)     ;
(PID.TID 0000.0001) dyG =  /* dyG(1,:,1,:) ( m - cartesian, degrees - spherical ) */
(PID.TID 0000.0001)                 1.000000000000000E+04       /* J =  1 */
(PID.TID 0000.0001)     ;
(PID.TID 0000.0001) dxC =  /* dxC(:,1,:,1) ( m - cartesian, degrees - spherical ) */
(PID.TID 0000.0001)    20 @  1.000000000000000E+04              /* I =  1: 20 */
(PID.TID 0000.0001)     ;
(PID.TID 0000.0001) dxC =  /* dxC(1,:,1,:) ( m - cartesian, degrees - spherical ) */
(PID.TID 0000.0001)                 1.000000000000000E+04       /* J =  1 */
(PID.TID 0000.0001)     ;
(PID.TID 0000.0001) dyC =  /* dyC(:,1,:,1) ( m - cartesian, degrees - spherical ) */
(PID.TID 0000.0001)    20 @  1.000000000000000E+04              /* I =  1: 20 */
(PID.TID 0000.0001)     ;
(PID.TID 0000.0001) dyC =  /* dyC(1,:,1,:) ( m - cartesian, degrees - spherical ) */
(PID.TID 0000.0001)                 1.000000000000000E+04       /* J =  1 */
(PID.TID 0000.0001)     ;
(PID.TID 0000.0001) dxV =  /* dxV(:,1,:,1) ( m - cartesian, degrees - spherical ) */
(PID.TID 0000.0001)    20 @  1.000000000000000E+04              /* I =  1: 20 */
(PID.TID 0000.0001)     ;
(PID.TID 0000.0001) dxV =  /* dxV(1,:,1,:) ( m - cartesian, degrees - spherical ) */
(PID.TID 0000.0001)                 1.000000000000000E+04       /* J =  1 */
(PID.TID 0000.0001)     ;
(PID.TID 0000.0001) dyU =  /* dyU(:,1,:,1) ( m - cartesian, degrees - spherical ) */
(PID.TID 0000.0001)    20 @  1.000000000000000E+04              /* I =  1: 20 */
(PID.TID 0000.0001)     ;
(PID.TID 0000.0001) dyU =  /* dyU(1,:,1,:) ( m - cartesian, degrees - spherical ) */
(PID.TID 0000.0001)                 1.000000000000000E+04       /* J =  1 */
(PID.TID 0000.0001)     ;
(PID.TID 0000.0001) rA =  /* rA(:,1,:,1) ( m - cartesian, degrees - spherical ) */
(PID.TID 0000.0001)    20 @  1.000000000000000E+08              /* I =  1: 20 */
(PID.TID 0000.0001)     ;
(PID.TID 0000.0001) rA =  /* rA(1,:,1,:) ( m - cartesian, degrees - spherical ) */
(PID.TID 0000.0001)                 1.000000000000000E+08       /* J =  1 */
(PID.TID 0000.0001)     ;
(PID.TID 0000.0001) rAw =  /* rAw(:,1,:,1) ( m - cartesian, degrees - spherical ) */
(PID.TID 0000.0001)    20 @  1.000000000000000E+08              /* I =  1: 20 */
(PID.TID 0000.0001)     ;
(PID.TID 0000.0001) rAw =  /* rAw(1,:,1,:) ( m - cartesian, degrees - spherical ) */
(PID.TID 0000.0001)                 1.000000000000000E+08       /* J =  1 */
(PID.TID 0000.0001)     ;
(PID.TID 0000.0001) rAs =  /* rAs(:,1,:,1) ( m - cartesian, degrees - spherical ) */
(PID.TID 0000.0001)    20 @  1.000000000000000E+08              /* I =  1: 20 */
(PID.TID 0000.0001)     ;
(PID.TID 0000.0001) rAs =  /* rAs(1,:,1,:) ( m - cartesian, degrees - spherical ) */
(PID.TID 0000.0001)                 1.000000000000000E+08       /* J =  1 */
(PID.TID 0000.0001)     ;
(PID.TID 0000.0001) 
(PID.TID 0000.0001) // =======================================================
(PID.TID 0000.0001) // Field Initial Temperature at iteration          1
(PID.TID 0000.0001) // CMIN =          1.560531385375595E-15
(PID.TID 0000.0001) // CMAX =          1.667657898348757E-02
(PID.TID 0000.0001) // CINT =          6.176510734624447E-04
(PID.TID 0000.0001) // SYMBOLS (CMIN->CMAX): -abcdefghijklmnopqrstuvwxyz+
(PID.TID 0000.0001) //                  0.0: .
(PID.TID 0000.0001) // RANGE I (Lo:Hi:Step):(   1:  20:   1)
(PID.TID 0000.0001) // RANGE J (Lo:Hi:Step):(   1:   1:  -1)
(PID.TID 0000.0001) // RANGE K (Lo:Hi:Step):(   1:   1:   1)
(PID.TID 0000.0001) // =======================================================
(PID.TID 0000.0001) K =   1
(PID.TID 0000.0001)                I=10      I=20
(PID.TID 0000.0001) |--J--|123456789|123456789|
(PID.TID 0000.0001)      1 fmu++umfba----------
(PID.TID 0000.0001) // =======================================================
(PID.TID 0000.0001) // END OF FIELD                                          =
(PID.TID 0000.0001) // =======================================================
(PID.TID 0000.0001) 
(PID.TID 0000.0001) // =======================================================
(PID.TID 0000.0001) // Field Initial Salinity at iteration          1
(PID.TID 0000.0001) // CMIN =          1.000000000000000E+32
(PID.TID 0000.0001) // CMAX =         -1.000000000000000E+32
(PID.TID 0000.0001) // CINT =          0.000000000000000E+00
(PID.TID 0000.0001) // SYMBOLS (CMIN->CMAX): -abcdefghijklmnopqrstuvwxyz+
(PID.TID 0000.0001) //                  0.0: .
(PID.TID 0000.0001) // RANGE I (Lo:Hi:Step):(   1:  20:   1)
(PID.TID 0000.0001) // RANGE J (Lo:Hi:Step):(   1:   1:  -1)
(PID.TID 0000.0001) // RANGE K (Lo:Hi:Step):(   1:   1:   1)
(PID.TID 0000.0001) // =======================================================
(PID.TID 0000.0001) K =   1
(PID.TID 0000.0001)                I=10      I=20
(PID.TID 0000.0001) |--J--|123456789|123456789|
(PID.TID 0000.0001)      1 ....................
(PID.TID 0000.0001) // =======================================================
(PID.TID 0000.0001) // END OF FIELD                                          =
(PID.TID 0000.0001) // =======================================================
(PID.TID 0000.0001) 
(PID.TID 0000.0001) Start initial hydrostatic pressure computation
(PID.TID 0000.0001) Iteration  1, RMS-difference =  0.0000000000000E+00
(PID.TID 0000.0001) Iteration  2, RMS-difference =  0.0000000000000E+00
(PID.TID 0000.0001) Iteration  3, RMS-difference =  0.0000000000000E+00
(PID.TID 0000.0001) Iteration  4, RMS-difference =  0.0000000000000E+00
(PID.TID 0000.0001) Iteration  5, RMS-difference =  0.0000000000000E+00
(PID.TID 0000.0001) Iteration  6, RMS-difference =  0.0000000000000E+00
(PID.TID 0000.0001) Iteration  7, RMS-difference =  0.0000000000000E+00
(PID.TID 0000.0001) Iteration  8, RMS-difference =  0.0000000000000E+00
(PID.TID 0000.0001) Iteration  9, RMS-difference =  0.0000000000000E+00
(PID.TID 0000.0001) Iteration 10, RMS-difference =  0.0000000000000E+00
(PID.TID 0000.0001) Iteration 11, RMS-difference =  0.0000000000000E+00
(PID.TID 0000.0001) Iteration 12, RMS-difference =  0.0000000000000E+00
(PID.TID 0000.0001) Iteration 13, RMS-difference =  0.0000000000000E+00
(PID.TID 0000.0001) Iteration 14, RMS-difference =  0.0000000000000E+00
(PID.TID 0000.0001) Iteration 15, RMS-difference =  0.0000000000000E+00
(PID.TID 0000.0001) Initial hydrostatic pressure converged.
(PID.TID 0000.0001) 
(PID.TID 0000.0001) // =======================================================
(PID.TID 0000.0001) // Model current state
(PID.TID 0000.0001) // =======================================================
(PID.TID 0000.0001) 
(PID.TID 0000.0001) // =======================================================
(PID.TID 0000.0001) // Begin MONITOR dynamic field statistics
(PID.TID 0000.0001) // =======================================================
(PID.TID 0000.0001) %MON time_tsnumber                =                     0
(PID.TID 0000.0001) %MON time_secondsf                =   0.0000000000000E+00
(PID.TID 0000.0001) %MON dynstat_eta_max              =   0.0000000000000E+00
(PID.TID 0000.0001) %MON dynstat_eta_min              =   0.0000000000000E+00
(PID.TID 0000.0001) %MON dynstat_eta_mean             =   0.0000000000000E+00
(PID.TID 0000.0001) %MON dynstat_eta_sd               =   0.0000000000000E+00
(PID.TID 0000.0001) %MON dynstat_eta_del2             =   0.0000000000000E+00
(PID.TID 0000.0001) %MON dynstat_uvel_max             =   4.3197753672207E+00
(PID.TID 0000.0001) %MON dynstat_uvel_min             =  -4.3527631873836E+00
(PID.TID 0000.0001) %MON dynstat_uvel_mean            =  -7.6475848677465E-08
(PID.TID 0000.0001) %MON dynstat_uvel_sd              =   2.1585693277988E+00
(PID.TID 0000.0001) %MON dynstat_uvel_del2            =   2.7401062341960E-02
(PID.TID 0000.0001) %MON dynstat_vvel_max             =   0.0000000000000E+00
(PID.TID 0000.0001) %MON dynstat_vvel_min             =   0.0000000000000E+00
(PID.TID 0000.0001) %MON dynstat_vvel_mean            =   0.0000000000000E+00
(PID.TID 0000.0001) %MON dynstat_vvel_sd              =   0.0000000000000E+00
(PID.TID 0000.0001) %MON dynstat_vvel_del2            =   0.0000000000000E+00
(PID.TID 0000.0001) %MON dynstat_wvel_max             =   3.1228323487082E+00
(PID.TID 0000.0001) %MON dynstat_wvel_min             =  -3.1263920485598E+00
(PID.TID 0000.0001) %MON dynstat_wvel_mean            =   1.2267524997393E-16
(PID.TID 0000.0001) %MON dynstat_wvel_sd              =   1.6826182747796E+00
(PID.TID 0000.0001) %MON dynstat_wvel_del2            =   9.2304988706489E-02
(PID.TID 0000.0001) %MON dynstat_theta_max            =   2.0316232275153E-01
(PID.TID 0000.0001) %MON dynstat_theta_min            =   4.4709972756099E-16
(PID.TID 0000.0001) %MON dynstat_theta_mean           =   1.7623652345767E-02
(PID.TID 0000.0001) %MON dynstat_theta_sd             =   4.0551557002470E-02
(PID.TID 0000.0001) %MON dynstat_theta_del2           =   1.0327608890645E-03
(PID.TID 0000.0001) %MON dynstat_salt_max             =   0.0000000000000E+00
(PID.TID 0000.0001) %MON dynstat_salt_min             =   0.0000000000000E+00
(PID.TID 0000.0001) %MON dynstat_salt_mean            =   0.0000000000000E+00
(PID.TID 0000.0001) %MON dynstat_salt_sd              =   0.0000000000000E+00
(PID.TID 0000.0001) %MON dynstat_salt_del2            =   0.0000000000000E+00
(PID.TID 0000.0001) %MON advcfl_uvel_max              =   5.2233158248603E-01
(PID.TID 0000.0001) %MON advcfl_vvel_max              =   0.0000000000000E+00
(PID.TID 0000.0001) %MON advcfl_wvel_max              =   3.7516704582717E-01
(PID.TID 0000.0001) %MON advcfl_W_hf_max              =   5.2233158248603E-01
(PID.TID 0000.0001) %MON ke_max                       =   9.3053145550573E+00
(PID.TID 0000.0001) %MON ke_mean                      =   2.2659862631352E+00
(PID.TID 0000.0001) %MON ke_volint                    =   6.7678097910823E+14
(PID.TID 0000.0001) %MON ke_volmean                   =   2.2559365970274E+00
(PID.TID 0000.0001) %MON ke_vol                       =   3.0000000000000E+14
(PID.TID 0000.0001) %MON surf_Corr_theta_mean         =   8.8595557449551E-10
(PID.TID 0000.0001) %MON surf_Corr_salt_mean          =   0.0000000000000E+00
(PID.TID 0000.0001) // =======================================================
(PID.TID 0000.0001) // End MONITOR dynamic field statistics
(PID.TID 0000.0001) // =======================================================
(PID.TID 0000.0001) // =======================================================
(PID.TID 0000.0001) // Begin MONITOR dynamic field statistics
(PID.TID 0000.0001) // =======================================================
(PID.TID 0000.0001) %MON time_tsnumber                =                    10
(PID.TID 0000.0001) %MON time_secondsf                =   1.2000000000000E+04
(PID.TID 0000.0001) %MON dynstat_eta_max              =   0.0000000000000E+00
(PID.TID 0000.0001) %MON dynstat_eta_min              =   0.0000000000000E+00
(PID.TID 0000.0001) %MON dynstat_eta_mean             =   0.0000000000000E+00
(PID.TID 0000.0001) %MON dynstat_eta_sd               =   0.0000000000000E+00
(PID.TID 0000.0001) %MON dynstat_eta_del2             =   0.0000000000000E+00
(PID.TID 0000.0001) %MON dynstat_uvel_max             =   4.3197753672207E+00
(PID.TID 0000.0001) %MON dynstat_uvel_min             =  -4.3527631873836E+00
(PID.TID 0000.0001) %MON dynstat_uvel_mean            =  -7.6475848677465E-08
(PID.TID 0000.0001) %MON dynstat_uvel_sd              =   2.1585693277988E+00
(PID.TID 0000.0001) %MON dynstat_uvel_del2            =   2.7401062341960E-02
(PID.TID 0000.0001) %MON dynstat_vvel_max             =   0.0000000000000E+00
(PID.TID 0000.0001) %MON dynstat_vvel_min             =   0.0000000000000E+00
(PID.TID 0000.0001) %MON dynstat_vvel_mean            =   0.0000000000000E+00
(PID.TID 0000.0001) %MON dynstat_vvel_sd              =   0.0000000000000E+00
(PID.TID 0000.0001) %MON dynstat_vvel_del2            =   0.0000000000000E+00
(PID.TID 0000.0001) %MON dynstat_wvel_max             =   3.1228323487082E+00
(PID.TID 0000.0001) %MON dynstat_wvel_min             =  -3.1263920485598E+00
(PID.TID 0000.0001) %MON dynstat_wvel_mean            =   1.2267524997393E-16
(PID.TID 0000.0001) %MON dynstat_wvel_sd              =   1.6826182747796E+00
(PID.TID 0000.0001) %MON dynstat_wvel_del2            =   9.2304988706489E-02
(PID.TID 0000.0001) %MON dynstat_theta_max            =   1.8865155876914E-01
(PID.TID 0000.0001) %MON dynstat_theta_min            =   6.6793738819570E-16
(PID.TID 0000.0001) %MON dynstat_theta_mean           =   1.7623652261486E-02
(PID.TID 0000.0001) %MON dynstat_theta_sd             =   4.0280949477371E-02
(PID.TID 0000.0001) %MON dynstat_theta_del2           =   5.7557150221512E-04
(PID.TID 0000.0001) %MON dynstat_salt_max             =   0.0000000000000E+00
(PID.TID 0000.0001) %MON dynstat_salt_min             =   0.0000000000000E+00
(PID.TID 0000.0001) %MON dynstat_salt_mean            =   0.0000000000000E+00
(PID.TID 0000.0001) %MON dynstat_salt_sd              =   0.0000000000000E+00
(PID.TID 0000.0001) %MON dynstat_salt_del2            =   0.0000000000000E+00
(PID.TID 0000.0001) %MON advcfl_uvel_max              =   5.2233158248603E-01
(PID.TID 0000.0001) %MON advcfl_vvel_max              =   0.0000000000000E+00
(PID.TID 0000.0001) %MON advcfl_wvel_max              =   3.7516704582717E-01
(PID.TID 0000.0001) %MON advcfl_W_hf_max              =   5.2233158248603E-01
(PID.TID 0000.0001) %MON ke_max                       =   9.3053145550573E+00
(PID.TID 0000.0001) %MON ke_mean                      =   2.2659862631352E+00
(PID.TID 0000.0001) %MON ke_volint                    =   6.7678097910823E+14
(PID.TID 0000.0001) %MON ke_volmean                   =   2.2559365970274E+00
(PID.TID 0000.0001) %MON ke_vol                       =   3.0000000000000E+14
(PID.TID 0000.0001) %MON surf_Corr_theta_mean         =   1.3204127520726E-09
(PID.TID 0000.0001) %MON surf_Corr_salt_mean          =   0.0000000000000E+00
(PID.TID 0000.0001) // =======================================================
(PID.TID 0000.0001) // End MONITOR dynamic field statistics
(PID.TID 0000.0001) // =======================================================
(PID.TID 0000.0001) // =======================================================
(PID.TID 0000.0001) // Begin MONITOR dynamic field statistics
(PID.TID 0000.0001) // =======================================================
(PID.TID 0000.0001) %MON time_tsnumber                =                    20
(PID.TID 0000.0001) %MON time_secondsf                =   2.4000000000000E+04
(PID.TID 0000.0001) %MON dynstat_eta_max              =   0.0000000000000E+00
(PID.TID 0000.0001) %MON dynstat_eta_min              =   0.0000000000000E+00
(PID.TID 0000.0001) %MON dynstat_eta_mean             =   0.0000000000000E+00
(PID.TID 0000.0001) %MON dynstat_eta_sd               =   0.0000000000000E+00
(PID.TID 0000.0001) %MON dynstat_eta_del2             =   0.0000000000000E+00
(PID.TID 0000.0001) %MON dynstat_uvel_max             =   4.3197753672207E+00
(PID.TID 0000.0001) %MON dynstat_uvel_min             =  -4.3527631873836E+00
(PID.TID 0000.0001) %MON dynstat_uvel_mean            =  -7.6475848677465E-08
(PID.TID 0000.0001) %MON dynstat_uvel_sd              =   2.1585693277988E+00
(PID.TID 0000.0001) %MON dynstat_uvel_del2            =   2.7401062341960E-02
(PID.TID 0000.0001) %MON dynstat_vvel_max             =   0.0000000000000E+00
(PID.TID 0000.0001) %MON dynstat_vvel_min             =   0.0000000000000E+00
(PID.TID 0000.0001) %MON dynstat_vvel_mean            =   0.0000000000000E+00
(PID.TID 0000.0001) %MON dynstat_vvel_sd              =   0.0000000000000E+00
(PID.TID 0000.0001) %MON dynstat_vvel_del2            =   0.0000000000000E+00
(PID.TID 0000.0001) %MON dynstat_wvel_max             =   3.1228323487082E+00
(PID.TID 0000.0001) %MON dynstat_wvel_min             =  -3.1263920485598E+00
(PID.TID 0000.0001) %MON dynstat_wvel_mean            =   1.2267524997393E-16
(PID.TID 0000.0001) %MON dynstat_wvel_sd              =   1.6826182747796E+00
(PID.TID 0000.0001) %MON dynstat_wvel_del2            =   9.2304988706489E-02
(PID.TID 0000.0001) %MON dynstat_theta_max            =   1.8101437258953E-01
(PID.TID 0000.0001) %MON dynstat_theta_min            =   3.1970472256848E-15
(PID.TID 0000.0001) %MON dynstat_theta_mean           =   1.7623652138227E-02
(PID.TID 0000.0001) %MON dynstat_theta_sd             =   3.9359384426223E-02
(PID.TID 0000.0001) %MON dynstat_theta_del2           =   4.8655504015377E-04
(PID.TID 0000.0001) %MON dynstat_salt_max             =   0.0000000000000E+00
(PID.TID 0000.0001) %MON dynstat_salt_min             =   0.0000000000000E+00
(PID.TID 0000.0001) %MON dynstat_salt_mean            =   0.0000000000000E+00
(PID.TID 0000.0001) %MON dynstat_salt_sd              =   0.0000000000000E+00
(PID.TID 0000.0001) %MON dynstat_salt_del2            =   0.0000000000000E+00
(PID.TID 0000.0001) %MON advcfl_uvel_max              =   5.2233158248603E-01
(PID.TID 0000.0001) %MON advcfl_vvel_max              =   0.0000000000000E+00
(PID.TID 0000.0001) %MON advcfl_wvel_max              =   3.7516704582717E-01
(PID.TID 0000.0001) %MON advcfl_W_hf_max              =   5.2233158248603E-01
(PID.TID 0000.0001) %MON ke_max                       =   9.3053145550573E+00
(PID.TID 0000.0001) %MON ke_mean                      =   2.2659862631352E+00
(PID.TID 0000.0001) %MON ke_volint                    =   6.7678097910823E+14
(PID.TID 0000.0001) %MON ke_volmean                   =   2.2559365970274E+00
(PID.TID 0000.0001) %MON ke_vol                       =   3.0000000000000E+14
(PID.TID 0000.0001) %MON surf_Corr_theta_mean         =   1.6464520196135E-09
(PID.TID 0000.0001) %MON surf_Corr_salt_mean          =   0.0000000000000E+00
(PID.TID 0000.0001) // =======================================================
(PID.TID 0000.0001) // End MONITOR dynamic field statistics
(PID.TID 0000.0001) // =======================================================
(PID.TID 0000.0001) // =======================================================
(PID.TID 0000.0001) // Begin MONITOR dynamic field statistics
(PID.TID 0000.0001) // =======================================================
(PID.TID 0000.0001) %MON time_tsnumber                =                    30
(PID.TID 0000.0001) %MON time_secondsf                =   3.6000000000000E+04
(PID.TID 0000.0001) %MON dynstat_eta_max              =   0.0000000000000E+00
(PID.TID 0000.0001) %MON dynstat_eta_min              =   0.0000000000000E+00
(PID.TID 0000.0001) %MON dynstat_eta_mean             =   0.0000000000000E+00
(PID.TID 0000.0001) %MON dynstat_eta_sd               =   0.0000000000000E+00
(PID.TID 0000.0001) %MON dynstat_eta_del2             =   0.0000000000000E+00
(PID.TID 0000.0001) %MON dynstat_uvel_max             =   4.3197753672207E+00
(PID.TID 0000.0001) %MON dynstat_uvel_min             =  -4.3527631873836E+00
(PID.TID 0000.0001) %MON dynstat_uvel_mean            =  -7.6475848677465E-08
(PID.TID 0000.0001) %MON dynstat_uvel_sd              =   2.1585693277988E+00
(PID.TID 0000.0001) %MON dynstat_uvel_del2            =   2.7401062341960E-02
(PID.TID 0000.0001) %MON dynstat_vvel_max             =   0.0000000000000E+00
(PID.TID 0000.0001) %MON dynstat_vvel_min             =   0.0000000000000E+00
(PID.TID 0000.0001) %MON dynstat_vvel_mean            =   0.0000000000000E+00
(PID.TID 0000.0001) %MON dynstat_vvel_sd              =   0.0000000000000E+00
(PID.TID 0000.0001) %MON dynstat_vvel_del2            =   0.0000000000000E+00
(PID.TID 0000.0001) %MON dynstat_wvel_max             =   3.1228323487082E+00
(PID.TID 0000.0001) %MON dynstat_wvel_min             =  -3.1263920485598E+00
(PID.TID 0000.0001) %MON dynstat_wvel_mean            =   1.2267524997393E-16
(PID.TID 0000.0001) %MON dynstat_wvel_sd              =   1.6826182747796E+00
(PID.TID 0000.0001) %MON dynstat_wvel_del2            =   9.2304988706489E-02
(PID.TID 0000.0001) %MON dynstat_theta_max            =   1.7755836998183E-01
(PID.TID 0000.0001) %MON dynstat_theta_min            =   7.5229833978465E-14
(PID.TID 0000.0001) %MON dynstat_theta_mean           =   1.7623652066651E-02
(PID.TID 0000.0001) %MON dynstat_theta_sd             =   3.8510596741244E-02
(PID.TID 0000.0001) %MON dynstat_theta_del2           =   1.0009192305860E-03
(PID.TID 0000.0001) %MON dynstat_salt_max             =   0.0000000000000E+00
(PID.TID 0000.0001) %MON dynstat_salt_min             =   0.0000000000000E+00
(PID.TID 0000.0001) %MON dynstat_salt_mean            =   0.0000000000000E+00
(PID.TID 0000.0001) %MON dynstat_salt_sd              =   0.0000000000000E+00
(PID.TID 0000.0001) %MON dynstat_salt_del2            =   0.0000000000000E+00
(PID.TID 0000.0001) %MON advcfl_uvel_max              =   5.2233158248603E-01
(PID.TID 0000.0001) %MON advcfl_vvel_max              =   0.0000000000000E+00
(PID.TID 0000.0001) %MON advcfl_wvel_max              =   3.7516704582717E-01
(PID.TID 0000.0001) %MON advcfl_W_hf_max              =   5.2233158248603E-01
(PID.TID 0000.0001) %MON ke_max                       =   9.3053145550573E+00
(PID.TID 0000.0001) %MON ke_mean                      =   2.2659862631352E+00
(PID.TID 0000.0001) %MON ke_volint                    =   6.7678097910823E+14
(PID.TID 0000.0001) %MON ke_volmean                   =   2.2559365970274E+00
(PID.TID 0000.0001) %MON ke_vol                       =   3.0000000000000E+14
(PID.TID 0000.0001) %MON surf_Corr_theta_mean         =  -4.9640247803587E-10
(PID.TID 0000.0001) %MON surf_Corr_salt_mean          =   0.0000000000000E+00
(PID.TID 0000.0001) // =======================================================
(PID.TID 0000.0001) // End MONITOR dynamic field statistics
(PID.TID 0000.0001) // =======================================================
(PID.TID 0000.0001) // =======================================================
(PID.TID 0000.0001) // Begin MONITOR dynamic field statistics
(PID.TID 0000.0001) // =======================================================
(PID.TID 0000.0001) %MON time_tsnumber                =                    40
(PID.TID 0000.0001) %MON time_secondsf                =   4.8000000000000E+04
(PID.TID 0000.0001) %MON dynstat_eta_max              =   0.0000000000000E+00
(PID.TID 0000.0001) %MON dynstat_eta_min              =   0.0000000000000E+00
(PID.TID 0000.0001) %MON dynstat_eta_mean             =   0.0000000000000E+00
(PID.TID 0000.0001) %MON dynstat_eta_sd               =   0.0000000000000E+00
(PID.TID 0000.0001) %MON dynstat_eta_del2             =   0.0000000000000E+00
(PID.TID 0000.0001) %MON dynstat_uvel_max             =   4.3197753672207E+00
(PID.TID 0000.0001) %MON dynstat_uvel_min             =  -4.3527631873836E+00
(PID.TID 0000.0001) %MON dynstat_uvel_mean            =  -7.6475848677465E-08
(PID.TID 0000.0001) %MON dynstat_uvel_sd              =   2.1585693277988E+00
(PID.TID 0000.0001) %MON dynstat_uvel_del2            =   2.7401062341960E-02
(PID.TID 0000.0001) %MON dynstat_vvel_max             =   0.0000000000000E+00
(PID.TID 0000.0001) %MON dynstat_vvel_min             =   0.0000000000000E+00
(PID.TID 0000.0001) %MON dynstat_vvel_mean            =   0.0000000000000E+00
(PID.TID 0000.0001) %MON dynstat_vvel_sd              =   0.0000000000000E+00
(PID.TID 0000.0001) %MON dynstat_vvel_del2            =   0.0000000000000E+00
(PID.TID 0000.0001) %MON dynstat_wvel_max             =   3.1228323487082E+00
(PID.TID 0000.0001) %MON dynstat_wvel_min             =  -3.1263920485598E+00
(PID.TID 0000.0001) %MON dynstat_wvel_mean            =   1.2267524997393E-16
(PID.TID 0000.0001) %MON dynstat_wvel_sd              =   1.6826182747796E+00
(PID.TID 0000.0001) %MON dynstat_wvel_del2            =   9.2304988706489E-02
(PID.TID 0000.0001) %MON dynstat_theta_max            =   1.6628492427432E-01
(PID.TID 0000.0001) %MON dynstat_theta_min            =   9.6228544814329E-12
(PID.TID 0000.0001) %MON dynstat_theta_mean           =   1.7623652198603E-02
(PID.TID 0000.0001) %MON dynstat_theta_sd             =   3.7531420777295E-02
(PID.TID 0000.0001) %MON dynstat_theta_del2           =   1.7354146296893E-03
(PID.TID 0000.0001) %MON dynstat_salt_max             =   0.0000000000000E+00
(PID.TID 0000.0001) %MON dynstat_salt_min             =   0.0000000000000E+00
(PID.TID 0000.0001) %MON dynstat_salt_mean            =   0.0000000000000E+00
(PID.TID 0000.0001) %MON dynstat_salt_sd              =   0.0000000000000E+00
(PID.TID 0000.0001) %MON dynstat_salt_del2            =   0.0000000000000E+00
(PID.TID 0000.0001) %MON advcfl_uvel_max              =   5.2233158248603E-01
(PID.TID 0000.0001) %MON advcfl_vvel_max              =   0.0000000000000E+00
(PID.TID 0000.0001) %MON advcfl_wvel_max              =   3.7516704582717E-01
(PID.TID 0000.0001) %MON advcfl_W_hf_max              =   5.2233158248603E-01
(PID.TID 0000.0001) %MON ke_max                       =   9.3053145550573E+00
(PID.TID 0000.0001) %MON ke_mean                      =   2.2659862631352E+00
(PID.TID 0000.0001) %MON ke_volint                    =   6.7678097910823E+14
(PID.TID 0000.0001) %MON ke_volmean                   =   2.2559365970274E+00
(PID.TID 0000.0001) %MON ke_vol                       =   3.0000000000000E+14
(PID.TID 0000.0001) %MON surf_Corr_theta_mean         =  -2.7300594065920E-09
(PID.TID 0000.0001) %MON surf_Corr_salt_mean          =   0.0000000000000E+00
(PID.TID 0000.0001) // =======================================================
(PID.TID 0000.0001) // End MONITOR dynamic field statistics
(PID.TID 0000.0001) // =======================================================
(PID.TID 0000.0001) // =======================================================
(PID.TID 0000.0001) // Begin MONITOR dynamic field statistics
(PID.TID 0000.0001) // =======================================================
(PID.TID 0000.0001) %MON time_tsnumber                =                    50
(PID.TID 0000.0001) %MON time_secondsf                =   6.0000000000000E+04
(PID.TID 0000.0001) %MON dynstat_eta_max              =   0.0000000000000E+00
(PID.TID 0000.0001) %MON dynstat_eta_min              =   0.0000000000000E+00
(PID.TID 0000.0001) %MON dynstat_eta_mean             =   0.0000000000000E+00
(PID.TID 0000.0001) %MON dynstat_eta_sd               =   0.0000000000000E+00
(PID.TID 0000.0001) %MON dynstat_eta_del2             =   0.0000000000000E+00
(PID.TID 0000.0001) %MON dynstat_uvel_max             =   4.3197753672207E+00
(PID.TID 0000.0001) %MON dynstat_uvel_min             =  -4.3527631873836E+00
(PID.TID 0000.0001) %MON dynstat_uvel_mean            =  -7.6475848677465E-08
(PID.TID 0000.0001) %MON dynstat_uvel_sd              =   2.1585693277988E+00
(PID.TID 0000.0001) %MON dynstat_uvel_del2            =   2.7401062341960E-02
(PID.TID 0000.0001) %MON dynstat_vvel_max             =   0.0000000000000E+00
(PID.TID 0000.0001) %MON dynstat_vvel_min             =   0.0000000000000E+00
(PID.TID 0000.0001) %MON dynstat_vvel_mean            =   0.0000000000000E+00
(PID.TID 0000.0001) %MON dynstat_vvel_sd              =   0.0000000000000E+00
(PID.TID 0000.0001) %MON dynstat_vvel_del2            =   0.0000000000000E+00
(PID.TID 0000.0001) %MON dynstat_wvel_max             =   3.1228323487082E+00
(PID.TID 0000.0001) %MON dynstat_wvel_min             =  -3.1263920485598E+00
(PID.TID 0000.0001) %MON dynstat_wvel_mean            =   1.2267524997393E-16
(PID.TID 0000.0001) %MON dynstat_wvel_sd              =   1.6826182747796E+00
(PID.TID 0000.0001) %MON dynstat_wvel_del2            =   9.2304988706489E-02
(PID.TID 0000.0001) %MON dynstat_theta_max            =   1.5736898906656E-01
(PID.TID 0000.0001) %MON dynstat_theta_min            =   5.3194862278534E-11
(PID.TID 0000.0001) %MON dynstat_theta_mean           =   1.7623652438232E-02
(PID.TID 0000.0001) %MON dynstat_theta_sd             =   3.5327130384701E-02
(PID.TID 0000.0001) %MON dynstat_theta_del2           =   1.9353340858802E-03
(PID.TID 0000.0001) %MON dynstat_salt_max             =   0.0000000000000E+00
(PID.TID 0000.0001) %MON dynstat_salt_min             =   0.0000000000000E+00
(PID.TID 0000.0001) %MON dynstat_salt_mean            =   0.0000000000000E+00
(PID.TID 0000.0001) %MON dynstat_salt_sd              =   0.0000000000000E+00
(PID.TID 0000.0001) %MON dynstat_salt_del2            =   0.0000000000000E+00
(PID.TID 0000.0001) %MON advcfl_uvel_max              =   5.2233158248603E-01
(PID.TID 0000.0001) %MON advcfl_vvel_max              =   0.0000000000000E+00
(PID.TID 0000.0001) %MON advcfl_wvel_max              =   3.7516704582717E-01
(PID.TID 0000.0001) %MON advcfl_W_hf_max              =   5.2233158248603E-01
(PID.TID 0000.0001) %MON ke_max                       =   9.3053145550573E+00
(PID.TID 0000.0001) %MON ke_mean                      =   2.2659862631352E+00
(PID.TID 0000.0001) %MON ke_volint                    =   6.7678097910823E+14
(PID.TID 0000.0001) %MON ke_volmean                   =   2.2559365970274E+00
(PID.TID 0000.0001) %MON ke_vol                       =   3.0000000000000E+14
(PID.TID 0000.0001) %MON surf_Corr_theta_mean         =  -2.9832356878421E-09
(PID.TID 0000.0001) %MON surf_Corr_salt_mean          =   0.0000000000000E+00
(PID.TID 0000.0001) // =======================================================
(PID.TID 0000.0001) // End MONITOR dynamic field statistics
(PID.TID 0000.0001) // =======================================================
(PID.TID 0000.0001) // =======================================================
(PID.TID 0000.0001) // Begin MONITOR dynamic field statistics
(PID.TID 0000.0001) // =======================================================
(PID.TID 0000.0001) %MON time_tsnumber                =                    60
(PID.TID 0000.0001) %MON time_secondsf                =   7.2000000000000E+04
(PID.TID 0000.0001) %MON dynstat_eta_max              =   0.0000000000000E+00
(PID.TID 0000.0001) %MON dynstat_eta_min              =   0.0000000000000E+00
(PID.TID 0000.0001) %MON dynstat_eta_mean             =   0.0000000000000E+00
(PID.TID 0000.0001) %MON dynstat_eta_sd               =   0.0000000000000E+00
(PID.TID 0000.0001) %MON dynstat_eta_del2             =   0.0000000000000E+00
(PID.TID 0000.0001) %MON dynstat_uvel_max             =   4.3197753672207E+00
(PID.TID 0000.0001) %MON dynstat_uvel_min             =  -4.3527631873836E+00
(PID.TID 0000.0001) %MON dynstat_uvel_mean            =  -7.6475848677465E-08
(PID.TID 0000.0001) %MON dynstat_uvel_sd              =   2.1585693277988E+00
(PID.TID 0000.0001) %MON dynstat_uvel_del2            =   2.7401062341960E-02
(PID.TID 0000.0001) %MON dynstat_vvel_max             =   0.0000000000000E+00
(PID.TID 0000.0001) %MON dynstat_vvel_min             =   0.0000000000000E+00
(PID.TID 0000.0001) %MON dynstat_vvel_mean            =   0.0000000000000E+00
(PID.TID 0000.0001) %MON dynstat_vvel_sd              =   0.0000000000000E+00
(PID.TID 0000.0001) %MON dynstat_vvel_del2            =   0.0000000000000E+00
(PID.TID 0000.0001) %MON dynstat_wvel_max             =   3.1228323487082E+00
(PID.TID 0000.0001) %MON dynstat_wvel_min             =  -3.1263920485598E+00
(PID.TID 0000.0001) %MON dynstat_wvel_mean            =   1.2267524997393E-16
(PID.TID 0000.0001) %MON dynstat_wvel_sd              =   1.6826182747796E+00
(PID.TID 0000.0001) %MON dynstat_wvel_del2            =   9.2304988706489E-02
(PID.TID 0000.0001) %MON dynstat_theta_max            =   1.2337300318490E-01
(PID.TID 0000.0001) %MON dynstat_theta_min            =   2.0247788151740E-10
(PID.TID 0000.0001) %MON dynstat_theta_mean           =   1.7623652648262E-02
(PID.TID 0000.0001) %MON dynstat_theta_sd             =   3.2010703154860E-02
(PID.TID 0000.0001) %MON dynstat_theta_del2           =   1.8043777411640E-03
(PID.TID 0000.0001) %MON dynstat_salt_max             =   0.0000000000000E+00
(PID.TID 0000.0001) %MON dynstat_salt_min             =   0.0000000000000E+00
(PID.TID 0000.0001) %MON dynstat_salt_mean            =   0.0000000000000E+00
(PID.TID 0000.0001) %MON dynstat_salt_sd              =   0.0000000000000E+00
(PID.TID 0000.0001) %MON dynstat_salt_del2            =   0.0000000000000E+00
(PID.TID 0000.0001) %MON advcfl_uvel_max              =   5.2233158248603E-01
(PID.TID 0000.0001) %MON advcfl_vvel_max              =   0.0000000000000E+00
(PID.TID 0000.0001) %MON advcfl_wvel_max              =   3.7516704582717E-01
(PID.TID 0000.0001) %MON advcfl_W_hf_max              =   5.2233158248603E-01
(PID.TID 0000.0001) %MON ke_max                       =   9.3053145550573E+00
(PID.TID 0000.0001) %MON ke_mean                      =   2.2659862631352E+00
(PID.TID 0000.0001) %MON ke_volint                    =   6.7678097910823E+14
(PID.TID 0000.0001) %MON ke_volmean                   =   2.2559365970274E+00
(PID.TID 0000.0001) %MON ke_vol                       =   3.0000000000000E+14
(PID.TID 0000.0001) %MON surf_Corr_theta_mean         =  -2.1055398114591E-09
(PID.TID 0000.0001) %MON surf_Corr_salt_mean          =   0.0000000000000E+00
(PID.TID 0000.0001) // =======================================================
(PID.TID 0000.0001) // End MONITOR dynamic field statistics
(PID.TID 0000.0001) // =======================================================
(PID.TID 0000.0001) // =======================================================
(PID.TID 0000.0001) // Begin MONITOR dynamic field statistics
(PID.TID 0000.0001) // =======================================================
(PID.TID 0000.0001) %MON time_tsnumber                =                    70
(PID.TID 0000.0001) %MON time_secondsf                =   8.4000000000000E+04
(PID.TID 0000.0001) %MON dynstat_eta_max              =   0.0000000000000E+00
(PID.TID 0000.0001) %MON dynstat_eta_min              =   0.0000000000000E+00
(PID.TID 0000.0001) %MON dynstat_eta_mean             =   0.0000000000000E+00
(PID.TID 0000.0001) %MON dynstat_eta_sd               =   0.0000000000000E+00
(PID.TID 0000.0001) %MON dynstat_eta_del2             =   0.0000000000000E+00
(PID.TID 0000.0001) %MON dynstat_uvel_max             =   4.3197753672207E+00
(PID.TID 0000.0001) %MON dynstat_uvel_min             =  -4.3527631873836E+00
(PID.TID 0000.0001) %MON dynstat_uvel_mean            =  -7.6475848677465E-08
(PID.TID 0000.0001) %MON dynstat_uvel_sd              =   2.1585693277988E+00
(PID.TID 0000.0001) %MON dynstat_uvel_del2            =   2.7401062341960E-02
(PID.TID 0000.0001) %MON dynstat_vvel_max             =   0.0000000000000E+00
(PID.TID 0000.0001) %MON dynstat_vvel_min             =   0.0000000000000E+00
(PID.TID 0000.0001) %MON dynstat_vvel_mean            =   0.0000000000000E+00
(PID.TID 0000.0001) %MON dynstat_vvel_sd              =   0.0000000000000E+00
(PID.TID 0000.0001) %MON dynstat_vvel_del2            =   0.0000000000000E+00
(PID.TID 0000.0001) %MON dynstat_wvel_max             =   3.1228323487082E+00
(PID.TID 0000.0001) %MON dynstat_wvel_min             =  -3.1263920485598E+00
(PID.TID 0000.0001) %MON dynstat_wvel_mean            =   1.2267524997393E-16
(PID.TID 0000.0001) %MON dynstat_wvel_sd              =   1.6826182747796E+00
(PID.TID 0000.0001) %MON dynstat_wvel_del2            =   9.2304988706489E-02
(PID.TID 0000.0001) %MON dynstat_theta_max            =   1.1319406124632E-01
(PID.TID 0000.0001) %MON dynstat_theta_min            =   5.0867633528735E-10
(PID.TID 0000.0001) %MON dynstat_theta_mean           =   1.7623652781876E-02
(PID.TID 0000.0001) %MON dynstat_theta_sd             =   2.9428858448726E-02
(PID.TID 0000.0001) %MON dynstat_theta_del2           =   1.9350466346597E-03
(PID.TID 0000.0001) %MON dynstat_salt_max             =   0.0000000000000E+00
(PID.TID 0000.0001) %MON dynstat_salt_min             =   0.0000000000000E+00
(PID.TID 0000.0001) %MON dynstat_salt_mean            =   0.0000000000000E+00
(PID.TID 0000.0001) %MON dynstat_salt_sd              =   0.0000000000000E+00
(PID.TID 0000.0001) %MON dynstat_salt_del2            =   0.0000000000000E+00
(PID.TID 0000.0001) %MON advcfl_uvel_max              =   5.2233158248603E-01
(PID.TID 0000.0001) %MON advcfl_vvel_max              =   0.0000000000000E+00
(PID.TID 0000.0001) %MON advcfl_wvel_max              =   3.7516704582717E-01
(PID.TID 0000.0001) %MON advcfl_W_hf_max              =   5.2233158248603E-01
(PID.TID 0000.0001) %MON ke_max                       =   9.3053145550573E+00
(PID.TID 0000.0001) %MON ke_mean                      =   2.2659862631352E+00
(PID.TID 0000.0001) %MON ke_volint                    =   6.7678097910823E+14
(PID.TID 0000.0001) %MON ke_volmean                   =   2.2559365970274E+00
(PID.TID 0000.0001) %MON ke_vol                       =   3.0000000000000E+14
(PID.TID 0000.0001) %MON surf_Corr_theta_mean         =  -1.1830123240057E-09
(PID.TID 0000.0001) %MON surf_Corr_salt_mean          =   0.0000000000000E+00
(PID.TID 0000.0001) // =======================================================
(PID.TID 0000.0001) // End MONITOR dynamic field statistics
(PID.TID 0000.0001) // =======================================================
(PID.TID 0000.0001) // =======================================================
(PID.TID 0000.0001) // Begin MONITOR dynamic field statistics
(PID.TID 0000.0001) // =======================================================
(PID.TID 0000.0001) %MON time_tsnumber                =                    80
(PID.TID 0000.0001) %MON time_secondsf                =   9.6000000000000E+04
(PID.TID 0000.0001) %MON dynstat_eta_max              =   0.0000000000000E+00
(PID.TID 0000.0001) %MON dynstat_eta_min              =   0.0000000000000E+00
(PID.TID 0000.0001) %MON dynstat_eta_mean             =   0.0000000000000E+00
(PID.TID 0000.0001) %MON dynstat_eta_sd               =   0.0000000000000E+00
(PID.TID 0000.0001) %MON dynstat_eta_del2             =   0.0000000000000E+00
(PID.TID 0000.0001) %MON dynstat_uvel_max             =   4.3197753672207E+00
(PID.TID 0000.0001) %MON dynstat_uvel_min             =  -4.3527631873836E+00
(PID.TID 0000.0001) %MON dynstat_uvel_mean            =  -7.6475848677465E-08
(PID.TID 0000.0001) %MON dynstat_uvel_sd              =   2.1585693277988E+00
(PID.TID 0000.0001) %MON dynstat_uvel_del2            =   2.7401062341960E-02
(PID.TID 0000.0001) %MON dynstat_vvel_max             =   0.0000000000000E+00
(PID.TID 0000.0001) %MON dynstat_vvel_min             =   0.0000000000000E+00
(PID.TID 0000.0001) %MON dynstat_vvel_mean            =   0.0000000000000E+00
(PID.TID 0000.0001) %MON dynstat_vvel_sd              =   0.0000000000000E+00
(PID.TID 0000.0001) %MON dynstat_vvel_del2            =   0.0000000000000E+00
(PID.TID 0000.0001) %MON dynstat_wvel_max             =   3.1228323487082E+00
(PID.TID 0000.0001) %MON dynstat_wvel_min             =  -3.1263920485598E+00
(PID.TID 0000.0001) %MON dynstat_wvel_mean            =   1.2267524997393E-16
(PID.TID 0000.0001) %MON dynstat_wvel_sd              =   1.6826182747796E+00
(PID.TID 0000.0001) %MON dynstat_wvel_del2            =   9.2304988706489E-02
(PID.TID 0000.0001) %MON dynstat_theta_max            =   1.0975854945434E-01
(PID.TID 0000.0001) %MON dynstat_theta_min            =   6.3276809679954E-10
(PID.TID 0000.0001) %MON dynstat_theta_mean           =   1.7623652852437E-02
(PID.TID 0000.0001) %MON dynstat_theta_sd             =   2.8042678104415E-02
(PID.TID 0000.0001) %MON dynstat_theta_del2           =   2.1983888239209E-03
(PID.TID 0000.0001) %MON dynstat_salt_max             =   0.0000000000000E+00
(PID.TID 0000.0001) %MON dynstat_salt_min             =   0.0000000000000E+00
(PID.TID 0000.0001) %MON dynstat_salt_mean            =   0.0000000000000E+00
(PID.TID 0000.0001) %MON dynstat_salt_sd              =   0.0000000000000E+00
(PID.TID 0000.0001) %MON dynstat_salt_del2            =   0.0000000000000E+00
(PID.TID 0000.0001) %MON advcfl_uvel_max              =   5.2233158248603E-01
(PID.TID 0000.0001) %MON advcfl_vvel_max              =   0.0000000000000E+00
(PID.TID 0000.0001) %MON advcfl_wvel_max              =   3.7516704582717E-01
(PID.TID 0000.0001) %MON advcfl_W_hf_max              =   5.2233158248603E-01
(PID.TID 0000.0001) %MON ke_max                       =   9.3053145550573E+00
(PID.TID 0000.0001) %MON ke_mean                      =   2.2659862631352E+00
(PID.TID 0000.0001) %MON ke_volint                    =   6.7678097910823E+14
(PID.TID 0000.0001) %MON ke_volmean                   =   2.2559365970274E+00
(PID.TID 0000.0001) %MON ke_vol                       =   3.0000000000000E+14
(PID.TID 0000.0001) %MON surf_Corr_theta_mean         =  -5.7654259198330E-10
(PID.TID 0000.0001) %MON surf_Corr_salt_mean          =   0.0000000000000E+00
(PID.TID 0000.0001) // =======================================================
(PID.TID 0000.0001) // End MONITOR dynamic field statistics
(PID.TID 0000.0001) // =======================================================
(PID.TID 0000.0001) // =======================================================
(PID.TID 0000.0001) // Begin MONITOR dynamic field statistics
(PID.TID 0000.0001) // =======================================================
(PID.TID 0000.0001) %MON time_tsnumber                =                    90
(PID.TID 0000.0001) %MON time_secondsf                =   1.0800000000000E+05
(PID.TID 0000.0001) %MON dynstat_eta_max              =   0.0000000000000E+00
(PID.TID 0000.0001) %MON dynstat_eta_min              =   0.0000000000000E+00
(PID.TID 0000.0001) %MON dynstat_eta_mean             =   0.0000000000000E+00
(PID.TID 0000.0001) %MON dynstat_eta_sd               =   0.0000000000000E+00
(PID.TID 0000.0001) %MON dynstat_eta_del2             =   0.0000000000000E+00
(PID.TID 0000.0001) %MON dynstat_uvel_max             =   4.3197753672207E+00
(PID.TID 0000.0001) %MON dynstat_uvel_min             =  -4.3527631873836E+00
(PID.TID 0000.0001) %MON dynstat_uvel_mean            =  -7.6475848677465E-08
(PID.TID 0000.0001) %MON dynstat_uvel_sd              =   2.1585693277988E+00
(PID.TID 0000.0001) %MON dynstat_uvel_del2            =   2.7401062341960E-02
(PID.TID 0000.0001) %MON dynstat_vvel_max             =   0.0000000000000E+00
(PID.TID 0000.0001) %MON dynstat_vvel_min             =   0.0000000000000E+00
(PID.TID 0000.0001) %MON dynstat_vvel_mean            =   0.0000000000000E+00
(PID.TID 0000.0001) %MON dynstat_vvel_sd              =   0.0000000000000E+00
(PID.TID 0000.0001) %MON dynstat_vvel_del2            =   0.0000000000000E+00
(PID.TID 0000.0001) %MON dynstat_wvel_max             =   3.1228323487082E+00
(PID.TID 0000.0001) %MON dynstat_wvel_min             =  -3.1263920485598E+00
(PID.TID 0000.0001) %MON dynstat_wvel_mean            =   1.2267524997393E-16
(PID.TID 0000.0001) %MON dynstat_wvel_sd              =   1.6826182747796E+00
(PID.TID 0000.0001) %MON dynstat_wvel_del2            =   9.2304988706489E-02
(PID.TID 0000.0001) %MON dynstat_theta_max            =   1.0537546472866E-01
(PID.TID 0000.0001) %MON dynstat_theta_min            =   1.6140496608014E-09
(PID.TID 0000.0001) %MON dynstat_theta_mean           =   1.7623652885673E-02
(PID.TID 0000.0001) %MON dynstat_theta_sd             =   2.7002945162576E-02
(PID.TID 0000.0001) %MON dynstat_theta_del2           =   2.2593143790844E-03
(PID.TID 0000.0001) %MON dynstat_salt_max             =   0.0000000000000E+00
(PID.TID 0000.0001) %MON dynstat_salt_min             =   0.0000000000000E+00
(PID.TID 0000.0001) %MON dynstat_salt_mean            =   0.0000000000000E+00
(PID.TID 0000.0001) %MON dynstat_salt_sd              =   0.0000000000000E+00
(PID.TID 0000.0001) %MON dynstat_salt_del2            =   0.0000000000000E+00
(PID.TID 0000.0001) %MON advcfl_uvel_max              =   5.2233158248603E-01
(PID.TID 0000.0001) %MON advcfl_vvel_max              =   0.0000000000000E+00
(PID.TID 0000.0001) %MON advcfl_wvel_max              =   3.7516704582717E-01
(PID.TID 0000.0001) %MON advcfl_W_hf_max              =   5.2233158248603E-01
(PID.TID 0000.0001) %MON ke_max                       =   9.3053145550573E+00
(PID.TID 0000.0001) %MON ke_mean                      =   2.2659862631352E+00
(PID.TID 0000.0001) %MON ke_volint                    =   6.7678097910823E+14
(PID.TID 0000.0001) %MON ke_volmean                   =   2.2559365970274E+00
(PID.TID 0000.0001) %MON ke_vol                       =   3.0000000000000E+14
(PID.TID 0000.0001) %MON surf_Corr_theta_mean         =  -2.6110506400550E-10
(PID.TID 0000.0001) %MON surf_Corr_salt_mean          =   0.0000000000000E+00
(PID.TID 0000.0001) // =======================================================
(PID.TID 0000.0001) // End MONITOR dynamic field statistics
(PID.TID 0000.0001) // =======================================================
(PID.TID 0000.0001) // =======================================================
(PID.TID 0000.0001) // Begin MONITOR dynamic field statistics
(PID.TID 0000.0001) // =======================================================
(PID.TID 0000.0001) %MON time_tsnumber                =                   100
(PID.TID 0000.0001) %MON time_secondsf                =   1.2000000000000E+05
(PID.TID 0000.0001) %MON dynstat_eta_max              =   0.0000000000000E+00
(PID.TID 0000.0001) %MON dynstat_eta_min              =   0.0000000000000E+00
(PID.TID 0000.0001) %MON dynstat_eta_mean             =   0.0000000000000E+00
(PID.TID 0000.0001) %MON dynstat_eta_sd               =   0.0000000000000E+00
(PID.TID 0000.0001) %MON dynstat_eta_del2             =   0.0000000000000E+00
(PID.TID 0000.0001) %MON dynstat_uvel_max             =   4.3197753672207E+00
(PID.TID 0000.0001) %MON dynstat_uvel_min             =  -4.3527631873836E+00
(PID.TID 0000.0001) %MON dynstat_uvel_mean            =  -7.6475848677465E-08
(PID.TID 0000.0001) %MON dynstat_uvel_sd              =   2.1585693277988E+00
(PID.TID 0000.0001) %MON dynstat_uvel_del2            =   2.7401062341960E-02
(PID.TID 0000.0001) %MON dynstat_vvel_max             =   0.0000000000000E+00
(PID.TID 0000.0001) %MON dynstat_vvel_min             =   0.0000000000000E+00
(PID.TID 0000.0001) %MON dynstat_vvel_mean            =   0.0000000000000E+00
(PID.TID 0000.0001) %MON dynstat_vvel_sd              =   0.0000000000000E+00
(PID.TID 0000.0001) %MON dynstat_vvel_del2            =   0.0000000000000E+00
(PID.TID 0000.0001) %MON dynstat_wvel_max             =   3.1228323487082E+00
(PID.TID 0000.0001) %MON dynstat_wvel_min             =  -3.1263920485598E+00
(PID.TID 0000.0001) %MON dynstat_wvel_mean            =   1.2267524997393E-16
(PID.TID 0000.0001) %MON dynstat_wvel_sd              =   1.6826182747796E+00
(PID.TID 0000.0001) %MON dynstat_wvel_del2            =   9.2304988706489E-02
(PID.TID 0000.0001) %MON dynstat_theta_max            =   1.0188092947608E-01
(PID.TID 0000.0001) %MON dynstat_theta_min            =   2.4004236909700E-09
(PID.TID 0000.0001) %MON dynstat_theta_mean           =   1.7623652900616E-02
(PID.TID 0000.0001) %MON dynstat_theta_sd             =   2.5749473331660E-02
(PID.TID 0000.0001) %MON dynstat_theta_del2           =   2.0848037022631E-03
(PID.TID 0000.0001) %MON dynstat_salt_max             =   0.0000000000000E+00
(PID.TID 0000.0001) %MON dynstat_salt_min             =   0.0000000000000E+00
(PID.TID 0000.0001) %MON dynstat_salt_mean            =   0.0000000000000E+00
(PID.TID 0000.0001) %MON dynstat_salt_sd              =   0.0000000000000E+00
(PID.TID 0000.0001) %MON dynstat_salt_del2            =   0.0000000000000E+00
(PID.TID 0000.0001) %MON advcfl_uvel_max              =   5.2233158248603E-01
(PID.TID 0000.0001) %MON advcfl_vvel_max              =   0.0000000000000E+00
(PID.TID 0000.0001) %MON advcfl_wvel_max              =   3.7516704582717E-01
(PID.TID 0000.0001) %MON advcfl_W_hf_max              =   5.2233158248603E-01
(PID.TID 0000.0001) %MON ke_max                       =   9.3053145550573E+00
(PID.TID 0000.0001) %MON ke_mean                      =   2.2659862631352E+00
(PID.TID 0000.0001) %MON ke_volint                    =   6.7678097910823E+14
(PID.TID 0000.0001) %MON ke_volmean                   =   2.2559365970274E+00
(PID.TID 0000.0001) %MON ke_vol                       =   3.0000000000000E+14
(PID.TID 0000.0001) %MON surf_Corr_theta_mean         =  -1.1733424311644E-10
(PID.TID 0000.0001) %MON surf_Corr_salt_mean          =   0.0000000000000E+00
(PID.TID 0000.0001) // =======================================================
(PID.TID 0000.0001) // End MONITOR dynamic field statistics
(PID.TID 0000.0001) // =======================================================
(PID.TID 0000.0001) // =======================================================
(PID.TID 0000.0001) // Begin MONITOR dynamic field statistics
(PID.TID 0000.0001) // =======================================================
(PID.TID 0000.0001) %MON time_tsnumber                =                   110
(PID.TID 0000.0001) %MON time_secondsf                =   1.3200000000000E+05
(PID.TID 0000.0001) %MON dynstat_eta_max              =   0.0000000000000E+00
(PID.TID 0000.0001) %MON dynstat_eta_min              =   0.0000000000000E+00
(PID.TID 0000.0001) %MON dynstat_eta_mean             =   0.0000000000000E+00
(PID.TID 0000.0001) %MON dynstat_eta_sd               =   0.0000000000000E+00
(PID.TID 0000.0001) %MON dynstat_eta_del2             =   0.0000000000000E+00
(PID.TID 0000.0001) %MON dynstat_uvel_max             =   4.3197753672207E+00
(PID.TID 0000.0001) %MON dynstat_uvel_min             =  -4.3527631873836E+00
(PID.TID 0000.0001) %MON dynstat_uvel_mean            =  -7.6475848677465E-08
(PID.TID 0000.0001) %MON dynstat_uvel_sd              =   2.1585693277988E+00
(PID.TID 0000.0001) %MON dynstat_uvel_del2            =   2.7401062341960E-02
(PID.TID 0000.0001) %MON dynstat_vvel_max             =   0.0000000000000E+00
(PID.TID 0000.0001) %MON dynstat_vvel_min             =   0.0000000000000E+00
(PID.TID 0000.0001) %MON dynstat_vvel_mean            =   0.0000000000000E+00
(PID.TID 0000.0001) %MON dynstat_vvel_sd              =   0.0000000000000E+00
(PID.TID 0000.0001) %MON dynstat_vvel_del2            =   0.0000000000000E+00
(PID.TID 0000.0001) %MON dynstat_wvel_max             =   3.1228323487082E+00
(PID.TID 0000.0001) %MON dynstat_wvel_min             =  -3.1263920485598E+00
(PID.TID 0000.0001) %MON dynstat_wvel_mean            =   1.2267524997393E-16
(PID.TID 0000.0001) %MON dynstat_wvel_sd              =   1.6826182747796E+00
(PID.TID 0000.0001) %MON dynstat_wvel_del2            =   9.2304988706489E-02
(PID.TID 0000.0001) %MON dynstat_theta_max            =   9.3894011806307E-02
(PID.TID 0000.0001) %MON dynstat_theta_min            =   1.0492839528811E-08
(PID.TID 0000.0001) %MON dynstat_theta_mean           =   1.7623652907380E-02
(PID.TID 0000.0001) %MON dynstat_theta_sd             =   2.4338335306320E-02
(PID.TID 0000.0001) %MON dynstat_theta_del2           =   1.9314606273800E-03
(PID.TID 0000.0001) %MON dynstat_salt_max             =   0.0000000000000E+00
(PID.TID 0000.0001) %MON dynstat_salt_min             =   0.0000000000000E+00
(PID.TID 0000.0001) %MON dynstat_salt_mean            =   0.0000000000000E+00
(PID.TID 0000.0001) %MON dynstat_salt_sd              =   0.0000000000000E+00
(PID.TID 0000.0001) %MON dynstat_salt_del2            =   0.0000000000000E+00
(PID.TID 0000.0001) %MON advcfl_uvel_max              =   5.2233158248603E-01
(PID.TID 0000.0001) %MON advcfl_vvel_max              =   0.0000000000000E+00
(PID.TID 0000.0001) %MON advcfl_wvel_max              =   3.7516704582717E-01
(PID.TID 0000.0001) %MON advcfl_W_hf_max              =   5.2233158248603E-01
(PID.TID 0000.0001) %MON ke_max                       =   9.3053145550573E+00
(PID.TID 0000.0001) %MON ke_mean                      =   2.2659862631352E+00
(PID.TID 0000.0001) %MON ke_volint                    =   6.7678097910823E+14
(PID.TID 0000.0001) %MON ke_volmean                   =   2.2559365970274E+00
(PID.TID 0000.0001) %MON ke_vol                       =   3.0000000000000E+14
(PID.TID 0000.0001) %MON surf_Corr_theta_mean         =  -5.3722450506212E-11
(PID.TID 0000.0001) %MON surf_Corr_salt_mean          =   0.0000000000000E+00
(PID.TID 0000.0001) // =======================================================
(PID.TID 0000.0001) // End MONITOR dynamic field statistics
(PID.TID 0000.0001) // =======================================================
(PID.TID 0000.0001) // =======================================================
(PID.TID 0000.0001) // Begin MONITOR dynamic field statistics
(PID.TID 0000.0001) // =======================================================
(PID.TID 0000.0001) %MON time_tsnumber                =                   120
(PID.TID 0000.0001) %MON time_secondsf                =   1.4400000000000E+05
(PID.TID 0000.0001) %MON dynstat_eta_max              =   0.0000000000000E+00
(PID.TID 0000.0001) %MON dynstat_eta_min              =   0.0000000000000E+00
(PID.TID 0000.0001) %MON dynstat_eta_mean             =   0.0000000000000E+00
(PID.TID 0000.0001) %MON dynstat_eta_sd               =   0.0000000000000E+00
(PID.TID 0000.0001) %MON dynstat_eta_del2             =   0.0000000000000E+00
(PID.TID 0000.0001) %MON dynstat_uvel_max             =   4.3197753672207E+00
(PID.TID 0000.0001) %MON dynstat_uvel_min             =  -4.3527631873836E+00
(PID.TID 0000.0001) %MON dynstat_uvel_mean            =  -7.6475848677465E-08
(PID.TID 0000.0001) %MON dynstat_uvel_sd              =   2.1585693277988E+00
(PID.TID 0000.0001) %MON dynstat_uvel_del2            =   2.7401062341960E-02
(PID.TID 0000.0001) %MON dynstat_vvel_max             =   0.0000000000000E+00
(PID.TID 0000.0001) %MON dynstat_vvel_min             =   0.0000000000000E+00
(PID.TID 0000.0001) %MON dynstat_vvel_mean            =   0.0000000000000E+00
(PID.TID 0000.0001) %MON dynstat_vvel_sd              =   0.0000000000000E+00
(PID.TID 0000.0001) %MON dynstat_vvel_del2            =   0.0000000000000E+00
(PID.TID 0000.0001) %MON dynstat_wvel_max             =   3.1228323487082E+00
(PID.TID 0000.0001) %MON dynstat_wvel_min             =  -3.1263920485598E+00
(PID.TID 0000.0001) %MON dynstat_wvel_mean            =   1.2267524997393E-16
(PID.TID 0000.0001) %MON dynstat_wvel_sd              =   1.6826182747796E+00
(PID.TID 0000.0001) %MON dynstat_wvel_del2            =   9.2304988706489E-02
(PID.TID 0000.0001) %MON dynstat_theta_max            =   8.3334374318383E-02
(PID.TID 0000.0001) %MON dynstat_theta_min            =   1.6394492990703E-07
(PID.TID 0000.0001) %MON dynstat_theta_mean           =   1.7623652910494E-02
(PID.TID 0000.0001) %MON dynstat_theta_sd             =   2.2845891506145E-02
(PID.TID 0000.0001) %MON dynstat_theta_del2           =   1.7456040164120E-03
(PID.TID 0000.0001) %MON dynstat_salt_max             =   0.0000000000000E+00
(PID.TID 0000.0001) %MON dynstat_salt_min             =   0.0000000000000E+00
(PID.TID 0000.0001) %MON dynstat_salt_mean            =   0.0000000000000E+00
(PID.TID 0000.0001) %MON dynstat_salt_sd              =   0.0000000000000E+00
(PID.TID 0000.0001) %MON dynstat_salt_del2            =   0.0000000000000E+00
(PID.TID 0000.0001) %MON advcfl_uvel_max              =   5.2233158248603E-01
(PID.TID 0000.0001) %MON advcfl_vvel_max              =   0.0000000000000E+00
(PID.TID 0000.0001) %MON advcfl_wvel_max              =   3.7516704582717E-01
(PID.TID 0000.0001) %MON advcfl_W_hf_max              =   5.2233158248603E-01
(PID.TID 0000.0001) %MON ke_max                       =   9.3053145550573E+00
(PID.TID 0000.0001) %MON ke_mean                      =   2.2659862631352E+00
(PID.TID 0000.0001) %MON ke_volint                    =   6.7678097910823E+14
(PID.TID 0000.0001) %MON ke_volmean                   =   2.2559365970274E+00
(PID.TID 0000.0001) %MON ke_vol                       =   3.0000000000000E+14
(PID.TID 0000.0001) %MON surf_Corr_theta_mean         =  -2.4694784319875E-11
(PID.TID 0000.0001) %MON surf_Corr_salt_mean          =   0.0000000000000E+00
(PID.TID 0000.0001) // =======================================================
(PID.TID 0000.0001) // End MONITOR dynamic field statistics
(PID.TID 0000.0001) // =======================================================
(PID.TID 0000.0001) // =======================================================
(PID.TID 0000.0001) // Begin MONITOR dynamic field statistics
(PID.TID 0000.0001) // =======================================================
(PID.TID 0000.0001) %MON time_tsnumber                =                   130
(PID.TID 0000.0001) %MON time_secondsf                =   1.5600000000000E+05
(PID.TID 0000.0001) %MON dynstat_eta_max              =   0.0000000000000E+00
(PID.TID 0000.0001) %MON dynstat_eta_min              =   0.0000000000000E+00
(PID.TID 0000.0001) %MON dynstat_eta_mean             =   0.0000000000000E+00
(PID.TID 0000.0001) %MON dynstat_eta_sd               =   0.0000000000000E+00
(PID.TID 0000.0001) %MON dynstat_eta_del2             =   0.0000000000000E+00
(PID.TID 0000.0001) %MON dynstat_uvel_max             =   4.3197753672207E+00
(PID.TID 0000.0001) %MON dynstat_uvel_min             =  -4.3527631873836E+00
(PID.TID 0000.0001) %MON dynstat_uvel_mean            =  -7.6475848677465E-08
(PID.TID 0000.0001) %MON dynstat_uvel_sd              =   2.1585693277988E+00
(PID.TID 0000.0001) %MON dynstat_uvel_del2            =   2.7401062341960E-02
(PID.TID 0000.0001) %MON dynstat_vvel_max             =   0.0000000000000E+00
(PID.TID 0000.0001) %MON dynstat_vvel_min             =   0.0000000000000E+00
(PID.TID 0000.0001) %MON dynstat_vvel_mean            =   0.0000000000000E+00
(PID.TID 0000.0001) %MON dynstat_vvel_sd              =   0.0000000000000E+00
(PID.TID 0000.0001) %MON dynstat_vvel_del2            =   0.0000000000000E+00
(PID.TID 0000.0001) %MON dynstat_wvel_max             =   3.1228323487082E+00
(PID.TID 0000.0001) %MON dynstat_wvel_min             =  -3.1263920485598E+00
(PID.TID 0000.0001) %MON dynstat_wvel_mean            =   1.2267524997393E-16
(PID.TID 0000.0001) %MON dynstat_wvel_sd              =   1.6826182747796E+00
(PID.TID 0000.0001) %MON dynstat_wvel_del2            =   9.2304988706489E-02
(PID.TID 0000.0001) %MON dynstat_theta_max            =   7.6818834314222E-02
(PID.TID 0000.0001) %MON dynstat_theta_min            =   5.0983525252702E-06
(PID.TID 0000.0001) %MON dynstat_theta_mean           =   1.7623652911704E-02
(PID.TID 0000.0001) %MON dynstat_theta_sd             =   2.1362676680267E-02
(PID.TID 0000.0001) %MON dynstat_theta_del2           =   1.6527685829326E-03
(PID.TID 0000.0001) %MON dynstat_salt_max             =   0.0000000000000E+00
(PID.TID 0000.0001) %MON dynstat_salt_min             =   0.0000000000000E+00
(PID.TID 0000.0001) %MON dynstat_salt_mean            =   0.0000000000000E+00
(PID.TID 0000.0001) %MON dynstat_salt_sd              =   0.0000000000000E+00
(PID.TID 0000.0001) %MON dynstat_salt_del2            =   0.0000000000000E+00
(PID.TID 0000.0001) %MON advcfl_uvel_max              =   5.2233158248603E-01
(PID.TID 0000.0001) %MON advcfl_vvel_max              =   0.0000000000000E+00
(PID.TID 0000.0001) %MON advcfl_wvel_max              =   3.7516704582717E-01
(PID.TID 0000.0001) %MON advcfl_W_hf_max              =   5.2233158248603E-01
(PID.TID 0000.0001) %MON ke_max                       =   9.3053145550573E+00
(PID.TID 0000.0001) %MON ke_mean                      =   2.2659862631352E+00
(PID.TID 0000.0001) %MON ke_volint                    =   6.7678097910823E+14
(PID.TID 0000.0001) %MON ke_volmean                   =   2.2559365970274E+00
(PID.TID 0000.0001) %MON ke_vol                       =   3.0000000000000E+14
(PID.TID 0000.0001) %MON surf_Corr_theta_mean         =   1.2217232246842E-12
(PID.TID 0000.0001) %MON surf_Corr_salt_mean          =   0.0000000000000E+00
(PID.TID 0000.0001) // =======================================================
(PID.TID 0000.0001) // End MONITOR dynamic field statistics
(PID.TID 0000.0001) // =======================================================
(PID.TID 0000.0001) // =======================================================
(PID.TID 0000.0001) // Begin MONITOR dynamic field statistics
(PID.TID 0000.0001) // =======================================================
(PID.TID 0000.0001) %MON time_tsnumber                =                   140
(PID.TID 0000.0001) %MON time_secondsf                =   1.6800000000000E+05
(PID.TID 0000.0001) %MON dynstat_eta_max              =   0.0000000000000E+00
(PID.TID 0000.0001) %MON dynstat_eta_min              =   0.0000000000000E+00
(PID.TID 0000.0001) %MON dynstat_eta_mean             =   0.0000000000000E+00
(PID.TID 0000.0001) %MON dynstat_eta_sd               =   0.0000000000000E+00
(PID.TID 0000.0001) %MON dynstat_eta_del2             =   0.0000000000000E+00
(PID.TID 0000.0001) %MON dynstat_uvel_max             =   4.3197753672207E+00
(PID.TID 0000.0001) %MON dynstat_uvel_min             =  -4.3527631873836E+00
(PID.TID 0000.0001) %MON dynstat_uvel_mean            =  -7.6475848677465E-08
(PID.TID 0000.0001) %MON dynstat_uvel_sd              =   2.1585693277988E+00
(PID.TID 0000.0001) %MON dynstat_uvel_del2            =   2.7401062341960E-02
(PID.TID 0000.0001) %MON dynstat_vvel_max             =   0.0000000000000E+00
(PID.TID 0000.0001) %MON dynstat_vvel_min             =   0.0000000000000E+00
(PID.TID 0000.0001) %MON dynstat_vvel_mean            =   0.0000000000000E+00
(PID.TID 0000.0001) %MON dynstat_vvel_sd              =   0.0000000000000E+00
(PID.TID 0000.0001) %MON dynstat_vvel_del2            =   0.0000000000000E+00
(PID.TID 0000.0001) %MON dynstat_wvel_max             =   3.1228323487082E+00
(PID.TID 0000.0001) %MON dynstat_wvel_min             =  -3.1263920485598E+00
(PID.TID 0000.0001) %MON dynstat_wvel_mean            =   1.2267524997393E-16
(PID.TID 0000.0001) %MON dynstat_wvel_sd              =   1.6826182747796E+00
(PID.TID 0000.0001) %MON dynstat_wvel_del2            =   9.2304988706489E-02
(PID.TID 0000.0001) %MON dynstat_theta_max            =   7.2888246094688E-02
(PID.TID 0000.0001) %MON dynstat_theta_min            =   7.6380171552485E-06
(PID.TID 0000.0001) %MON dynstat_theta_mean           =   1.7623652910843E-02
(PID.TID 0000.0001) %MON dynstat_theta_sd             =   2.0012193516638E-02
(PID.TID 0000.0001) %MON dynstat_theta_del2           =   1.6770869005425E-03
(PID.TID 0000.0001) %MON dynstat_salt_max             =   0.0000000000000E+00
(PID.TID 0000.0001) %MON dynstat_salt_min             =   0.0000000000000E+00
(PID.TID 0000.0001) %MON dynstat_salt_mean            =   0.0000000000000E+00
(PID.TID 0000.0001) %MON dynstat_salt_sd              =   0.0000000000000E+00
(PID.TID 0000.0001) %MON dynstat_salt_del2            =   0.0000000000000E+00
(PID.TID 0000.0001) %MON advcfl_uvel_max              =   5.2233158248603E-01
(PID.TID 0000.0001) %MON advcfl_vvel_max              =   0.0000000000000E+00
(PID.TID 0000.0001) %MON advcfl_wvel_max              =   3.7516704582717E-01
(PID.TID 0000.0001) %MON advcfl_W_hf_max              =   5.2233158248603E-01
(PID.TID 0000.0001) %MON ke_max                       =   9.3053145550573E+00
(PID.TID 0000.0001) %MON ke_mean                      =   2.2659862631352E+00
(PID.TID 0000.0001) %MON ke_volint                    =   6.7678097910823E+14
(PID.TID 0000.0001) %MON ke_volmean                   =   2.2559365970274E+00
(PID.TID 0000.0001) %MON ke_vol                       =   3.0000000000000E+14
(PID.TID 0000.0001) %MON surf_Corr_theta_mean         =   1.2775194352324E-11
(PID.TID 0000.0001) %MON surf_Corr_salt_mean          =   0.0000000000000E+00
(PID.TID 0000.0001) // =======================================================
(PID.TID 0000.0001) // End MONITOR dynamic field statistics
(PID.TID 0000.0001) // =======================================================
(PID.TID 0000.0001) // =======================================================
(PID.TID 0000.0001) // Begin MONITOR dynamic field statistics
(PID.TID 0000.0001) // =======================================================
(PID.TID 0000.0001) %MON time_tsnumber                =                   150
(PID.TID 0000.0001) %MON time_secondsf                =   1.8000000000000E+05
(PID.TID 0000.0001) %MON dynstat_eta_max              =   0.0000000000000E+00
(PID.TID 0000.0001) %MON dynstat_eta_min              =   0.0000000000000E+00
(PID.TID 0000.0001) %MON dynstat_eta_mean             =   0.0000000000000E+00
(PID.TID 0000.0001) %MON dynstat_eta_sd               =   0.0000000000000E+00
(PID.TID 0000.0001) %MON dynstat_eta_del2             =   0.0000000000000E+00
(PID.TID 0000.0001) %MON dynstat_uvel_max             =   4.3197753672207E+00
(PID.TID 0000.0001) %MON dynstat_uvel_min             =  -4.3527631873836E+00
(PID.TID 0000.0001) %MON dynstat_uvel_mean            =  -7.6475848677465E-08
(PID.TID 0000.0001) %MON dynstat_uvel_sd              =   2.1585693277988E+00
(PID.TID 0000.0001) %MON dynstat_uvel_del2            =   2.7401062341960E-02
(PID.TID 0000.0001) %MON dynstat_vvel_max             =   0.0000000000000E+00
(PID.TID 0000.0001) %MON dynstat_vvel_min             =   0.0000000000000E+00
(PID.TID 0000.0001) %MON dynstat_vvel_mean            =   0.0000000000000E+00
(PID.TID 0000.0001) %MON dynstat_vvel_sd              =   0.0000000000000E+00
(PID.TID 0000.0001) %MON dynstat_vvel_del2            =   0.0000000000000E+00
(PID.TID 0000.0001) %MON dynstat_wvel_max             =   3.1228323487082E+00
(PID.TID 0000.0001) %MON dynstat_wvel_min             =  -3.1263920485598E+00
(PID.TID 0000.0001) %MON dynstat_wvel_mean            =   1.2267524997393E-16
(PID.TID 0000.0001) %MON dynstat_wvel_sd              =   1.6826182747796E+00
(PID.TID 0000.0001) %MON dynstat_wvel_del2            =   9.2304988706489E-02
(PID.TID 0000.0001) %MON dynstat_theta_max            =   6.9468537885486E-02
(PID.TID 0000.0001) %MON dynstat_theta_min            =   1.4150749598680E-05
(PID.TID 0000.0001) %MON dynstat_theta_mean           =   1.7623652911384E-02
(PID.TID 0000.0001) %MON dynstat_theta_sd             =   1.8286348786014E-02
(PID.TID 0000.0001) %MON dynstat_theta_del2           =   1.6811284516423E-03
(PID.TID 0000.0001) %MON dynstat_salt_max             =   0.0000000000000E+00
(PID.TID 0000.0001) %MON dynstat_salt_min             =   0.0000000000000E+00
(PID.TID 0000.0001) %MON dynstat_salt_mean            =   0.0000000000000E+00
(PID.TID 0000.0001) %MON dynstat_salt_sd              =   0.0000000000000E+00
(PID.TID 0000.0001) %MON dynstat_salt_del2            =   0.0000000000000E+00
(PID.TID 0000.0001) %MON advcfl_uvel_max              =   5.2233158248603E-01
(PID.TID 0000.0001) %MON advcfl_vvel_max              =   0.0000000000000E+00
(PID.TID 0000.0001) %MON advcfl_wvel_max              =   3.7516704582717E-01
(PID.TID 0000.0001) %MON advcfl_W_hf_max              =   5.2233158248603E-01
(PID.TID 0000.0001) %MON ke_max                       =   9.3053145550573E+00
(PID.TID 0000.0001) %MON ke_mean                      =   2.2659862631352E+00
(PID.TID 0000.0001) %MON ke_volint                    =   6.7678097910823E+14
(PID.TID 0000.0001) %MON ke_volmean                   =   2.2559365970274E+00
(PID.TID 0000.0001) %MON ke_vol                       =   3.0000000000000E+14
(PID.TID 0000.0001) %MON surf_Corr_theta_mean         =  -4.8077592969032E-11
(PID.TID 0000.0001) %MON surf_Corr_salt_mean          =   0.0000000000000E+00
(PID.TID 0000.0001) // =======================================================
(PID.TID 0000.0001) // End MONITOR dynamic field statistics
(PID.TID 0000.0001) // =======================================================
(PID.TID 0000.0001) // =======================================================
(PID.TID 0000.0001) // Begin MONITOR dynamic field statistics
(PID.TID 0000.0001) // =======================================================
(PID.TID 0000.0001) %MON time_tsnumber                =                   160
(PID.TID 0000.0001) %MON time_secondsf                =   1.9200000000000E+05
(PID.TID 0000.0001) %MON dynstat_eta_max              =   0.0000000000000E+00
(PID.TID 0000.0001) %MON dynstat_eta_min              =   0.0000000000000E+00
(PID.TID 0000.0001) %MON dynstat_eta_mean             =   0.0000000000000E+00
(PID.TID 0000.0001) %MON dynstat_eta_sd               =   0.0000000000000E+00
(PID.TID 0000.0001) %MON dynstat_eta_del2             =   0.0000000000000E+00
(PID.TID 0000.0001) %MON dynstat_uvel_max             =   4.3197753672207E+00
(PID.TID 0000.0001) %MON dynstat_uvel_min             =  -4.3527631873836E+00
(PID.TID 0000.0001) %MON dynstat_uvel_mean            =  -7.6475848677465E-08
(PID.TID 0000.0001) %MON dynstat_uvel_sd              =   2.1585693277988E+00
(PID.TID 0000.0001) %MON dynstat_uvel_del2            =   2.7401062341960E-02
(PID.TID 0000.0001) %MON dynstat_vvel_max             =   0.0000000000000E+00
(PID.TID 0000.0001) %MON dynstat_vvel_min             =   0.0000000000000E+00
(PID.TID 0000.0001) %MON dynstat_vvel_mean            =   0.0000000000000E+00
(PID.TID 0000.0001) %MON dynstat_vvel_sd              =   0.0000000000000E+00
(PID.TID 0000.0001) %MON dynstat_vvel_del2            =   0.0000000000000E+00
(PID.TID 0000.0001) %MON dynstat_wvel_max             =   3.1228323487082E+00
(PID.TID 0000.0001) %MON dynstat_wvel_min             =  -3.1263920485598E+00
(PID.TID 0000.0001) %MON dynstat_wvel_mean            =   1.2267524997393E-16
(PID.TID 0000.0001) %MON dynstat_wvel_sd              =   1.6826182747796E+00
(PID.TID 0000.0001) %MON dynstat_wvel_del2            =   9.2304988706489E-02
(PID.TID 0000.0001) %MON dynstat_theta_max            =   6.1095950297876E-02
(PID.TID 0000.0001) %MON dynstat_theta_min            =   1.5779902095395E-05
(PID.TID 0000.0001) %MON dynstat_theta_mean           =   1.7623652919257E-02
(PID.TID 0000.0001) %MON dynstat_theta_sd             =   1.6626720661197E-02
(PID.TID 0000.0001) %MON dynstat_theta_del2           =   1.7575578671890E-03
(PID.TID 0000.0001) %MON dynstat_salt_max             =   0.0000000000000E+00
(PID.TID 0000.0001) %MON dynstat_salt_min             =   0.0000000000000E+00
(PID.TID 0000.0001) %MON dynstat_salt_mean            =   0.0000000000000E+00
(PID.TID 0000.0001) %MON dynstat_salt_sd              =   0.0000000000000E+00
(PID.TID 0000.0001) %MON dynstat_salt_del2            =   0.0000000000000E+00
(PID.TID 0000.0001) %MON advcfl_uvel_max              =   5.2233158248603E-01
(PID.TID 0000.0001) %MON advcfl_vvel_max              =   0.0000000000000E+00
(PID.TID 0000.0001) %MON advcfl_wvel_max              =   3.7516704582717E-01
(PID.TID 0000.0001) %MON advcfl_W_hf_max              =   5.2233158248603E-01
(PID.TID 0000.0001) %MON ke_max                       =   9.3053145550573E+00
(PID.TID 0000.0001) %MON ke_mean                      =   2.2659862631352E+00
(PID.TID 0000.0001) %MON ke_volint                    =   6.7678097910823E+14
(PID.TID 0000.0001) %MON ke_volmean                   =   2.2559365970274E+00
(PID.TID 0000.0001) %MON ke_vol                       =   3.0000000000000E+14
(PID.TID 0000.0001) %MON surf_Corr_theta_mean         =  -1.5871377480334E-10
(PID.TID 0000.0001) %MON surf_Corr_salt_mean          =   0.0000000000000E+00
(PID.TID 0000.0001) // =======================================================
(PID.TID 0000.0001) // End MONITOR dynamic field statistics
(PID.TID 0000.0001) // =======================================================
(PID.TID 0000.0001) // =======================================================
(PID.TID 0000.0001) // Begin MONITOR dynamic field statistics
(PID.TID 0000.0001) // =======================================================
(PID.TID 0000.0001) %MON time_tsnumber                =                   170
(PID.TID 0000.0001) %MON time_secondsf                =   2.0400000000000E+05
(PID.TID 0000.0001) %MON dynstat_eta_max              =   0.0000000000000E+00
(PID.TID 0000.0001) %MON dynstat_eta_min              =   0.0000000000000E+00
(PID.TID 0000.0001) %MON dynstat_eta_mean             =   0.0000000000000E+00
(PID.TID 0000.0001) %MON dynstat_eta_sd               =   0.0000000000000E+00
(PID.TID 0000.0001) %MON dynstat_eta_del2             =   0.0000000000000E+00
(PID.TID 0000.0001) %MON dynstat_uvel_max             =   4.3197753672207E+00
(PID.TID 0000.0001) %MON dynstat_uvel_min             =  -4.3527631873836E+00
(PID.TID 0000.0001) %MON dynstat_uvel_mean            =  -7.6475848677465E-08
(PID.TID 0000.0001) %MON dynstat_uvel_sd              =   2.1585693277988E+00
(PID.TID 0000.0001) %MON dynstat_uvel_del2            =   2.7401062341960E-02
(PID.TID 0000.0001) %MON dynstat_vvel_max             =   0.0000000000000E+00
(PID.TID 0000.0001) %MON dynstat_vvel_min             =   0.0000000000000E+00
(PID.TID 0000.0001) %MON dynstat_vvel_mean            =   0.0000000000000E+00
(PID.TID 0000.0001) %MON dynstat_vvel_sd              =   0.0000000000000E+00
(PID.TID 0000.0001) %MON dynstat_vvel_del2            =   0.0000000000000E+00
(PID.TID 0000.0001) %MON dynstat_wvel_max             =   3.1228323487082E+00
(PID.TID 0000.0001) %MON dynstat_wvel_min             =  -3.1263920485598E+00
(PID.TID 0000.0001) %MON dynstat_wvel_mean            =   1.2267524997393E-16
(PID.TID 0000.0001) %MON dynstat_wvel_sd              =   1.6826182747796E+00
(PID.TID 0000.0001) %MON dynstat_wvel_del2            =   9.2304988706489E-02
(PID.TID 0000.0001) %MON dynstat_theta_max            =   5.1940217686470E-02
(PID.TID 0000.0001) %MON dynstat_theta_min            =   2.0969124456275E-05
(PID.TID 0000.0001) %MON dynstat_theta_mean           =   1.7623652934773E-02
(PID.TID 0000.0001) %MON dynstat_theta_sd             =   1.5105693139127E-02
(PID.TID 0000.0001) %MON dynstat_theta_del2           =   1.8598762117380E-03
(PID.TID 0000.0001) %MON dynstat_salt_max             =   0.0000000000000E+00
(PID.TID 0000.0001) %MON dynstat_salt_min             =   0.0000000000000E+00
(PID.TID 0000.0001) %MON dynstat_salt_mean            =   0.0000000000000E+00
(PID.TID 0000.0001) %MON dynstat_salt_sd              =   0.0000000000000E+00
(PID.TID 0000.0001) %MON dynstat_salt_del2            =   0.0000000000000E+00
(PID.TID 0000.0001) %MON advcfl_uvel_max              =   5.2233158248603E-01
(PID.TID 0000.0001) %MON advcfl_vvel_max              =   0.0000000000000E+00
(PID.TID 0000.0001) %MON advcfl_wvel_max              =   3.7516704582717E-01
(PID.TID 0000.0001) %MON advcfl_W_hf_max              =   5.2233158248603E-01
(PID.TID 0000.0001) %MON ke_max                       =   9.3053145550573E+00
(PID.TID 0000.0001) %MON ke_mean                      =   2.2659862631352E+00
(PID.TID 0000.0001) %MON ke_volint                    =   6.7678097910823E+14
(PID.TID 0000.0001) %MON ke_volmean                   =   2.2559365970274E+00
(PID.TID 0000.0001) %MON ke_vol                       =   3.0000000000000E+14
(PID.TID 0000.0001) %MON surf_Corr_theta_mean         =  -2.2100822422231E-10
(PID.TID 0000.0001) %MON surf_Corr_salt_mean          =   0.0000000000000E+00
(PID.TID 0000.0001) // =======================================================
(PID.TID 0000.0001) // End MONITOR dynamic field statistics
(PID.TID 0000.0001) // =======================================================
(PID.TID 0000.0001) // =======================================================
(PID.TID 0000.0001) // Begin MONITOR dynamic field statistics
(PID.TID 0000.0001) // =======================================================
(PID.TID 0000.0001) %MON time_tsnumber                =                   180
(PID.TID 0000.0001) %MON time_secondsf                =   2.1600000000000E+05
(PID.TID 0000.0001) %MON dynstat_eta_max              =   0.0000000000000E+00
(PID.TID 0000.0001) %MON dynstat_eta_min              =   0.0000000000000E+00
(PID.TID 0000.0001) %MON dynstat_eta_mean             =   0.0000000000000E+00
(PID.TID 0000.0001) %MON dynstat_eta_sd               =   0.0000000000000E+00
(PID.TID 0000.0001) %MON dynstat_eta_del2             =   0.0000000000000E+00
(PID.TID 0000.0001) %MON dynstat_uvel_max             =   4.3197753672207E+00
(PID.TID 0000.0001) %MON dynstat_uvel_min             =  -4.3527631873836E+00
(PID.TID 0000.0001) %MON dynstat_uvel_mean            =  -7.6475848677465E-08
(PID.TID 0000.0001) %MON dynstat_uvel_sd              =   2.1585693277988E+00
(PID.TID 0000.0001) %MON dynstat_uvel_del2            =   2.7401062341960E-02
(PID.TID 0000.0001) %MON dynstat_vvel_max             =   0.0000000000000E+00
(PID.TID 0000.0001) %MON dynstat_vvel_min             =   0.0000000000000E+00
(PID.TID 0000.0001) %MON dynstat_vvel_mean            =   0.0000000000000E+00
(PID.TID 0000.0001) %MON dynstat_vvel_sd              =   0.0000000000000E+00
(PID.TID 0000.0001) %MON dynstat_vvel_del2            =   0.0000000000000E+00
(PID.TID 0000.0001) %MON dynstat_wvel_max             =   3.1228323487082E+00
(PID.TID 0000.0001) %MON dynstat_wvel_min             =  -3.1263920485598E+00
(PID.TID 0000.0001) %MON dynstat_wvel_mean            =   1.2267524997393E-16
(PID.TID 0000.0001) %MON dynstat_wvel_sd              =   1.6826182747796E+00
(PID.TID 0000.0001) %MON dynstat_wvel_del2            =   9.2304988706489E-02
(PID.TID 0000.0001) %MON dynstat_theta_max            =   5.1019929146197E-02
(PID.TID 0000.0001) %MON dynstat_theta_min            =   2.9193686197394E-05
(PID.TID 0000.0001) %MON dynstat_theta_mean           =   1.7623652952391E-02
(PID.TID 0000.0001) %MON dynstat_theta_sd             =   1.3732857810729E-02
(PID.TID 0000.0001) %MON dynstat_theta_del2           =   1.7472777034570E-03
(PID.TID 0000.0001) %MON dynstat_salt_max             =   0.0000000000000E+00
(PID.TID 0000.0001) %MON dynstat_salt_min             =   0.0000000000000E+00
(PID.TID 0000.0001) %MON dynstat_salt_mean            =   0.0000000000000E+00
(PID.TID 0000.0001) %MON dynstat_salt_sd              =   0.0000000000000E+00
(PID.TID 0000.0001) %MON dynstat_salt_del2            =   0.0000000000000E+00
(PID.TID 0000.0001) %MON advcfl_uvel_max              =   5.2233158248603E-01
(PID.TID 0000.0001) %MON advcfl_vvel_max              =   0.0000000000000E+00
(PID.TID 0000.0001) %MON advcfl_wvel_max              =   3.7516704582717E-01
(PID.TID 0000.0001) %MON advcfl_W_hf_max              =   5.2233158248603E-01
(PID.TID 0000.0001) %MON ke_max                       =   9.3053145550573E+00
(PID.TID 0000.0001) %MON ke_mean                      =   2.2659862631352E+00
(PID.TID 0000.0001) %MON ke_volint                    =   6.7678097910823E+14
(PID.TID 0000.0001) %MON ke_volmean                   =   2.2559365970274E+00
(PID.TID 0000.0001) %MON ke_vol                       =   3.0000000000000E+14
(PID.TID 0000.0001) %MON surf_Corr_theta_mean         =  -1.9770693998491E-10
(PID.TID 0000.0001) %MON surf_Corr_salt_mean          =   0.0000000000000E+00
(PID.TID 0000.0001) // =======================================================
(PID.TID 0000.0001) // End MONITOR dynamic field statistics
(PID.TID 0000.0001) // =======================================================
(PID.TID 0000.0001) // =======================================================
(PID.TID 0000.0001) // Begin MONITOR dynamic field statistics
(PID.TID 0000.0001) // =======================================================
(PID.TID 0000.0001) %MON time_tsnumber                =                   190
(PID.TID 0000.0001) %MON time_secondsf                =   2.2800000000000E+05
(PID.TID 0000.0001) %MON dynstat_eta_max              =   0.0000000000000E+00
(PID.TID 0000.0001) %MON dynstat_eta_min              =   0.0000000000000E+00
(PID.TID 0000.0001) %MON dynstat_eta_mean             =   0.0000000000000E+00
(PID.TID 0000.0001) %MON dynstat_eta_sd               =   0.0000000000000E+00
(PID.TID 0000.0001) %MON dynstat_eta_del2             =   0.0000000000000E+00
(PID.TID 0000.0001) %MON dynstat_uvel_max             =   4.3197753672207E+00
(PID.TID 0000.0001) %MON dynstat_uvel_min             =  -4.3527631873836E+00
(PID.TID 0000.0001) %MON dynstat_uvel_mean            =  -7.6475848677465E-08
(PID.TID 0000.0001) %MON dynstat_uvel_sd              =   2.1585693277988E+00
(PID.TID 0000.0001) %MON dynstat_uvel_del2            =   2.7401062341960E-02
(PID.TID 0000.0001) %MON dynstat_vvel_max             =   0.0000000000000E+00
(PID.TID 0000.0001) %MON dynstat_vvel_min             =   0.0000000000000E+00
(PID.TID 0000.0001) %MON dynstat_vvel_mean            =   0.0000000000000E+00
(PID.TID 0000.0001) %MON dynstat_vvel_sd              =   0.0000000000000E+00
(PID.TID 0000.0001) %MON dynstat_vvel_del2            =   0.0000000000000E+00
(PID.TID 0000.0001) %MON dynstat_wvel_max             =   3.1228323487082E+00
(PID.TID 0000.0001) %MON dynstat_wvel_min             =  -3.1263920485598E+00
(PID.TID 0000.0001) %MON dynstat_wvel_mean            =   1.2267524997393E-16
(PID.TID 0000.0001) %MON dynstat_wvel_sd              =   1.6826182747796E+00
(PID.TID 0000.0001) %MON dynstat_wvel_del2            =   9.2304988706489E-02
(PID.TID 0000.0001) %MON dynstat_theta_max            =   5.0255980909383E-02
(PID.TID 0000.0001) %MON dynstat_theta_min            =   8.6018083678374E-05
(PID.TID 0000.0001) %MON dynstat_theta_mean           =   1.7623652963612E-02
(PID.TID 0000.0001) %MON dynstat_theta_sd             =   1.2514285622901E-02
(PID.TID 0000.0001) %MON dynstat_theta_del2           =   1.4527639916605E-03
(PID.TID 0000.0001) %MON dynstat_salt_max             =   0.0000000000000E+00
(PID.TID 0000.0001) %MON dynstat_salt_min             =   0.0000000000000E+00
(PID.TID 0000.0001) %MON dynstat_salt_mean            =   0.0000000000000E+00
(PID.TID 0000.0001) %MON dynstat_salt_sd              =   0.0000000000000E+00
(PID.TID 0000.0001) %MON dynstat_salt_del2            =   0.0000000000000E+00
(PID.TID 0000.0001) %MON advcfl_uvel_max              =   5.2233158248603E-01
(PID.TID 0000.0001) %MON advcfl_vvel_max              =   0.0000000000000E+00
(PID.TID 0000.0001) %MON advcfl_wvel_max              =   3.7516704582717E-01
(PID.TID 0000.0001) %MON advcfl_W_hf_max              =   5.2233158248603E-01
(PID.TID 0000.0001) %MON ke_max                       =   9.3053145550573E+00
(PID.TID 0000.0001) %MON ke_mean                      =   2.2659862631352E+00
(PID.TID 0000.0001) %MON ke_volint                    =   6.7678097910823E+14
(PID.TID 0000.0001) %MON ke_volmean                   =   2.2559365970274E+00
(PID.TID 0000.0001) %MON ke_vol                       =   3.0000000000000E+14
(PID.TID 0000.0001) %MON surf_Corr_theta_mean         =  -5.1176353426219E-11
(PID.TID 0000.0001) %MON surf_Corr_salt_mean          =   0.0000000000000E+00
(PID.TID 0000.0001) // =======================================================
(PID.TID 0000.0001) // End MONITOR dynamic field statistics
(PID.TID 0000.0001) // =======================================================
(PID.TID 0000.0001) // =======================================================
(PID.TID 0000.0001) // Begin MONITOR dynamic field statistics
(PID.TID 0000.0001) // =======================================================
(PID.TID 0000.0001) %MON time_tsnumber                =                   200
(PID.TID 0000.0001) %MON time_secondsf                =   2.4000000000000E+05
(PID.TID 0000.0001) %MON dynstat_eta_max              =   0.0000000000000E+00
(PID.TID 0000.0001) %MON dynstat_eta_min              =   0.0000000000000E+00
(PID.TID 0000.0001) %MON dynstat_eta_mean             =   0.0000000000000E+00
(PID.TID 0000.0001) %MON dynstat_eta_sd               =   0.0000000000000E+00
(PID.TID 0000.0001) %MON dynstat_eta_del2             =   0.0000000000000E+00
(PID.TID 0000.0001) %MON dynstat_uvel_max             =   4.3197753672207E+00
(PID.TID 0000.0001) %MON dynstat_uvel_min             =  -4.3527631873836E+00
(PID.TID 0000.0001) %MON dynstat_uvel_mean            =  -7.6475848677465E-08
(PID.TID 0000.0001) %MON dynstat_uvel_sd              =   2.1585693277988E+00
(PID.TID 0000.0001) %MON dynstat_uvel_del2            =   2.7401062341960E-02
(PID.TID 0000.0001) %MON dynstat_vvel_max             =   0.0000000000000E+00
(PID.TID 0000.0001) %MON dynstat_vvel_min             =   0.0000000000000E+00
(PID.TID 0000.0001) %MON dynstat_vvel_mean            =   0.0000000000000E+00
(PID.TID 0000.0001) %MON dynstat_vvel_sd              =   0.0000000000000E+00
(PID.TID 0000.0001) %MON dynstat_vvel_del2            =   0.0000000000000E+00
(PID.TID 0000.0001) %MON dynstat_wvel_max             =   3.1228323487082E+00
(PID.TID 0000.0001) %MON dynstat_wvel_min             =  -3.1263920485598E+00
(PID.TID 0000.0001) %MON dynstat_wvel_mean            =   1.2267524997393E-16
(PID.TID 0000.0001) %MON dynstat_wvel_sd              =   1.6826182747796E+00
(PID.TID 0000.0001) %MON dynstat_wvel_del2            =   9.2304988706489E-02
(PID.TID 0000.0001) %MON dynstat_theta_max            =   4.8556964714491E-02
(PID.TID 0000.0001) %MON dynstat_theta_min            =   1.1658920771843E-04
(PID.TID 0000.0001) %MON dynstat_theta_mean           =   1.7623652960583E-02
(PID.TID 0000.0001) %MON dynstat_theta_sd             =   1.1536410664258E-02
(PID.TID 0000.0001) %MON dynstat_theta_del2           =   1.1918581051539E-03
(PID.TID 0000.0001) %MON dynstat_salt_max             =   0.0000000000000E+00
(PID.TID 0000.0001) %MON dynstat_salt_min             =   0.0000000000000E+00
(PID.TID 0000.0001) %MON dynstat_salt_mean            =   0.0000000000000E+00
(PID.TID 0000.0001) %MON dynstat_salt_sd              =   0.0000000000000E+00
(PID.TID 0000.0001) %MON dynstat_salt_del2            =   0.0000000000000E+00
(PID.TID 0000.0001) %MON advcfl_uvel_max              =   5.2233158248603E-01
(PID.TID 0000.0001) %MON advcfl_vvel_max              =   0.0000000000000E+00
(PID.TID 0000.0001) %MON advcfl_wvel_max              =   3.7516704582717E-01
(PID.TID 0000.0001) %MON advcfl_W_hf_max              =   5.2233158248603E-01
(PID.TID 0000.0001) %MON ke_max                       =   9.3053145550573E+00
(PID.TID 0000.0001) %MON ke_mean                      =   2.2659862631352E+00
(PID.TID 0000.0001) %MON ke_volint                    =   6.7678097910823E+14
(PID.TID 0000.0001) %MON ke_volmean                   =   2.2559365970274E+00
(PID.TID 0000.0001) %MON ke_vol                       =   3.0000000000000E+14
(PID.TID 0000.0001) %MON surf_Corr_theta_mean         =   1.4686235743513E-10
(PID.TID 0000.0001) %MON surf_Corr_salt_mean          =   0.0000000000000E+00
(PID.TID 0000.0001) // =======================================================
(PID.TID 0000.0001) // End MONITOR dynamic field statistics
(PID.TID 0000.0001) // =======================================================
(PID.TID 0000.0001)   Seconds in section "ALL                    [THE_MODEL_MAIN]":
(PID.TID 0000.0001)           User time:  3.83999991
(PID.TID 0000.0001)         System time:  0.0900000036
(PID.TID 0000.0001)     Wall clock time:  3.93179905
(PID.TID 0000.0001)          No. starts: 1
(PID.TID 0000.0001)           No. stops: 1
(PID.TID 0000.0001)   Seconds in section "INITIALISE_FIXED       [THE_MODEL_MAIN]":
(PID.TID 0000.0001)           User time:  0.0599999987
(PID.TID 0000.0001)         System time:  0.0199999996
(PID.TID 0000.0001)     Wall clock time:  0.0790280104
(PID.TID 0000.0001)          No. starts: 1
(PID.TID 0000.0001)           No. stops: 1
(PID.TID 0000.0001)   Seconds in section "THE_MAIN_LOOP          [THE_MODEL_MAIN]":
(PID.TID 0000.0001)           User time:  3.76999993
(PID.TID 0000.0001)         System time:  0.070000004
(PID.TID 0000.0001)     Wall clock time:  3.84353399
(PID.TID 0000.0001)          No. starts: 1
(PID.TID 0000.0001)           No. stops: 1
(PID.TID 0000.0001)   Seconds in section "INITIALISE_VARIA    [THE_MAIN_LOOP]":
(PID.TID 0000.0001)           User time:  0.0400000028
(PID.TID 0000.0001)         System time:  0.
(PID.TID 0000.0001)     Wall clock time:  0.0387439728
(PID.TID 0000.0001)          No. starts: 1
(PID.TID 0000.0001)           No. stops: 1
(PID.TID 0000.0001)   Seconds in section "WRITE_STATE         [THE_MAIN_LOOP]":
(PID.TID 0000.0001)           User time:  0.
(PID.TID 0000.0001)         System time:  0.00999999978
(PID.TID 0000.0001)     Wall clock time:  0.00761306286
(PID.TID 0000.0001)          No. starts: 1
(PID.TID 0000.0001)           No. stops: 1
(PID.TID 0000.0001)   Seconds in section "MONITOR             [THE_MAIN_LOOP]":
(PID.TID 0000.0001)           User time:  0.
(PID.TID 0000.0001)         System time:  0.
(PID.TID 0000.0001)     Wall clock time:  0.00453603268
(PID.TID 0000.0001)          No. starts: 1
(PID.TID 0000.0001)           No. stops: 1
(PID.TID 0000.0001)   Seconds in section "MAIN LOOP           [THE_MAIN_LOOP]":
(PID.TID 0000.0001)           User time:  3.72999992
(PID.TID 0000.0001)         System time:  0.0600000042
(PID.TID 0000.0001)     Wall clock time:  3.79227102
(PID.TID 0000.0001)          No. starts: 1
(PID.TID 0000.0001)           No. stops: 1
(PID.TID 0000.0001)   Seconds in section "FORWARD_STEP        [THE_MAIN_LOOP]":
(PID.TID 0000.0001)           User time:  3.70999994
(PID.TID 0000.0001)         System time:  0.0600000042
(PID.TID 0000.0001)     Wall clock time:  3.77806497
(PID.TID 0000.0001)          No. starts: 200
(PID.TID 0000.0001)           No. stops: 200
(PID.TID 0000.0001)   Seconds in section "EXTERNAL_FIELDS_LOAD[FORWARD_STEP]":
(PID.TID 0000.0001)           User time:  0.
(PID.TID 0000.0001)         System time:  0.
(PID.TID 0000.0001)     Wall clock time:  0.0141472816
(PID.TID 0000.0001)          No. starts: 200
(PID.TID 0000.0001)           No. stops: 200
(PID.TID 0000.0001)   Seconds in section "THERMODYNAMICS      [FORWARD_STEP]":
(PID.TID 0000.0001)           User time:  2.98999991
(PID.TID 0000.0001)         System time:  0.
(PID.TID 0000.0001)     Wall clock time:  2.98162746
(PID.TID 0000.0001)          No. starts: 200
(PID.TID 0000.0001)           No. stops: 200
(PID.TID 0000.0001)   Seconds in section "BLOCKING_EXCHANGES  [FORWARD_STEP]":
(PID.TID 0000.0001)           User time:  0.370000139
(PID.TID 0000.0001)         System time:  0.
(PID.TID 0000.0001)     Wall clock time:  0.357548594
(PID.TID 0000.0001)          No. starts: 400
(PID.TID 0000.0001)           No. stops: 400
(PID.TID 0000.0001)   Seconds in section "THE_CORRECTION_STEP [FORWARD_STEP]":
(PID.TID 0000.0001)           User time:  0.0699999332
(PID.TID 0000.0001)         System time:  0.
(PID.TID 0000.0001)     Wall clock time:  0.0843758583
(PID.TID 0000.0001)          No. starts: 200
(PID.TID 0000.0001)           No. stops: 200
(PID.TID 0000.0001)   Seconds in section "MONITOR             [FORWARD_STEP]":
(PID.TID 0000.0001)           User time:  0.0999999642
(PID.TID 0000.0001)         System time:  0.0100000016
(PID.TID 0000.0001)     Wall clock time:  0.104274392
(PID.TID 0000.0001)          No. starts: 200
(PID.TID 0000.0001)           No. stops: 200
(PID.TID 0000.0001)   Seconds in section "DO_THE_MODEL_IO     [FORWARD_STEP]":
(PID.TID 0000.0001)           User time:  0.00999999046
(PID.TID 0000.0001)         System time:  0.0400000047
(PID.TID 0000.0001)     Wall clock time:  0.0927393436
(PID.TID 0000.0001)          No. starts: 200
(PID.TID 0000.0001)           No. stops: 200
(PID.TID 0000.0001)   Seconds in section "WRITE_CHECKPOINT    [FORWARD_STEP]":
(PID.TID 0000.0001)           User time:  0.00999999046
(PID.TID 0000.0001)         System time:  0.
(PID.TID 0000.0001)     Wall clock time:  0.0144612789
(PID.TID 0000.0001)          No. starts: 200
(PID.TID 0000.0001)           No. stops: 200
(PID.TID 0000.0001)   Seconds in section "WRITE_CHECKPOINT       [THE_MODEL_MAIN]":
(PID.TID 0000.0001)           User time:  0.00999999046
(PID.TID 0000.0001)         System time:  0.
(PID.TID 0000.0001)     Wall clock time:  0.00888299942
(PID.TID 0000.0001)          No. starts: 1
(PID.TID 0000.0001)           No. stops: 1
(PID.TID 0000.0001) // ======================================================
(PID.TID 0000.0001) // Tile <-> Tile communication statistics
(PID.TID 0000.0001) // ======================================================
(PID.TID 0000.0001) // o Tile number: 000001
(PID.TID 0000.0001) //         No. X exchanges =              0
(PID.TID 0000.0001) //            Max. X spins =              0
(PID.TID 0000.0001) //            Min. X spins =     1000000000
(PID.TID 0000.0001) //          Total. X spins =              0
(PID.TID 0000.0001) //            Avg. X spins =       0.00E+00
(PID.TID 0000.0001) //         No. Y exchanges =              0
(PID.TID 0000.0001) //            Max. Y spins =              0
(PID.TID 0000.0001) //            Min. Y spins =     1000000000
(PID.TID 0000.0001) //          Total. Y spins =              0
(PID.TID 0000.0001) //            Avg. Y spins =       0.00E+00
(PID.TID 0000.0001) // o Thread number: 000001
(PID.TID 0000.0001) //            No. barriers =           5678
(PID.TID 0000.0001) //      Max. barrier spins =              1
(PID.TID 0000.0001) //      Min. barrier spins =              1
(PID.TID 0000.0001) //     Total barrier spins =           5678
(PID.TID 0000.0001) //      Avg. barrier spins =       1.00E+00
